REMARK  Name = ZINC27549034
REMARK  13 active torsions:
REMARK  status: ('A' for Active; 'I' for Inactive)
REMARK    1  A    between atoms: C_6  and  C_7
REMARK    2  A    between atoms: C_7  and  N_8
REMARK    3  A    between atoms: N_8  and  C_9
REMARK    4  A    between atoms: C_9  and  C_10
REMARK    5  A    between atoms: C_10  and  C_11
REMARK    6  A    between atoms: C_11  and  N_12
REMARK    7  A    between atoms: N_12  and  C_13
REMARK    8  A    between atoms: C_13  and  N_15
REMARK    9  A    between atoms: N_15  and  C_16
REMARK   10  A    between atoms: C_16  and  C_17
REMARK   11  A    between atoms: C_17  and  C_18
REMARK   12  A    between atoms: C_18  and  C_19
REMARK   13  A    between atoms: C_19  and  N_20
REMARK                            x       y       z     vdW  Elec       q    Type
REMARK                         _______ _______ _______ _____ _____    ______ ____
ROOT
ATOM      1  N   UNL     1      -1.726  -1.017  -1.368  0.00  0.00    -0.311 N 
ATOM      2  C   UNL     1      -2.548  -0.097  -2.010  0.00  0.00    +0.122 A 
ATOM      3  C   UNL     1      -2.865   1.102  -1.380  0.00  0.00    +0.045 A 
ATOM      4  C   UNL     1      -3.683   2.008  -2.030  0.00  0.00    +0.020 A 
ATOM      5  C   UNL     1      -4.158   1.683  -3.294  0.00  0.00    +0.036 A 
ATOM      6  C   UNL     1      -3.803   0.474  -3.860  0.00  0.00    +0.128 A 
ATOM      7  N   UNL     1      -3.016  -0.368  -3.218  0.00  0.00    -0.239 NA
ATOM      8 BR   UNL     1      -5.281   2.883  -4.230  0.00  0.00    -0.049 Br
ENDROOT
BRANCH   1   9
ATOM      9  C   UNL     1      -1.293  -0.775   0.011  0.00  0.00    +0.141 C 
BRANCH   9  15
ATOM     10  C   UNL     1      -0.017   1.378   0.010  0.00  0.00    +0.007 A 
ATOM     11  C   UNL     1       1.171   2.086   0.002  0.00  0.00    +0.022 A 
ATOM     12  C   UNL     1       2.378   1.412  -0.013  0.00  0.00    +0.059 A 
ATOM     13  C   UNL     1       2.397   0.027  -0.021  0.00  0.00    +0.060 A 
ATOM     14  C   UNL     1       1.208  -0.680  -0.013  0.00  0.00    +0.026 A 
ATOM     15  C   UNL     1       0.002  -0.004   0.002  0.00  0.00    -0.029 A 
ATOM     16 CL   UNL     1       3.912  -0.821  -0.040  0.00  0.00    -0.082 Cl
ATOM     17 CL   UNL     1       3.869   2.301  -0.023  0.00  0.00    -0.082 Cl
ENDBRANCH   9  15
ENDBRANCH   1   9
BRANCH   1  18
ATOM     18  C   UNL     1      -1.294  -2.229  -2.069  0.00  0.00    +0.108 C 
BRANCH  18  19
ATOM     19  C   UNL     1      -2.307  -3.348  -1.825  0.00  0.00    +0.038 C 
BRANCH  19  20
ATOM     20  C   UNL     1      -1.856  -4.614  -2.557  0.00  0.00    +0.105 C 
BRANCH  20  21
ATOM     21  N   UNL     1      -2.826  -5.686  -2.323  0.00  0.00    -0.327 N 
ATOM     22  H   UNL     1      -3.607  -5.521  -1.772  0.00  0.00    +0.148 HD
BRANCH  21  23
ATOM     23  C   UNL     1      -2.634  -6.901  -2.874  0.00  0.00    +0.130 C 
ATOM     24  S   UNL     1      -1.256  -7.191  -3.848  0.00  0.00    -0.019 S 
BRANCH  23  25
ATOM     25  N   UNL     1      -3.527  -7.887  -2.659  0.00  0.00    -0.327 N 
ATOM     26  H   UNL     1      -4.308  -7.723  -2.107  0.00  0.00    +0.148 HD
BRANCH  25  27
ATOM     27  C   UNL     1      -3.318  -9.208  -3.258  0.00  0.00    +0.103 C 
BRANCH  27  28
ATOM     28  C   UNL     1      -4.467 -10.136  -2.860  0.00  0.00    +0.017 C 
BRANCH  28  29
ATOM     29  C   UNL     1      -4.249 -11.515  -3.485  0.00  0.00    -0.018 C 
BRANCH  29  30
ATOM     30  C   UNL     1      -5.399 -12.443  -3.087  0.00  0.00    -0.086 C 
BRANCH  30  31
ATOM     31  N   UNL     1      -5.189 -13.767  -3.688  0.00  0.00    +0.378 N 
ATOM     32  H   UNL     1      -5.947 -14.380  -3.425  0.00  0.00    -0.090 HD
ATOM     33  H   UNL     1      -5.160 -13.680  -4.692  0.00  0.00    -0.090 HD
ATOM     34  H   UNL     1      -4.317 -14.152  -3.358  0.00  0.00    -0.090 HD
ENDBRANCH  30  31
ENDBRANCH  29  30
ENDBRANCH  28  29
ENDBRANCH  27  28
ENDBRANCH  25  27
ENDBRANCH  23  25
ENDBRANCH  21  23
ENDBRANCH  20  21
ENDBRANCH  19  20
ENDBRANCH  18  19
ENDBRANCH   1  18
TORSDOF 13
