REMARK  Name = ZINC48002220
REMARK  6 active torsions:
REMARK  status: ('A' for Active; 'I' for Inactive)
REMARK    1  A    between atoms: C_1  and  C_2
REMARK    2  A    between atoms: C_5  and  N_7
REMARK    3  A    between atoms: C_8  and  C_10
REMARK    4  A    between atoms: N_12  and  C_13
REMARK    5  A    between atoms: C_13  and  C_15
REMARK    6  A    between atoms: C_13  and  C_16
REMARK                            x       y       z     vdW  Elec       q    Type
REMARK                         _______ _______ _______ _____ _____    ______ ____
ROOT
ATOM      1  C   UNL     1       0.089  -6.247   0.341  0.00  0.00    +0.304 C 
ATOM      2  O   UNL     1       0.098  -7.147  -0.475  0.00  0.00    -0.265 OA
ATOM      3  N   UNL     1       0.097  -6.531   1.658  0.00  0.00    -0.298 N 
ATOM      4  H   UNL     1       0.089  -5.812   2.310  0.00  0.00    +0.150 HD
ENDROOT
BRANCH   1   6
ATOM      5  N   UNL     1       0.058  -3.869   0.766  0.00  0.00    -0.177 NA
ATOM      6  C   UNL     1       0.068  -4.839  -0.112  0.00  0.00    +0.335 C 
ATOM      7  O   UNL     1       0.059  -4.553  -1.435  0.00  0.00    -0.260 OA
BRANCH   5  12
ATOM      8  C   UNL     1      -0.018   1.503   0.010  0.00  0.00    +0.075 C 
ATOM      9  C   UNL     1       0.002  -0.004   0.002  0.00  0.00    +0.101 A 
ATOM     10  N   UNL     1       0.009  -0.826  -1.025  0.00  0.00    -0.145 NA
ATOM     11  N   UNL     1       0.027  -2.081  -0.882  0.00  0.00    -0.121 NA
ATOM     12  C   UNL     1       0.038  -2.583   0.353  0.00  0.00    +0.218 A 
ATOM     13  S   UNL     1       0.029  -1.071   1.307  0.00  0.00    -0.031 S 
ENDBRANCH   5  12
ENDBRANCH   1   6
BRANCH   3  14
ATOM     14  C   UNL     1       0.118  -7.926   2.107  0.00  0.00    +0.136 C 
ATOM     15  C   UNL     1       1.562  -8.430   2.138  0.00  0.00    +0.036 C 
BRANCH  14  16
ATOM     16  C   UNL     1      -0.477  -8.018   3.488  0.00  0.00    +0.125 A 
ATOM     17  C   UNL     1      -1.289  -8.995   3.931  0.00  0.00    +0.046 A 
ATOM     18  C   UNL     1      -1.606  -8.686   5.274  0.00  0.00    +0.041 A 
ATOM     19  C   UNL     1      -0.968  -7.540   5.572  0.00  0.00    +0.195 A 
ATOM     20  O   UNL     1      -0.281  -7.143   4.488  0.00  0.00    -0.466 OA
ENDBRANCH  14  16
ENDBRANCH   3  14
TORSDOF 4
