REMARK  Name = ZINC32581589
REMARK  7 active torsions:
REMARK  status: ('A' for Active; 'I' for Inactive)
REMARK    1  A    between atoms: C_1  and  C_2
REMARK    2  A    between atoms: C_2  and  O_3
REMARK    3  A    between atoms: O_3  and  C_4
REMARK    4  A    between atoms: C_4  and  C_6
REMARK    5  A    between atoms: C_7  and  C_34
REMARK    6  A    between atoms: C_14  and  C_15
REMARK    7  A    between atoms: C_22  and  C_24
REMARK                            x       y       z     vdW  Elec       q    Type
REMARK                         _______ _______ _______ _____ _____    ______ ____
ROOT
ATOM      1  C   UNL     1      -0.850  -0.301   4.993  0.00  0.00    +0.085 C 
ATOM      2  C   UNL     1      -1.200   0.482   6.058  0.00  0.00    +0.053 C 
ATOM      3  N   UNL     1      -0.410   0.567   7.121  0.00  0.00    -0.228 NA
ATOM      4  C   UNL     1       0.735  -0.051   7.249  0.00  0.00    +0.178 A 
ATOM      5  N   UNL     1       1.276  -0.884   6.294  0.00  0.00    -0.275 N 
ATOM      6  C   UNL     1       2.459  -1.455   6.550  0.00  0.00    +0.268 A 
ATOM      7  O   UNL     1       2.973  -2.198   5.734  0.00  0.00    -0.266 OA
ATOM      8  C   UNL     1       3.108  -1.188   7.787  0.00  0.00    +0.082 A 
ATOM      9  C   UNL     1       4.301  -1.654   8.256  0.00  0.00    +0.046 C 
ATOM     10  S   UNL     1       1.942  -0.078   8.560  0.00  0.00    -0.046 S 
ATOM     11  C   UNL     1       0.461  -1.051   5.060  0.00  0.00    +0.162 C 
ATOM     12  C   UNL     1      -2.496   1.251   6.026  0.00  0.00    +0.066 C 
ENDROOT
BRANCH  11  13
ATOM     13  C   UNL     1       0.163  -2.519   4.896  0.00  0.00    -0.012 A 
ATOM     14  C   UNL     1      -0.045  -3.301   5.990  0.00  0.00    +0.006 A 
ATOM     15  C   UNL     1      -0.326  -4.660   5.859  0.00  0.00    +0.001 A 
ATOM     16  C   UNL     1      -0.390  -5.246   4.632  0.00  0.00    +0.008 A 
ATOM     17  C   UNL     1      -0.176  -4.472   3.479  0.00  0.00    -0.018 A 
ATOM     18  C   UNL     1       0.105  -3.089   3.613  0.00  0.00    -0.012 A 
ATOM     19  C   UNL     1       0.320  -2.315   2.460  0.00  0.00    +0.009 A 
ATOM     20  C   UNL     1       0.254  -2.901   1.233  0.00  0.00    +0.001 A 
ATOM     21  C   UNL     1      -0.022  -4.261   1.102  0.00  0.00    +0.001 A 
ATOM     22  C   UNL     1      -0.235  -5.042   2.196  0.00  0.00    +0.008 A 
ENDBRANCH  11  13
BRANCH   9  23
ATOM     23  C   UNL     1       5.246  -2.205   7.360  0.00  0.00    +0.040 A 
ATOM     24  C   UNL     1       6.310  -3.025   7.695  0.00  0.00    +0.027 A 
ATOM     25  C   UNL     1       6.980  -3.334   6.508  0.00  0.00    +0.019 A 
ATOM     26  C   UNL     1       6.333  -2.715   5.490  0.00  0.00    +0.083 A 
ATOM     27  N   UNL     1       5.273  -2.030   5.995  0.00  0.00    -0.361 N 
ATOM     28  H   UNL     1       4.507  -1.413   5.504  0.00  0.00    +0.165 HD
ENDBRANCH   9  23
BRANCH   1  29
ATOM     29  C   UNL     1      -1.682  -0.400   3.866  0.00  0.00    +0.339 C 
ATOM     30  O   UNL     1      -1.432   0.248   2.865  0.00  0.00    -0.245 OA
BRANCH  29  31
ATOM     31  O   UNL     1      -2.759  -1.215   3.892  0.00  0.00    -0.462 OA
BRANCH  31  33
ATOM     32  C   UNL     1      -4.741  -2.208   2.929  0.00  0.00    +0.048 C 
ATOM     33  C   UNL     1      -3.497  -1.352   2.676  0.00  0.00    +0.229 C 
ENDBRANCH  31  33
ENDBRANCH  29  31
ENDBRANCH   1  29
TORSDOF 5
