REMARK  Name = ZINC00673016
REMARK  9 active torsions:
REMARK  status: ('A' for Active; 'I' for Inactive)
REMARK    1  A    between atoms: C_1  and  O_2
REMARK    2  A    between atoms: O_2  and  C_3
REMARK    3  A    between atoms: C_6  and  C_21
REMARK    4  A    between atoms: C_8  and  C_9
REMARK    5  A    between atoms: C_9  and  O_10
REMARK    6  A    between atoms: O_10  and  C_11
REMARK    7  A    between atoms: N_22  and  N_23
REMARK    8  A    between atoms: C_24  and  C_26
REMARK    9  A    between atoms: C_30  and  N_32
REMARK                            x       y       z     vdW  Elec       q    Type
REMARK                         _______ _______ _______ _____ _____    ______ ____
ROOT
ATOM      1  C   UNL     1     -12.147  -0.409   0.059  0.00  0.00    +0.127 A 
ATOM      2  C   UNL     1     -10.938  -1.094   0.049  0.00  0.00    +0.046 A 
ATOM      3  C   UNL     1      -9.749  -0.398   0.042  0.00  0.00    +0.013 A 
ATOM      4  C   UNL     1      -9.761   1.000   0.055  0.00  0.00    -0.005 A 
ATOM      5  C   UNL     1     -10.979   1.684   0.065  0.00  0.00    +0.020 A 
ATOM      6  C   UNL     1     -12.163   0.980   0.067  0.00  0.00    +0.032 A 
ENDROOT
BRANCH   1   8
ATOM      7  C   UNL     1     -13.228  -2.526   0.054  0.00  0.00    +0.277 C 
ATOM      8  O   UNL     1     -13.317  -1.100   0.061  0.00  0.00    -0.495 OA
ENDBRANCH   1   8
BRANCH   4   9
ATOM      9  C   UNL     1      -8.491   1.749   0.053  0.00  0.00    +0.138 C 
ATOM     10  N   UNL     1      -7.361   1.111   0.044  0.00  0.00    -0.187 NA
BRANCH  10  11
ATOM     11  N   UNL     1      -6.154   1.823   0.042  0.00  0.00    -0.203 N 
ATOM     12  C   UNL     1      -4.981   1.161   0.033  0.00  0.00    +0.263 C 
ATOM     13  O   UNL     1      -4.969  -0.055   0.026  0.00  0.00    -0.268 OA
ATOM     14  H   UNL     1      -6.164   2.793   0.047  0.00  0.00    +0.178 HD
BRANCH  12  15
ATOM     15  C   UNL     1      -3.708   1.912   0.030  0.00  0.00    +0.041 A 
ATOM     16  C   UNL     1      -3.718   3.308   0.038  0.00  0.00    +0.013 A 
ATOM     17  C   UNL     1      -2.526   4.003   0.036  0.00  0.00    +0.003 A 
ATOM     18  C   UNL     1      -1.323   3.320   0.032  0.00  0.00    +0.033 A 
ATOM     19  C   UNL     1      -1.306   1.936   0.019  0.00  0.00    +0.127 A 
ATOM     20  C   UNL     1      -2.491   1.229   0.021  0.00  0.00    +0.045 A 
BRANCH  19  21
ATOM     21  N   UNL     1      -0.014   1.214   0.009  0.00  0.00    +0.056 N 
ATOM     22  O   UNL     1       0.002  -0.004   0.002  0.00  0.00    -0.126 OA
ATOM     23  O   UNL     1       1.032   1.837   0.002  0.00  0.00    -0.126 OA
ENDBRANCH  19  21
ENDBRANCH  12  15
ENDBRANCH  10  11
ENDBRANCH   4   9
BRANCH   6  24
ATOM     24  C   UNL     1     -13.477   1.717   0.077  0.00  0.00    +0.268 C 
BRANCH  24  25
ATOM     25  O   UNL     1     -13.233   3.125   0.083  0.00  0.00    -0.485 OA
BRANCH  25  26
ATOM     26  C   UNL     1     -14.321   3.939   0.093  0.00  0.00    +0.147 A 
ATOM     27  C   UNL     1     -15.578   3.405   0.096  0.00  0.00    +0.048 A 
ATOM     28  C   UNL     1     -16.704   4.223   0.106  0.00  0.00    +0.004 A 
ATOM     29  C   UNL     1     -16.584   5.580   0.114  0.00  0.00    +0.010 A 
ATOM     30  C   UNL     1     -15.308   6.166   0.111  0.00  0.00    +0.004 A 
ATOM     31  C   UNL     1     -14.158   5.340   0.106  0.00  0.00    +0.112 A 
ATOM     32  N   UNL     1     -12.941   5.893   0.108  0.00  0.00    -0.251 NA
ATOM     33  C   UNL     1     -12.784   7.194   0.120  0.00  0.00    +0.111 A 
ATOM     34  C   UNL     1     -13.873   8.064   0.131  0.00  0.00    +0.020 A 
ATOM     35  C   UNL     1     -15.144   7.564   0.119  0.00  0.00    +0.011 A 
ENDBRANCH  25  26
ENDBRANCH  24  25
ENDBRANCH   6  24
TORSDOF 8
