REMARK  Name = ZINC21864371
REMARK  8 active torsions:
REMARK  status: ('A' for Active; 'I' for Inactive)
REMARK    1  A    between atoms: C_1  and  C_2
REMARK    2  A    between atoms: C_2  and  C_4
REMARK    3  A    between atoms: C_2  and  C_31
REMARK    4  A    between atoms: C_4  and  N_5
REMARK    5  A    between atoms: C_11  and  C_26
REMARK    6  A    between atoms: C_14  and  C_15
REMARK    7  A    between atoms: C_14  and  C_16
REMARK    8  A    between atoms: N_18  and  C_19
REMARK                            x       y       z     vdW  Elec       q    Type
REMARK                         _______ _______ _______ _____ _____    ______ ____
ROOT
ATOM      1  N   UNL     1      -2.177  -0.169   1.169  0.00  0.00    -0.280 N 
ATOM      2  C   UNL     1      -2.955   0.934   1.070  0.00  0.00    +0.264 C 
ATOM      3  O   UNL     1      -3.261   1.409  -0.009  0.00  0.00    -0.268 OA
ATOM      4  C   UNL     1      -3.411   1.527   2.332  0.00  0.00    +0.105 A 
ATOM      5  C   UNL     1      -4.330   2.509   2.576  0.00  0.00    +0.033 A 
ATOM      6  C   UNL     1      -4.395   2.683   3.960  0.00  0.00    +0.032 A 
ATOM      7  C   UNL     1      -3.501   1.795   4.540  0.00  0.00    +0.085 A 
ATOM      8  N   UNL     1      -2.894   1.097   3.549  0.00  0.00    -0.331 N 
ATOM      9  C   UNL     1      -1.859   0.062   3.623  0.00  0.00    +0.157 C 
ATOM     10  C   UNL     1      -2.011  -0.885   2.429  0.00  0.00    +0.128 C 
ATOM     11  C   UNL     1      -3.232  -1.780   2.653  0.00  0.00    +0.043 C 
ENDROOT
BRANCH   7  12
ATOM     12  C   UNL     1      -3.256   1.637   5.980  0.00  0.00    +0.151 A 
ATOM     13  C   UNL     1      -3.933   2.269   6.982  0.00  0.00    +0.051 A 
ATOM     14  C   UNL     1      -3.370   1.825   8.193  0.00  0.00    +0.042 A 
ATOM     15  C   UNL     1      -2.389   0.954   7.878  0.00  0.00    +0.196 A 
ATOM     16  O   UNL     1      -2.327   0.839   6.542  0.00  0.00    -0.461 OA
ENDBRANCH   7  12
BRANCH  10  17
ATOM     17  C   UNL     1      -0.784  -1.755   2.337  0.00  0.00    +0.238 C 
ATOM     18  O   UNL     1      -0.885  -2.911   1.983  0.00  0.00    -0.273 OA
ATOM     19  N   UNL     1       0.425  -1.249   2.647  0.00  0.00    -0.311 N 
ATOM     20  H   UNL     1       0.508  -0.228   3.048  0.00  0.00    +0.149 HD
BRANCH  19  21
ATOM     21  C   UNL     1       1.631  -2.058   2.451  0.00  0.00    +0.073 C 
ATOM     22  C   UNL     1       1.745  -3.073   3.607  0.00  0.00    +0.022 C 
ATOM     23  C   UNL     1       2.638  -4.202   3.165  0.00  0.00    +0.002 C 
ATOM     24  C   UNL     1       4.104  -3.991   3.588  0.00  0.00    +0.000 C 
ATOM     25  C   UNL     1       4.579  -2.538   3.395  0.00  0.00    +0.000 C 
ATOM     26  C   UNL     1       4.095  -1.941   2.101  0.00  0.00    +0.002 C 
ATOM     27  C   UNL     1       2.785  -1.175   2.374  0.00  0.00    +0.022 C 
ENDBRANCH  19  21
ENDBRANCH  10  17
BRANCH   1  28
ATOM     28  C   UNL     1      -1.486  -0.661  -0.025  0.00  0.00    +0.117 C 
BRANCH  28  30
ATOM     29  C   UNL     1      -0.347   1.543  -0.319  0.00  0.00    +0.014 C 
ATOM     30  C   UNL     1      -0.131   0.037  -0.154  0.00  0.00    +0.033 C 
BRANCH  30  31
ATOM     31  C   UNL     1       0.599  -0.500  -1.358  0.00  0.00    -0.043 A 
ATOM     32  C   UNL     1      -0.003  -0.468  -2.602  0.00  0.00    +0.004 A 
ATOM     33  C   UNL     1       0.668  -0.957  -3.707  0.00  0.00    +0.000 A 
ATOM     34  C   UNL     1       1.938  -1.486  -3.567  0.00  0.00    +0.000 A 
ATOM     35  C   UNL     1       2.537  -1.523  -2.322  0.00  0.00    +0.000 A 
ATOM     36  C   UNL     1       1.868  -1.030  -1.218  0.00  0.00    +0.004 A 
ENDBRANCH  30  31
ENDBRANCH  28  30
ENDBRANCH   1  28
TORSDOF 6
