REMARK  Name = ZINC00627317
REMARK  10 active torsions:
REMARK  status: ('A' for Active; 'I' for Inactive)
REMARK    1  A    between atoms: C_1  and  C_2
REMARK    2  A    between atoms: C_3  and  C_31
REMARK    3  A    between atoms: C_4  and  C_16
REMARK    4  A    between atoms: C_10  and  C_14
REMARK    5  A    between atoms: C_10  and  C_15
REMARK    6  A    between atoms: C_20  and  O_22
REMARK    7  A    between atoms: O_22  and  C_23
REMARK    8  A    between atoms: C_23  and  C_24
REMARK    9  A    between atoms: C_31  and  O_33
REMARK   10  A    between atoms: O_33  and  C_34
REMARK                            x       y       z     vdW  Elec       q    Type
REMARK                         _______ _______ _______ _____ _____    ______ ____
ROOT
ATOM      1  C   UNL     1       7.859  -4.591  -4.739  0.00  0.00    +0.061 C 
ATOM      2  C   UNL     1       7.646  -3.109  -4.573  0.00  0.00    +0.016 C 
ATOM      3  C   UNL     1       6.404  -2.600  -4.653  0.00  0.00    +0.065 C 
ATOM      4  C   UNL     1       6.153  -1.130  -4.486  0.00  0.00    +0.092 C 
ATOM      5  C   UNL     1       7.426  -0.340  -4.662  0.00  0.00    +0.024 C 
ATOM      6  C   UNL     1       8.630  -0.945  -4.577  0.00  0.00    +0.016 C 
ATOM      7  N   UNL     1       8.716  -2.291  -4.342  0.00  0.00    -0.321 N 
ATOM      8  C   UNL     1       9.907  -0.157  -4.732  0.00  0.00    +0.058 C 
ATOM      9  C   UNL     1       9.673   1.019  -5.683  0.00  0.00    -0.023 C 
ATOM     10  C   UNL     1       8.548   1.889  -5.113  0.00  0.00    +0.086 C 
ATOM     11  C   UNL     1       7.323   1.038  -4.918  0.00  0.00    +0.162 C 
ATOM     12  O   UNL     1       6.224   1.553  -4.982  0.00  0.00    -0.292 OA
ATOM     13  C   UNL     1       9.268   0.493  -7.062  0.00  0.00    +0.011 C 
ATOM     14  C   UNL     1      10.953   1.849  -5.806  0.00  0.00    +0.011 C 
ATOM     15  H   UNL     1       9.660  -2.712  -3.965  0.00  0.00    +0.152 HD
ENDROOT
BRANCH   4  16
ATOM     16  C   UNL     1       5.600  -0.876  -3.107  0.00  0.00    -0.032 A 
ATOM     17  C   UNL     1       6.340  -1.222  -1.991  0.00  0.00    +0.005 A 
ATOM     18  C   UNL     1       5.835  -0.991  -0.725  0.00  0.00    +0.004 A 
ATOM     19  C   UNL     1       4.590  -0.412  -0.572  0.00  0.00    +0.045 A 
ATOM     20  C   UNL     1       3.846  -0.064  -1.689  0.00  0.00    +0.121 A 
ATOM     21  C   UNL     1       4.352  -0.302  -2.959  0.00  0.00    +0.050 A 
BRANCH  20  22
ATOM     22  O   UNL     1       2.621   0.505  -1.541  0.00  0.00    -0.487 OA
BRANCH  22  23
ATOM     23  C   UNL     1       2.161   0.716  -0.205  0.00  0.00    +0.264 C 
BRANCH  23  24
ATOM     24  C   UNL     1       0.794   1.351  -0.238  0.00  0.00    -0.009 A 
ATOM     25  C   UNL     1      -0.337   0.556  -0.256  0.00  0.00    +0.007 A 
ATOM     26  C   UNL     1      -1.590   1.138  -0.292  0.00  0.00    +0.002 A 
ATOM     27  C   UNL     1      -1.713   2.515  -0.299  0.00  0.00    +0.020 A 
ATOM     28  C   UNL     1      -0.582   3.311  -0.281  0.00  0.00    +0.041 A 
ATOM     29  C   UNL     1       0.673   2.728  -0.251  0.00  0.00    +0.027 A 
ATOM     30 CL   UNL     1      -0.736   5.040  -0.298  0.00  0.00    -0.084 Cl
ENDBRANCH  23  24
ENDBRANCH  22  23
ENDBRANCH  20  22
ENDBRANCH   4  16
BRANCH   3  31
ATOM     31  C   UNL     1       5.314  -3.466  -4.898  0.00  0.00    +0.337 C 
ATOM     32  O   UNL     1       5.513  -4.642  -5.139  0.00  0.00    -0.245 OA
BRANCH  31  33
ATOM     33  O   UNL     1       4.052  -2.989  -4.865  0.00  0.00    -0.465 OA
ATOM     34  C   UNL     1       2.999  -3.920  -5.123  0.00  0.00    +0.280 C 
ENDBRANCH  31  33
ENDBRANCH   3  31
TORSDOF 6
