REMARK  Name = ZINC14162311
REMARK  8 active torsions:
REMARK  status: ('A' for Active; 'I' for Inactive)
REMARK    1  A    between atoms: C_1  and  C_2
REMARK    2  A    between atoms: C_2  and  O_3
REMARK    3  A    between atoms: O_3  and  C_4
REMARK    4  A    between atoms: C_4  and  C_6
REMARK    5  A    between atoms: C_7  and  N_38
REMARK    6  A    between atoms: C_27  and  C_29
REMARK    7  A    between atoms: C_34  and  C_36
REMARK    8  A    between atoms: C_34  and  C_37
REMARK                            x       y       z     vdW  Elec       q    Type
REMARK                         _______ _______ _______ _____ _____    ______ ____
ROOT
ATOM      1  C   UNL     1      -2.373   5.966  -1.980  0.00  0.00    +0.117 C 
ATOM      2  C   UNL     1      -2.401   7.290  -2.289  0.00  0.00    +0.195 C 
ATOM      3  O   UNL     1      -1.288   8.036  -2.257  0.00  0.00    -0.446 OA
ATOM      4  C   UNL     1      -0.079   7.451  -2.340  0.00  0.00    +0.116 C 
ATOM      5  C   UNL     1       0.093   6.151  -2.033  0.00  0.00    +0.057 C 
ATOM      6  C   UNL     1      -1.079   5.309  -1.600  0.00  0.00    +0.142 C 
ATOM      7  C   UNL     1      -1.023   5.034  -0.132  0.00  0.00    +0.001 A 
ATOM      8  C   UNL     1      -1.052   5.820   1.000  0.00  0.00    +0.045 A 
ATOM      9  C   UNL     1      -0.975   5.164   2.229  0.00  0.00    +0.124 A 
ATOM     10  C   UNL     1      -0.877   3.782   2.331  0.00  0.00    +0.044 A 
ATOM     11  C   UNL     1      -0.850   2.996   1.204  0.00  0.00    -0.020 A 
ATOM     12  C   UNL     1      -0.918   3.654  -0.023  0.00  0.00    +0.045 A 
ATOM     13  N   UNL     1      -0.895   3.028  -1.270  0.00  0.00    -0.263 N 
ATOM     14  C   UNL     1      -0.988   3.939  -2.252  0.00  0.00    +0.240 C 
ATOM     15  O   UNL     1      -0.996   3.710  -3.443  0.00  0.00    -0.274 OA
ATOM     16  C   UNL     1      -0.780   1.567  -1.355  0.00  0.00    +0.043 C 
ATOM     17  C   UNL     1      -2.179   0.939  -1.473  0.00  0.00    +0.026 C 
ATOM     18  C   UNL     1      -2.372   0.730  -2.997  0.00  0.00    +0.002 C 
ATOM     19  C   UNL     1      -0.957   0.308  -3.467  0.00  0.00    +0.002 C 
ATOM     20  C   UNL     1      -0.002   1.173  -2.617  0.00  0.00    +0.026 C 
ATOM     21  C   UNL     1      -0.071   1.039  -0.109  0.00  0.00    +0.034 C 
ATOM     22  C   UNL     1      -0.762   1.498   1.179  0.00  0.00    +0.020 C 
ATOM     23  C   UNL     1       0.044   1.018   2.388  0.00  0.00    +0.012 C 
ATOM     24  F   UNL     1      -0.997   5.900   3.362  0.00  0.00    -0.205 F 
ATOM     25  C   UNL     1       1.362   5.543  -2.105  0.00  0.00    +0.165 C 
ATOM     26  O   UNL     1       1.475   4.365  -1.835  0.00  0.00    -0.292 OA
ATOM     27  C   UNL     1       2.580   6.328  -2.512  0.00  0.00    +0.086 C 
ATOM     28  C   UNL     1       2.374   7.797  -2.129  0.00  0.00    -0.021 C 
ATOM     29  C   UNL     1       1.089   8.295  -2.794  0.00  0.00    +0.081 C 
ATOM     30  C   UNL     1       2.248   7.920  -0.609  0.00  0.00    +0.012 C 
ATOM     31  C   UNL     1       3.564   8.627  -2.615  0.00  0.00    +0.012 C 
ENDROOT
BRANCH   2  32
ATOM     32  N   UNL     1      -3.589   7.872  -2.640  0.00  0.00    -0.329 N 
ATOM     33  H   UNL     1      -4.413   7.361  -2.593  0.00  0.00    +0.145 HD
ATOM     34  H   UNL     1      -3.608   8.795  -2.937  0.00  0.00    +0.145 HD
ENDBRANCH   2  32
BRANCH   1  35
ATOM     35  C   UNL     1      -3.557   5.213  -2.016  0.00  0.00    +0.342 C 
ATOM     36  O   UNL     1      -4.114   4.904  -0.978  0.00  0.00    -0.245 OA
BRANCH  35  37
ATOM     37  O   UNL     1      -4.079   4.832  -3.202  0.00  0.00    -0.462 OA
BRANCH  37  39
ATOM     38  C   UNL     1      -5.827   3.925  -4.602  0.00  0.00    +0.048 C 
ATOM     39  C   UNL     1      -5.345   4.169  -3.171  0.00  0.00    +0.229 C 
ENDBRANCH  37  39
ENDBRANCH  35  37
ENDBRANCH   1  35
TORSDOF 4
