REMARK  Name = ZINC16226754
REMARK  8 active torsions:
REMARK  status: ('A' for Active; 'I' for Inactive)
REMARK    1  A    between atoms: C_1  and  O_2
REMARK    2  A    between atoms: O_2  and  C_3
REMARK    3  A    between atoms: C_6  and  C_10
REMARK    4  A    between atoms: C_14  and  N_19
REMARK    5  A    between atoms: C_20  and  C_21
REMARK    6  A    between atoms: C_23  and  C_28
REMARK    7  A    between atoms: C_26  and  O_27
REMARK    8  A    between atoms: C_28  and  C_29
REMARK                            x       y       z     vdW  Elec       q    Type
REMARK                         _______ _______ _______ _____ _____    ______ ____
ROOT
ATOM      1  C   UNL     1      -9.597   0.107  -8.416  0.00  0.00    +0.228 A 
ATOM      2  N   UNL     1      -9.246   1.312  -8.042  0.00  0.00    -0.209 NA
ATOM      3  C   UNL     1      -8.129   1.222  -7.274  0.00  0.00    +0.112 A 
ATOM      4  C   UNL     1      -7.339   2.164  -6.614  0.00  0.00    +0.059 A 
ATOM      5  C   UNL     1      -6.227   1.742  -5.891  0.00  0.00    +0.066 A 
ATOM      6  C   UNL     1      -5.912   0.380  -5.819  0.00  0.00    +0.031 A 
ATOM      7  C   UNL     1      -6.694  -0.550  -6.465  0.00  0.00    +0.050 A 
ATOM      8  C   UNL     1      -7.803  -0.142  -7.193  0.00  0.00    +0.156 A 
ATOM      9  O   UNL     1      -8.738  -0.800  -7.916  0.00  0.00    -0.435 OA
ENDROOT
BRANCH   1  13
ATOM     10  C   UNL     1     -12.956  -0.803 -10.852  0.00  0.00    +0.134 A 
ATOM     11  C   UNL     1     -12.681   0.516 -10.517  0.00  0.00    +0.047 A 
ATOM     12  C   UNL     1     -11.595   0.815  -9.723  0.00  0.00    +0.017 A 
ATOM     13  C   UNL     1     -10.765  -0.210  -9.263  0.00  0.00    +0.038 A 
ATOM     14  C   UNL     1     -11.045  -1.535  -9.602  0.00  0.00    +0.032 A 
ATOM     15  C   UNL     1     -12.136  -1.827 -10.392  0.00  0.00    +0.060 A 
ATOM     16 BR   UNL     1     -12.518  -3.621 -10.851  0.00  0.00    -0.046 Br
BRANCH  10  18
ATOM     17  C   UNL     1     -14.831   0.006 -12.068  0.00  0.00    +0.277 C 
ATOM     18  O   UNL     1     -14.031  -1.094 -11.630  0.00  0.00    -0.494 OA
ENDBRANCH  10  18
ENDBRANCH   1  13
BRANCH   5  19
ATOM     19  N   UNL     1      -5.444   2.661  -5.245  0.00  0.00    -0.255 NA
ATOM     20  C   UNL     1      -5.055   2.439  -4.021  0.00  0.00    +0.123 C 
BRANCH  20  21
ATOM     21  C   UNL     1      -4.213   3.425  -3.327  0.00  0.00    +0.035 A 
ATOM     22  C   UNL     1      -3.793   3.192  -2.014  0.00  0.00    +0.017 A 
ATOM     23  C   UNL     1      -3.004   4.120  -1.370  0.00  0.00    -0.042 A 
ATOM     24  C   UNL     1      -2.629   5.287  -2.016  0.00  0.00    +0.007 A 
ATOM     25  C   UNL     1      -3.032   5.528  -3.315  0.00  0.00    +0.046 A 
ATOM     26  C   UNL     1      -3.826   4.606  -3.979  0.00  0.00    +0.125 A 
BRANCH  26  27
ATOM     27  O   UNL     1      -4.227   4.844  -5.254  0.00  0.00    -0.506 OA
ATOM     28  H   UNL     1      -5.067   5.318  -5.319  0.00  0.00    +0.292 HD
ENDBRANCH  26  27
BRANCH  23  29
ATOM     29  C   UNL     1      -2.553   3.869   0.045  0.00  0.00    +0.070 C 
BRANCH  29  30
ATOM     30  C   UNL     1      -1.238   3.133   0.030  0.00  0.00    -0.043 A 
ATOM     31  C   UNL     1      -1.219   1.751   0.017  0.00  0.00    +0.004 A 
ATOM     32  C   UNL     1      -0.013   1.076   0.008  0.00  0.00    +0.000 A 
ATOM     33  C   UNL     1       1.175   1.783   0.000  0.00  0.00    +0.000 A 
ATOM     34  C   UNL     1       1.156   3.165   0.008  0.00  0.00    +0.000 A 
ATOM     35  C   UNL     1      -0.050   3.840   0.022  0.00  0.00    +0.004 A 
ENDBRANCH  29  30
ENDBRANCH  23  29
ENDBRANCH  20  21
ENDBRANCH   5  19
TORSDOF 7
