REMARK  Name = ZINC57608596
REMARK  10 active torsions:
REMARK  status: ('A' for Active; 'I' for Inactive)
REMARK    1  A    between atoms: C_1  and  C_2
REMARK    2  A    between atoms: C_5  and  C_40
REMARK    3  A    between atoms: C_9  and  C_14
REMARK    4  A    between atoms: C_14  and  C_16
REMARK    5  A    between atoms: C_14  and  N_26
REMARK    6  A    between atoms: N_20  and  C_21
REMARK    7  A    between atoms: N_26  and  C_27
REMARK    8  A    between atoms: N_26  and  C_34
REMARK    9  A    between atoms: C_27  and  C_28
REMARK   10  A    between atoms: C_34  and  C_35
REMARK                            x       y       z     vdW  Elec       q    Type
REMARK                         _______ _______ _______ _____ _____    ______ ____
ROOT
ATOM      1  C   UNL     1       0.247  -0.189   4.289  0.00  0.00    +0.163 C 
ENDROOT
BRANCH   1  10
ATOM      2  C   UNL     1       0.032   1.452  -0.648  0.00  0.00    +0.044 C 
ATOM      3  C   UNL     1      -0.001  -0.054  -0.675  0.00  0.00    -0.041 A 
ATOM      4  C   UNL     1      -0.070  -0.718  -1.868  0.00  0.00    +0.004 A 
ATOM      5  C   UNL     1      -0.100  -2.105  -1.903  0.00  0.00    +0.005 A 
ATOM      6  C   UNL     1      -0.061  -2.840  -0.738  0.00  0.00    -0.026 A 
ATOM      7  C   UNL     1       0.009  -2.186   0.488  0.00  0.00    +0.052 A 
ATOM      8  C   UNL     1       0.045  -0.779   0.520  0.00  0.00    +0.002 A 
ATOM      9  C   UNL     1       0.124  -0.101   1.815  0.00  0.00    +0.021 A 
ATOM     10  C   UNL     1       0.166  -0.856   2.940  0.00  0.00    +0.042 A 
ATOM     11  C   UNL     1       0.133  -2.264   2.853  0.00  0.00    +0.254 A 
ATOM     12  O   UNL     1       0.171  -2.924   3.877  0.00  0.00    -0.268 OA
ATOM     13  N   UNL     1       0.050  -2.896   1.669  0.00  0.00    -0.322 N 
ATOM     14  H   UNL     1       0.029  -3.865   1.645  0.00  0.00    +0.169 HD
ATOM     15  C   UNL     1      -0.095  -4.345  -0.791  0.00  0.00    +0.046 C 
ENDBRANCH   1  10
BRANCH   1  16
ATOM     16  C   UNL     1       1.563  -0.531   4.940  0.00  0.00    +0.173 A 
ATOM     17  N   UNL     1       1.796  -1.531   5.754  0.00  0.00    -0.111 NA
ATOM     18  N   UNL     1       3.038  -1.486   6.094  0.00  0.00    -0.023 NA
ATOM     19  N   UNL     1       3.603  -0.483   5.518  0.00  0.00    -0.044 NA
ATOM     20  N   UNL     1       2.728   0.128   4.793  0.00  0.00    -0.224 N 
BRANCH  20  21
ATOM     21  C   UNL     1       2.957   1.317   3.969  0.00  0.00    +0.111 C 
ATOM     22  C   UNL     1       3.943   0.987   2.829  0.00  0.00    +0.027 C 
ATOM     23  C   UNL     1       4.801   2.270   2.687  0.00  0.00    +0.002 C 
ATOM     24  C   UNL     1       4.975   2.729   4.155  0.00  0.00    +0.002 C 
ATOM     25  C   UNL     1       3.613   2.424   4.812  0.00  0.00    +0.027 C 
ENDBRANCH  20  21
ENDBRANCH   1  16
BRANCH   1  26
ATOM     26  N   UNL     1      -0.856  -0.661   5.137  0.00  0.00    -0.277 NA
BRANCH  26  27
ATOM     27  C   UNL     1      -0.854   0.026   6.435  0.00  0.00    +0.122 C 
BRANCH  27  28
ATOM     28  C   UNL     1      -0.935   1.515   6.215  0.00  0.00    -0.015 A 
ATOM     29  C   UNL     1       0.220   2.279   6.150  0.00  0.00    +0.008 A 
ATOM     30  C   UNL     1       0.097   3.645   5.946  0.00  0.00    +0.020 A 
ATOM     31  C   UNL     1      -1.164   4.196   5.817  0.00  0.00    +0.111 A 
ATOM     32  N   UNL     1      -2.241   3.438   5.886  0.00  0.00    -0.263 NA
ATOM     33  C   UNL     1      -2.162   2.135   6.072  0.00  0.00    +0.115 A 
ENDBRANCH  27  28
ENDBRANCH  26  27
BRANCH  26  34
ATOM     34  C   UNL     1      -2.148  -0.499   4.457  0.00  0.00    +0.160 C 
BRANCH  34  35
ATOM     35  C   UNL     1      -3.188  -1.343   5.148  0.00  0.00    +0.119 A 
ATOM     36  C   UNL     1      -4.040  -0.920   6.099  0.00  0.00    +0.046 A 
ATOM     37  C   UNL     1      -4.832  -2.033   6.463  0.00  0.00    +0.041 A 
ATOM     38  C   UNL     1      -4.417  -3.070   5.713  0.00  0.00    +0.195 A 
ATOM     39  O   UNL     1      -3.425  -2.645   4.914  0.00  0.00    -0.467 OA
ENDBRANCH  34  35
ENDBRANCH  26  34
ENDBRANCH   1  26
TORSDOF 8
