REMARK  Name = ZINC19375527
REMARK  4 active torsions:
REMARK  status: ('A' for Active; 'I' for Inactive)
REMARK    1  A    between atoms: C_16  and  C_18
REMARK    2  A    between atoms: C_18  and  N_19
REMARK    3  A    between atoms: C_27  and  C_29
REMARK    4  A    between atoms: C_27  and  O_34
REMARK                            x       y       z     vdW  Elec       q    Type
REMARK                         _______ _______ _______ _____ _____    ______ ____
ROOT
ATOM      1  C   UNL     1       2.152  -2.022  -5.400  0.00  0.00    +0.000 A 
ATOM      2  C   UNL     1       1.159  -2.222  -4.457  0.00  0.00    +0.002 A 
ATOM      3  C   UNL     1       0.203  -1.247  -4.271  0.00  0.00    +0.024 A 
ATOM      4  C   UNL     1       0.234  -0.073  -5.020  0.00  0.00    +0.044 A 
ATOM      5  C   UNL     1       1.244   0.147  -5.935  0.00  0.00    -0.025 A 
ATOM      6  C   UNL     1       2.189  -0.865  -6.120  0.00  0.00    +0.005 A 
ATOM      7  C   UNL     1       1.472   1.385  -6.774  0.00  0.00    +0.042 C 
ATOM      8  C   UNL     1       0.445   2.473  -6.514  0.00  0.00    +0.042 C 
ATOM      9  C   UNL     1      -0.947   2.012  -6.857  0.00  0.00    -0.025 A 
ATOM     10  C   UNL     1      -1.594   2.391  -8.011  0.00  0.00    +0.005 A 
ATOM     11  C   UNL     1      -2.909   1.990  -8.201  0.00  0.00    +0.000 A 
ATOM     12  C   UNL     1      -3.552   1.222  -7.248  0.00  0.00    +0.002 A 
ATOM     13  C   UNL     1      -2.887   0.831  -6.097  0.00  0.00    +0.024 A 
ATOM     14  C   UNL     1      -1.572   1.226  -5.925  0.00  0.00    +0.044 A 
ATOM     15  N   UNL     1      -0.801   0.852  -4.814  0.00  0.00    -0.241 N 
ATOM     16  C   UNL     1      -1.042   1.368  -3.593  0.00  0.00    +0.208 C 
ATOM     17  O   UNL     1      -1.938   2.170  -3.439  0.00  0.00    -0.277 OA
ENDROOT
BRANCH  16  18
ATOM     18  C   UNL     1      -0.197   0.948  -2.417  0.00  0.00    +0.020 C 
BRANCH  18  19
ATOM     19  N   UNL     1      -0.657   1.647  -1.210  0.00  0.00    +0.389 N 
ATOM     20  C   UNL     1      -0.212   3.066  -1.213  0.00  0.00    -0.064 C 
ATOM     21  C   UNL     1       1.279   2.998  -0.809  0.00  0.00    -0.017 C 
ATOM     22  C   UNL     1       1.411   1.690  -0.002  0.00  0.00    -0.017 C 
ATOM     23  C   UNL     1      -0.013   1.086   0.008  0.00  0.00    -0.064 C 
ATOM     24  C   UNL     1      -0.753   1.648   1.232  0.00  0.00    +0.027 C 
ATOM     25  C   UNL     1      -0.557   3.178   1.257  0.00  0.00    +0.120 C 
ATOM     26  C   UNL     1      -0.973   3.784  -0.087  0.00  0.00    +0.027 C 
ATOM     27  H   UNL     1      -1.751   1.534  -1.214  0.00  0.00    -0.080 HD
BRANCH  25  28
ATOM     28  C   UNL     1      -1.400   3.770   2.356  0.00  0.00    +0.136 A 
ATOM     29  C   UNL     1      -1.015   3.950   3.632  0.00  0.00    +0.047 A 
ATOM     30  C   UNL     1      -2.111   4.530   4.312  0.00  0.00    +0.041 A 
ATOM     31  C   UNL     1      -3.099   4.670   3.411  0.00  0.00    +0.195 A 
ATOM     32  O   UNL     1      -2.661   4.213   2.227  0.00  0.00    -0.465 OA
ENDBRANCH  25  28
BRANCH  25  33
ATOM     33  O   UNL     1       0.820   3.469   1.504  0.00  0.00    -0.381 OA
ATOM     34  H   UNL     1       1.160   4.514   1.558  0.00  0.00    +0.211 HD
ENDBRANCH  25  33
ENDBRANCH  18  19
ENDBRANCH  16  18
TORSDOF 4
