REMARK  Name = ZINC33699197
REMARK  8 active torsions:
REMARK  status: ('A' for Active; 'I' for Inactive)
REMARK    1  A    between atoms: C_1  and  O_2
REMARK    2  A    between atoms: O_2  and  C_3
REMARK    3  A    between atoms: C_6  and  C_9
REMARK    4  A    between atoms: C_14  and  O_41
REMARK    5  A    between atoms: C_15  and  O_40
REMARK    6  A    between atoms: C_26  and  C_32
REMARK    7  A    between atoms: C_35  and  O_38
REMARK    8  A    between atoms: O_38  and  C_39
REMARK                            x       y       z     vdW  Elec       q    Type
REMARK                         _______ _______ _______ _____ _____    ______ ____
ROOT
ATOM      1  C   UNL     1       1.226  -2.187  -0.021  0.00  0.00    +0.061 C 
ATOM      2  C   UNL     1       1.926  -2.673  -1.264  0.00  0.00    +0.006 A 
ATOM      3  C   UNL     1       1.658  -2.038  -2.468  0.00  0.00    +0.011 A 
ATOM      4  C   UNL     1       2.274  -2.456  -3.631  0.00  0.00    +0.050 A 
ATOM      5  C   UNL     1       3.165  -3.518  -3.600  0.00  0.00    +0.162 A 
ATOM      6  C   UNL     1       3.436  -4.156  -2.398  0.00  0.00    +0.201 A 
ATOM      7  C   UNL     1       2.813  -3.731  -1.225  0.00  0.00    +0.172 A 
ATOM      8  O   UNL     1       3.105  -4.376  -0.065  0.00  0.00    -0.464 OA
ATOM      9  C   UNL     1       2.232  -4.191   1.047  0.00  0.00    +0.186 C 
ATOM     10  C   UNL     1       1.962  -2.694   1.224  0.00  0.00    +0.064 C 
ATOM     11  C   UNL     1       1.056  -2.495   2.445  0.00  0.00    +0.010 C 
ATOM     12  C   UNL     1      -0.272  -3.215   2.198  0.00  0.00    +0.001 C 
ATOM     13  C   UNL     1      -0.016  -4.709   2.003  0.00  0.00    +0.011 C 
ATOM     14  C   UNL     1       0.912  -4.927   0.803  0.00  0.00    +0.077 C 
ATOM     15  C   UNL     1       1.220  -6.428   0.691  0.00  0.00    +0.111 C 
ATOM     16  N   UNL     1       1.918  -6.858   1.904  0.00  0.00    -0.319 N 
ATOM     17  C   UNL     1       2.681  -6.011   2.611  0.00  0.00    +0.134 C 
ATOM     18  S   UNL     1       3.457  -6.589   4.024  0.00  0.00    -0.019 S 
ATOM     19  N   UNL     1       2.860  -4.729   2.256  0.00  0.00    -0.289 N 
ATOM     20  H   UNL     1       1.822  -7.896   2.255  0.00  0.00    +0.148 HD
ATOM     21  H   UNL     1       3.487  -4.080   2.885  0.00  0.00    +0.151 HD
ENDROOT
BRANCH   1  25
ATOM     22  C   UNL     1       1.176   2.086   0.002  0.00  0.00    +0.120 A 
ATOM     23  C   UNL     1      -0.017   1.377   0.010  0.00  0.00    +0.046 A 
ATOM     24  C   UNL     1       0.002  -0.004   0.002  0.00  0.00    +0.008 A 
ATOM     25  C   UNL     1       1.208  -0.680  -0.013  0.00  0.00    -0.039 A 
ATOM     26  C   UNL     1       2.398   0.024  -0.021  0.00  0.00    +0.008 A 
ATOM     27  C   UNL     1       2.385   1.405  -0.013  0.00  0.00    +0.046 A 
BRANCH  22  29
ATOM     28  C   UNL     1       2.426   4.108   0.001  0.00  0.00    +0.277 C 
ATOM     29  O   UNL     1       1.160   3.445   0.010  0.00  0.00    -0.495 OA
ENDBRANCH  22  29
ENDBRANCH   1  25
BRANCH  15  30
ATOM     30  C   UNL     1      -0.065  -7.201   0.546  0.00  0.00    -0.027 A 
ATOM     31  C   UNL     1      -0.836  -7.473   1.661  0.00  0.00    +0.009 A 
ATOM     32  C   UNL     1      -2.018  -8.177   1.530  0.00  0.00    +0.046 A 
ATOM     33  C   UNL     1      -2.425  -8.620   0.280  0.00  0.00    +0.120 A 
ATOM     34  C   UNL     1      -1.647  -8.350  -0.836  0.00  0.00    +0.046 A 
ATOM     35  C   UNL     1      -0.469  -7.641  -0.701  0.00  0.00    +0.009 A 
BRANCH  33  36
ATOM     36  O   UNL     1      -3.584  -9.317   0.150  0.00  0.00    -0.495 OA
ATOM     37  C   UNL     1      -4.334  -9.558   1.342  0.00  0.00    +0.277 C 
ENDBRANCH  33  36
ENDBRANCH  15  30
BRANCH   6  38
ATOM     38  O   UNL     1       4.309  -5.199  -2.363  0.00  0.00    -0.501 OA
ATOM     39  H   UNL     1       4.524  -5.706  -1.411  0.00  0.00    +0.292 HD
ENDBRANCH   6  38
BRANCH   5  40
ATOM     40  O   UNL     1       3.772  -3.933  -4.744  0.00  0.00    -0.503 OA
ATOM     41  H   UNL     1       4.478  -4.776  -4.718  0.00  0.00    +0.292 HD
ENDBRANCH   5  40
TORSDOF 6
