REMARK  Name = ZINC09240403
REMARK  16 active torsions:
REMARK  status: ('A' for Active; 'I' for Inactive)
REMARK    1  A    between atoms: C_1  and  C_2
REMARK    2  A    between atoms: C_5  and  C_8
REMARK    3  A    between atoms: C_11  and  C_12
REMARK    4  A    between atoms: C_11  and  O_24
REMARK    5  A    between atoms: C_15  and  O_19
REMARK    6  A    between atoms: C_16  and  C_18
REMARK    7  A    between atoms: O_19  and  C_20
REMARK    8  A    between atoms: C_20  and  C_21
REMARK    9  A    between atoms: C_21  and  C_22
REMARK   10  A    between atoms: C_21  and  C_23
REMARK   11  A    between atoms: N_29  and  C_30
REMARK   12  A    between atoms: C_30  and  C_31
REMARK   13  A    between atoms: C_31  and  C_32
REMARK   14  A    between atoms: C_32  and  N_70
REMARK   15  A    between atoms: C_33  and  N_70
REMARK   16  A    between atoms: C_34  and  N_70
REMARK                            x       y       z     vdW  Elec       q    Type
REMARK                         _______ _______ _______ _____ _____    ______ ____
ROOT
ATOM      1  C   UNL     1       0.098   6.075   0.076  0.00  0.00    +0.144 C 
ATOM      2  C   UNL     1      -0.199   6.566  -1.322  0.00  0.00    +0.071 C 
ATOM      3  C   UNL     1       0.341   6.090  -2.501  0.00  0.00    +0.133 C 
ATOM      4  C   UNL     1      -1.133   7.604  -1.179  0.00  0.00    +0.249 C 
ATOM      5  O   UNL     1      -1.620   8.256  -2.086  0.00  0.00    -0.282 OA
ATOM      6  C   UNL     1      -1.425   7.772   0.270  0.00  0.00    +0.288 C 
ATOM      7  O   UNL     1      -2.193   8.588   0.735  0.00  0.00    -0.266 OA
ATOM      8  N   UNL     1      -0.712   6.888   0.989  0.00  0.00    -0.284 N 
ENDROOT
BRANCH   1  13
ATOM      9  C   UNL     1      -1.359   0.505   0.570  0.00  0.00    +0.044 C 
ATOM     10  C   UNL     1      -0.980   1.957   0.441  0.00  0.00    -0.050 A 
ATOM     11  C   UNL     1      -1.958   2.933   0.476  0.00  0.00    +0.004 A 
ATOM     12  C   UNL     1      -1.609   4.266   0.362  0.00  0.00    +0.006 A 
ATOM     13  C   UNL     1      -0.283   4.622   0.204  0.00  0.00    -0.022 A 
ATOM     14  C   UNL     1       0.695   3.646   0.164  0.00  0.00    +0.006 A 
ATOM     15  C   UNL     1       0.347   2.313   0.282  0.00  0.00    +0.004 A 
ENDBRANCH   1  13
BRANCH   3  16
ATOM     16  C   UNL     1      -0.166   6.579  -3.792  0.00  0.00    +0.017 A 
ATOM     17  C   UNL     1      -1.541   6.564  -4.058  0.00  0.00    +0.015 A 
ATOM     18  C   UNL     1      -2.010   7.028  -5.266  0.00  0.00    +0.046 A 
ATOM     19  C   UNL     1      -1.121   7.501  -6.225  0.00  0.00    +0.123 A 
ATOM     20  C   UNL     1       0.245   7.512  -5.968  0.00  0.00    -0.008 A 
ATOM     21  C   UNL     1       0.725   7.056  -4.761  0.00  0.00    +0.018 A 
ATOM     22  C   UNL     1       1.203   8.025  -7.012  0.00  0.00    +0.047 C 
BRANCH  19  23
ATOM     23  O   UNL     1      -1.589   7.952  -7.416  0.00  0.00    -0.491 OA
BRANCH  23  24
ATOM     24  C   UNL     1      -3.003   7.912  -7.615  0.00  0.00    +0.232 C 
BRANCH  24  25
ATOM     25  C   UNL     1      -3.338   8.457  -9.005  0.00  0.00    +0.020 C 
ATOM     26  C   UNL     1      -4.838   8.300  -9.266  0.00  0.00    +0.010 C 
ATOM     27  C   UNL     1      -2.961   9.938  -9.077  0.00  0.00    +0.010 C 
ENDBRANCH  24  25
ENDBRANCH  23  24
ENDBRANCH  19  23
ENDBRANCH   3  16
BRANCH   3  28
ATOM     28  O   UNL     1       1.334   5.176  -2.468  0.00  0.00    -0.506 OA
ATOM     29  H   UNL     1       1.604   4.943  -3.402  0.00  0.00    +0.292 HD
ENDBRANCH   3  28
BRANCH   8  30
ATOM     30  C   UNL     1      -0.740   6.758   2.447  0.00  0.00    +0.107 C 
BRANCH  30  31
ATOM     31  C   UNL     1       0.327   7.667   3.061  0.00  0.00    +0.000 C 
BRANCH  31  32
ATOM     32  C   UNL     1       0.298   7.531   4.585  0.00  0.00    -0.078 C 
BRANCH  32  35
ATOM     33  C   UNL     1       1.171   8.483   6.633  0.00  0.00    -0.097 C 
ATOM     34  C   UNL     1       2.672   7.953   4.808  0.00  0.00    -0.097 C 
ATOM     35  N   UNL     1       1.319   8.430   5.163  0.00  0.00    +0.376 N 
ATOM     36  H   UNL     1       1.187   9.374   4.780  0.00  0.00    -0.083 HD
ENDBRANCH  32  35
ENDBRANCH  31  32
ENDBRANCH  30  31
ENDBRANCH   8  30
TORSDOF 10
