REMARK  Name = ZINC63008113
REMARK  1 active torsions:
REMARK  status: ('A' for Active; 'I' for Inactive)
REMARK    1  A    between atoms: C_2  and  C_10
REMARK                            x       y       z     vdW  Elec       q    Type
REMARK                         _______ _______ _______ _____ _____    ______ ____
ROOT
ATOM      1  C   UNL     1      -0.017   1.377   0.010  0.00  0.00    +0.053 A 
ATOM      2  C   UNL     1       1.184   2.089   0.002  0.00  0.00    +0.025 A 
ATOM      3  C   UNL     1       2.398   1.402  -0.013  0.00  0.00    +0.053 A 
ATOM      4  C   UNL     1       2.407   0.020  -0.021  0.00  0.00    +0.162 A 
ATOM      5  C   UNL     1       1.212  -0.683  -0.013  0.00  0.00    +0.193 A 
ATOM      6  C   UNL     1       0.002  -0.004   0.002  0.00  0.00    +0.162 A 
ATOM      7  F   UNL     1      -1.159  -0.694   0.010  0.00  0.00    -0.202 F 
ATOM      8  F   UNL     1       1.225  -2.034  -0.021  0.00  0.00    -0.199 F 
ATOM      9  F   UNL     1       3.582  -0.647  -0.036  0.00  0.00    -0.202 F 
ENDROOT
BRANCH   2  10
ATOM     10  C   UNL     1       1.169   3.568   0.010  0.00  0.00    +0.162 A 
ATOM     11  N   UNL     1       2.267   4.396   0.004  0.00  0.00    -0.316 N 
ATOM     12  C   UNL     1       1.769   5.668   0.015  0.00  0.00    +0.200 A 
ATOM     13  N   UNL     1       0.458   5.573   0.026  0.00  0.00    -0.122 NA
ATOM     14  N   UNL     1       0.105   4.337   0.018  0.00  0.00    -0.128 NA
ATOM     15  S   UNL     1       2.708   7.159   0.014  0.00  0.00    -0.009 SA
ATOM     16  H   UNL     1       3.200   4.133  -0.006  0.00  0.00    +0.169 HD
ENDBRANCH   2  10
TORSDOF 1
