REMARK  Name = ZINC63502948
REMARK  8 active torsions:
REMARK  status: ('A' for Active; 'I' for Inactive)
REMARK    1  A    between atoms: C_1  and  C_2
REMARK    2  A    between atoms: C_2  and  O_3
REMARK    3  A    between atoms: O_3  and  C_4
REMARK    4  A    between atoms: C_11  and  N_14
REMARK    5  A    between atoms: C_17  and  C_20
REMARK    6  A    between atoms: N_22  and  C_23
REMARK    7  A    between atoms: C_23  and  C_24
REMARK    8  A    between atoms: C_24  and  C_25
REMARK                            x       y       z     vdW  Elec       q    Type
REMARK                         _______ _______ _______ _____ _____    ______ ____
ROOT
ATOM      1  N   UNL     1       3.076  -7.113  -2.829  0.00  0.00    -0.276 NA
ATOM      2  C   UNL     1       3.917  -6.378  -1.876  0.00  0.00    +0.087 C 
ATOM      3  C   UNL     1       5.244  -7.116  -1.689  0.00  0.00    +0.028 C 
ATOM      4  C   UNL     1       4.967  -8.530  -1.170  0.00  0.00    +0.077 C 
ATOM      5  C   UNL     1       4.050  -9.257  -2.157  0.00  0.00    +0.028 C 
ATOM      6  C   UNL     1       2.757  -8.457  -2.330  0.00  0.00    +0.087 C 
ENDROOT
BRANCH   1  14
ATOM      7  C   UNL     1       0.777  -1.811  -1.336  0.00  0.00    +0.122 A 
ATOM      8  C   UNL     1       0.247  -2.679  -0.393  0.00  0.00    +0.047 A 
ATOM      9  C   UNL     1       0.349  -4.042  -0.548  0.00  0.00    +0.027 A 
ATOM     10  C   UNL     1       0.992  -4.604  -1.665  0.00  0.00    +0.043 A 
ATOM     11  C   UNL     1       1.516  -3.705  -2.599  0.00  0.00    +0.035 A 
ATOM     12  C   UNL     1       1.413  -2.340  -2.452  0.00  0.00    +0.062 A 
ATOM     13  S   UNL     1       2.248  -4.720  -3.862  0.00  0.00    -0.085 S 
ATOM     14  C   UNL     1       1.852  -6.362  -3.139  0.00  0.00    +0.207 C 
ATOM     15  N   UNL     1       1.146  -5.970  -1.911  0.00  0.00    -0.319 N 
ATOM     16  H   UNL     1       0.801  -6.635  -1.295  0.00  0.00    +0.148 HD
BRANCH   7  17
ATOM     17  O   UNL     1       0.671  -0.465  -1.174  0.00  0.00    -0.492 OA
BRANCH  17  19
ATOM     18  C   UNL     1      -0.019   1.526   0.010  0.00  0.00    +0.048 C 
ATOM     19  C   UNL     1       0.002  -0.004   0.002  0.00  0.00    +0.225 C 
ENDBRANCH  17  19
ENDBRANCH   7  17
ENDBRANCH   1  14
BRANCH   4  20
ATOM     20  C   UNL     1       6.266  -9.283  -1.041  0.00  0.00    +0.216 C 
ATOM     21  O   UNL     1       7.312  -8.743  -1.335  0.00  0.00    -0.276 OA
ATOM     22  N   UNL     1       6.266 -10.556  -0.598  0.00  0.00    -0.315 N 
ATOM     23  H   UNL     1       5.430 -10.987  -0.363  0.00  0.00    +0.149 HD
BRANCH  22  24
ATOM     24  C   UNL     1       7.529 -11.287  -0.473  0.00  0.00    +0.108 C 
BRANCH  24  25
ATOM     25  C   UNL     1       7.251 -12.700   0.046  0.00  0.00    +0.052 C 
BRANCH  25  26
ATOM     26  C   UNL     1       8.550 -13.452   0.175  0.00  0.00    -0.040 C 
ATOM     27  C   UNL     1       9.305 -13.587   1.290  0.00  0.00    -0.001 A 
ATOM     28  C   UNL     1       9.149 -13.091   2.662  0.00  0.00    +0.010 A 
ATOM     29  C   UNL     1      10.092 -13.396   3.582  0.00  0.00    +0.001 A 
ATOM     30  C   UNL     1      11.213 -14.173   3.257  0.00  0.00    +0.002 A 
ATOM     31  C   UNL     1      11.426 -14.664   2.018  0.00  0.00    +0.026 A 
ATOM     32  C   UNL     1      10.497 -14.405   0.973  0.00  0.00    +0.043 A 
ATOM     33  N   UNL     1      10.480 -14.763  -0.288  0.00  0.00    -0.380 N 
ATOM     34  C   UNL     1       9.271 -14.216  -0.913  0.00  0.00    +0.144 C 
ATOM     35  H   UNL     1      11.153 -15.302  -0.733  0.00  0.00    +0.160 HD
ENDBRANCH  25  26
ENDBRANCH  24  25
ENDBRANCH  22  24
ENDBRANCH   4  20
TORSDOF 7
