REMARK  Name = ZINC59888568
REMARK  7 active torsions:
REMARK  status: ('A' for Active; 'I' for Inactive)
REMARK    1  A    between atoms: C_1  and  N_2
REMARK    2  A    between atoms: N_2  and  C_3
REMARK    3  A    between atoms: N_2  and  C_26
REMARK    4  A    between atoms: C_3  and  C_4
REMARK    5  A    between atoms: C_9  and  C_10
REMARK    6  A    between atoms: C_10  and  N_11
REMARK    7  A    between atoms: C_12  and  C_14
REMARK                            x       y       z     vdW  Elec       q    Type
REMARK                         _______ _______ _______ _____ _____    ______ ____
ROOT
ATOM      1  C   UNL     1      -0.914  -2.022  -2.407  0.00  0.00    +0.140 C 
ENDROOT
BRANCH   1   7
ATOM      2  C   UNL     1      -2.067  -0.116  -1.267  0.00  0.00    -0.059 A 
ATOM      3  C   UNL     1      -2.918   0.973  -1.284  0.00  0.00    +0.002 A 
ATOM      4  C   UNL     1      -3.553   1.337  -2.457  0.00  0.00    +0.000 A 
ATOM      5  C   UNL     1      -3.335   0.611  -3.613  0.00  0.00    +0.000 A 
ATOM      6  C   UNL     1      -2.484  -0.477  -3.597  0.00  0.00    +0.005 A 
ATOM      7  C   UNL     1      -1.846  -0.838  -2.424  0.00  0.00    -0.029 A 
BRANCH   2   8
ATOM      8  C   UNL     1      -1.376  -0.512   0.012  0.00  0.00    -0.043 C 
BRANCH   8  10
ATOM      9  C   UNL     1      -0.018   1.465   0.010  0.00  0.00    -0.095 C 
ATOM     10  N   UNL     1       0.002  -0.004   0.002  0.00  0.00    +0.382 N 
ATOM     11  H   UNL     1       0.474  -0.330  -0.828  0.00  0.00    -0.081 HD
BRANCH  10  12
ATOM     12  C   UNL     1       0.713  -0.491   1.192  0.00  0.00    -0.069 C 
ATOM     13  C   UNL     1       2.148   0.039   1.181  0.00  0.00    -0.015 C 
ATOM     14  C   UNL     1       2.888  -0.468   2.421  0.00  0.00    -0.002 C 
ATOM     15  C   UNL     1       2.909  -1.998   2.412  0.00  0.00    -0.000 C 
ATOM     16  C   UNL     1       1.473  -2.527   2.423  0.00  0.00    -0.002 C 
ATOM     17  C   UNL     1       0.733  -2.021   1.184  0.00  0.00    -0.015 C 
ENDBRANCH  10  12
ENDBRANCH   8  10
ENDBRANCH   2   8
ENDBRANCH   1   7
BRANCH   1  18
ATOM     18  N   UNL     1      -1.613  -3.187  -1.858  0.00  0.00    -0.307 N 
ATOM     19  C   UNL     1      -0.972  -4.367  -1.746  0.00  0.00    +0.246 C 
ATOM     20  O   UNL     1       0.188  -4.465  -2.101  0.00  0.00    -0.270 OA
ATOM     21  H   UNL     1      -2.537  -3.108  -1.574  0.00  0.00    +0.149 HD
BRANCH  19  22
ATOM     22  C   UNL     1      -1.674  -5.537  -1.193  0.00  0.00    +0.051 C 
ATOM     23  C   UNL     1      -1.030  -6.743  -1.069  0.00  0.00    +0.089 C 
ATOM     24  N   UNL     1      -1.658  -7.838  -0.564  0.00  0.00    -0.288 N 
ATOM     25  C   UNL     1      -0.870  -9.075  -0.562  0.00  0.00    +0.136 C 
ATOM     26  C   UNL     1      -1.165  -9.897   0.697  0.00  0.00    +0.212 C 
ATOM     27  S   UNL     1      -2.956 -10.225   0.710  0.00  0.00    +0.073 S 
ATOM     28  O   UNL     1      -3.380 -10.605   2.011  0.00  0.00    -0.151 OA
ATOM     29  O   UNL     1      -3.329 -10.986  -0.431  0.00  0.00    -0.151 OA
ATOM     30  N   UNL     1      -3.613  -8.727   0.464  0.00  0.00    -0.118 NA
ATOM     31  C   UNL     1      -2.946  -7.752  -0.111  0.00  0.00    +0.147 C 
ATOM     32  C   UNL     1      -3.666  -6.526  -0.244  0.00  0.00    +0.046 C 
ATOM     33  C   UNL     1      -3.070  -5.432  -0.762  0.00  0.00    +0.018 C 
ENDBRANCH  19  22
ENDBRANCH   1  18
TORSDOF 6
