REMARK  Name = ZINC36304097
REMARK  16 active torsions:
REMARK  status: ('A' for Active; 'I' for Inactive)
REMARK    1  A    between atoms: C_1  and  C_2
REMARK    2  A    between atoms: C_3  and  C_22
REMARK    3  A    between atoms: C_4  and  O_13
REMARK    4  A    between atoms: N_5  and  C_7
REMARK    5  A    between atoms: O_13  and  C_14
REMARK    6  A    between atoms: C_22  and  N_23
REMARK    7  A    between atoms: N_23  and  C_24
REMARK    8  A    between atoms: N_23  and  C_37
REMARK    9  A    between atoms: C_24  and  C_25
REMARK   10  A    between atoms: C_25  and  C_27
REMARK   11  A    between atoms: C_25  and  O_36
REMARK   12  A    between atoms: C_27  and  O_28
REMARK   13  A    between atoms: O_28  and  C_29
REMARK   14  A    between atoms: C_29  and  C_30
REMARK   15  A    between atoms: C_37  and  C_38
REMARK   16  A    between atoms: C_37  and  C_39
REMARK                            x       y       z     vdW  Elec       q    Type
REMARK                         _______ _______ _______ _____ _____    ______ ____
ROOT
ATOM      1  C   UNL     1       2.498   2.913  -0.687  0.00  0.00    +0.068 C 
ATOM      2  C   UNL     1       1.641   1.758  -0.239  0.00  0.00    +0.065 A 
ATOM      3  C   UNL     1       0.958   0.872  -1.078  0.00  0.00    +0.021 A 
ATOM      4  C   UNL     1       0.303  -0.025  -0.294  0.00  0.00    +0.225 A 
ATOM      5  N   UNL     1       0.570   0.292   1.001  0.00  0.00    -0.200 N 
ATOM      6  N   UNL     1       1.415   1.409   1.002  0.00  0.00    -0.168 NA
ENDROOT
BRANCH   5   7
ATOM      7  C   UNL     1       0.091  -0.382   2.132  0.00  0.00    +0.069 A 
ATOM      8  C   UNL     1      -1.225  -0.824   2.174  0.00  0.00    +0.028 A 
ATOM      9  C   UNL     1      -1.695  -1.488   3.290  0.00  0.00    +0.002 A 
ATOM     10  C   UNL     1      -0.856  -1.714   4.365  0.00  0.00    +0.000 A 
ATOM     11  C   UNL     1       0.455  -1.276   4.327  0.00  0.00    +0.002 A 
ATOM     12  C   UNL     1       0.932  -0.616   3.212  0.00  0.00    +0.028 A 
ENDBRANCH   5   7
BRANCH   4  13
ATOM     13  O   UNL     1      -0.476  -1.050  -0.726  0.00  0.00    -0.435 OA
BRANCH  13  14
ATOM     14  C   UNL     1      -1.782  -0.789  -0.996  0.00  0.00    +0.166 A 
ATOM     15  C   UNL     1      -2.300   0.476  -0.765  0.00  0.00    +0.052 A 
ATOM     16  C   UNL     1      -3.628   0.741  -1.040  0.00  0.00    +0.042 A 
ATOM     17  C   UNL     1      -4.443  -0.258  -1.546  0.00  0.00    +0.126 A 
ATOM     18  C   UNL     1      -3.930  -1.522  -1.778  0.00  0.00    +0.080 A 
ATOM     19  C   UNL     1      -2.599  -1.789  -1.509  0.00  0.00    +0.168 A 
ATOM     20  F   UNL     1      -2.096  -3.021  -1.740  0.00  0.00    -0.202 F 
ATOM     21  F   UNL     1      -5.742   0.003  -1.814  0.00  0.00    -0.205 F 
ENDBRANCH  13  14
ENDBRANCH   4  13
BRANCH   3  22
ATOM     22  C   UNL     1       0.949   0.907  -2.585  0.00  0.00    -0.035 C 
BRANCH  22  23
ATOM     23  N   UNL     1       2.313   0.696  -3.087  0.00  0.00    +0.386 N 
ATOM     24  H   UNL     1       2.947   1.320  -2.611  0.00  0.00    -0.081 HD
BRANCH  23  25
ATOM     25  C   UNL     1       2.717  -0.695  -2.841  0.00  0.00    -0.074 C 
ATOM     26  C   UNL     1       2.867  -0.922  -1.335  0.00  0.00    -0.014 C 
ATOM     27  C   UNL     1       1.651  -1.641  -3.396  0.00  0.00    -0.014 C 
ENDBRANCH  23  25
BRANCH  23  28
ATOM     28  C   UNL     1       2.350   0.968  -4.531  0.00  0.00    -0.044 C 
BRANCH  28  29
ATOM     29  C   UNL     1       3.801   0.941  -5.017  0.00  0.00    +0.124 C 
BRANCH  29  30
ATOM     30  O   UNL     1       4.307  -0.392  -4.933  0.00  0.00    -0.391 OA
ATOM     31  H   UNL     1       3.868  -1.018  -5.525  0.00  0.00    +0.210 HD
ENDBRANCH  29  30
BRANCH  29  32
ATOM     32  C   UNL     1       3.860   1.418  -6.470  0.00  0.00    +0.189 C 
BRANCH  32  33
ATOM     33  O   UNL     1       5.224   1.504  -6.887  0.00  0.00    -0.373 OA
BRANCH  33  34
ATOM     34  C   UNL     1       5.392   1.943  -8.237  0.00  0.00    +0.195 C 
BRANCH  34  35
ATOM     35  C   UNL     1       6.861   1.997  -8.568  0.00  0.00    -0.022 A 
ATOM     36  C   UNL     1       7.579   3.156  -8.340  0.00  0.00    +0.006 A 
ATOM     37  C   UNL     1       8.927   3.205  -8.644  0.00  0.00    +0.000 A 
ATOM     38  C   UNL     1       9.556   2.095  -9.176  0.00  0.00    +0.000 A 
ATOM     39  C   UNL     1       8.839   0.936  -9.403  0.00  0.00    +0.000 A 
ATOM     40  C   UNL     1       7.492   0.885  -9.095  0.00  0.00    +0.006 A 
ENDBRANCH  34  35
ENDBRANCH  33  34
ENDBRANCH  32  33
ENDBRANCH  29  32
ENDBRANCH  28  29
ENDBRANCH  23  28
ENDBRANCH  22  23
ENDBRANCH   3  22
TORSDOF 13
