REMARK  Name = ZINC05044929
REMARK  7 active torsions:
REMARK  status: ('A' for Active; 'I' for Inactive)
REMARK    1  A    between atoms: C_1  and  C_2
REMARK    2  A    between atoms: C_2  and  C_3
REMARK    3  A    between atoms: C_2  and  C_4
REMARK    4  A    between atoms: C_2  and  C_5
REMARK    5  A    between atoms: C_12  and  N_24
REMARK    6  A    between atoms: C_13  and  C_22
REMARK    7  A    between atoms: C_14  and  C_16
REMARK                            x       y       z     vdW  Elec       q    Type
REMARK                         _______ _______ _______ _____ _____    ______ ____
ROOT
ATOM      1  C   UNL     1       0.902  -0.376  -1.958  0.00  0.00    +0.049 A 
ATOM      2  C   UNL     1       1.100  -1.703  -1.933  0.00  0.00    +0.050 A 
ATOM      3  C   UNL     1       1.958  -2.039  -3.003  0.00  0.00    +0.245 A 
ATOM      4  N   UNL     1       2.255  -0.944  -3.640  0.00  0.00    -0.135 NA
ATOM      5  N   UNL     1       1.598   0.122  -3.006  0.00  0.00    -0.277 N 
ATOM      6  H   UNL     1       1.638   1.054  -3.271  0.00  0.00    +0.189 HD
ATOM      7  O   UNL     1       2.348  -3.321  -3.240  0.00  0.00    -0.421 OA
ATOM      8  C   UNL     1       2.117  -4.228  -2.270  0.00  0.00    +0.201 C 
ATOM      9  C   UNL     1       1.309  -4.025  -1.209  0.00  0.00    +0.098 C 
ATOM     10  C   UNL     1       0.556  -2.739  -0.982  0.00  0.00    +0.101 C 
ENDROOT
BRANCH  10  11
ATOM     11  C   UNL     1      -0.911  -2.955  -1.251  0.00  0.00    -0.032 A 
ATOM     12  C   UNL     1      -1.376  -3.142  -2.544  0.00  0.00    +0.024 A 
ATOM     13  C   UNL     1      -2.728  -3.338  -2.752  0.00  0.00    +0.111 A 
ATOM     14  N   UNL     1      -3.572  -3.348  -1.738  0.00  0.00    -0.263 NA
ATOM     15  C   UNL     1      -3.165  -3.174  -0.496  0.00  0.00    +0.111 A 
ATOM     16  C   UNL     1      -1.827  -2.978  -0.210  0.00  0.00    +0.024 A 
ENDBRANCH  10  11
BRANCH   1  18
ATOM     17  C   UNL     1       0.219   1.909  -1.280  0.00  0.00    +0.017 C 
ATOM     18  C   UNL     1       0.053   0.415  -0.997  0.00  0.00    +0.004 C 
ATOM     19  C   UNL     1       0.494   0.116   0.438  0.00  0.00    +0.017 C 
ATOM     20  C   UNL     1      -1.415   0.022  -1.171  0.00  0.00    +0.017 C 
ENDBRANCH   1  18
BRANCH   8  21
ATOM     21  N   UNL     1       2.746  -5.444  -2.371  0.00  0.00    -0.328 N 
ATOM     22  H   UNL     1       3.334  -5.625  -3.121  0.00  0.00    +0.145 HD
ATOM     23  H   UNL     1       2.604  -6.122  -1.692  0.00  0.00    +0.145 HD
ENDBRANCH   8  21
BRANCH   9  24
ATOM     24  C   UNL     1       1.161  -5.081  -0.252  0.00  0.00    +0.101 C 
ATOM     25  N   UNL     1       1.043  -5.918   0.506  0.00  0.00    -0.191 NA
ENDBRANCH   9  24
TORSDOF 4
