REMARK  Name = ZINC67459736
REMARK  10 active torsions:
REMARK  status: ('A' for Active; 'I' for Inactive)
REMARK    1  A    between atoms: C_1  and  C_2
REMARK    2  A    between atoms: C_2  and  N_3
REMARK    3  A    between atoms: N_3  and  C_4
REMARK    4  A    between atoms: C_4  and  C_5
REMARK    5  A    between atoms: C_9  and  C_12
REMARK    6  A    between atoms: C_12  and  N_13
REMARK    7  A    between atoms: N_16  and  C_17
REMARK    8  A    between atoms: C_17  and  C_18
REMARK    9  A    between atoms: C_18  and  C_20
REMARK   10  A    between atoms: C_18  and  O_30
REMARK                            x       y       z     vdW  Elec       q    Type
REMARK                         _______ _______ _______ _____ _____    ______ ____
ROOT
ATOM      1  N   UNL     1      -4.766  -0.339   5.272  0.00  0.00    -0.295 N 
ATOM      2  C   UNL     1      -5.508  -0.361   6.397  0.00  0.00    +0.300 C 
ATOM      3  O   UNL     1      -5.575  -1.377   7.061  0.00  0.00    -0.253 OA
ATOM      4  N   UNL     1      -6.175   0.744   6.786  0.00  0.00    -0.297 N 
ATOM      5  H   UNL     1      -4.712   0.472   4.742  0.00  0.00    +0.151 HD
ATOM      6  H   UNL     1      -6.121   1.555   6.256  0.00  0.00    +0.150 HD
ENDROOT
BRANCH   1   7
ATOM      7  C   UNL     1      -4.041  -1.540   4.849  0.00  0.00    +0.142 C 
BRANCH   7  12
ATOM      8  N   UNL     1      -1.372  -0.511   0.012  0.00  0.00    -0.317 N 
ATOM      9  C   UNL     1      -2.013  -0.758   1.221  0.00  0.00    +0.099 A 
ATOM     10  C   UNL     1      -1.345  -0.516   2.417  0.00  0.00    +0.042 A 
ATOM     11  C   UNL     1      -1.994  -0.766   3.613  0.00  0.00    +0.010 A 
ATOM     12  C   UNL     1      -3.295  -1.252   3.571  0.00  0.00    -0.014 A 
ATOM     13  C   UNL     1      -3.897  -1.469   2.349  0.00  0.00    +0.089 A 
ATOM     14  N   UNL     1      -3.255  -1.216   1.224  0.00  0.00    -0.349 N 
ATOM     15  H   UNL     1      -3.703  -1.374   0.378  0.00  0.00    +0.167 HD
BRANCH   8  17
ATOM     16  C   UNL     1      -0.019   1.526   0.010  0.00  0.00    +0.024 C 
ATOM     17  C   UNL     1       0.002  -0.004   0.002  0.00  0.00    +0.103 C 
ENDBRANCH   8  17
BRANCH   8  18
ATOM     18  C   UNL     1      -2.072  -0.758  -1.251  0.00  0.00    +0.103 C 
ATOM     19  C   UNL     1      -1.816  -2.197  -1.703  0.00  0.00    +0.024 C 
ENDBRANCH   8  18
ENDBRANCH   7  12
ENDBRANCH   1   7
BRANCH   4  20
ATOM     20  C   UNL     1      -6.981   0.720   8.008  0.00  0.00    +0.141 C 
BRANCH  20  21
ATOM     21  C   UNL     1      -7.628   2.091   8.220  0.00  0.00    +0.162 C 
BRANCH  21  22
ATOM     22  C   UNL     1      -8.357   2.104   9.539  0.00  0.00    -0.017 A 
ATOM     23  C   UNL     1      -9.620   1.522   9.631  0.00  0.00    +0.007 A 
ATOM     24  C   UNL     1     -10.305   1.517  10.807  0.00  0.00    +0.009 A 
ATOM     25  C   UNL     1      -9.733   2.107  11.947  0.00  0.00    -0.018 A 
ATOM     26  C   UNL     1     -10.410   2.122  13.178  0.00  0.00    +0.008 A 
ATOM     27  C   UNL     1      -9.825   2.702  14.262  0.00  0.00    +0.001 A 
ATOM     28  C   UNL     1      -8.562   3.284  14.169  0.00  0.00    +0.001 A 
ATOM     29  C   UNL     1      -7.877   3.289  12.993  0.00  0.00    +0.008 A 
ATOM     30  C   UNL     1      -8.449   2.699  11.853  0.00  0.00    -0.018 A 
ATOM     31  C   UNL     1      -7.770   2.680  10.623  0.00  0.00    +0.014 A 
ENDBRANCH  21  22
BRANCH  21  32
ATOM     32  O   UNL     1      -8.553   2.349   7.162  0.00  0.00    -0.386 OA
ATOM     33  H   UNL     1      -9.269   1.702   7.098  0.00  0.00    +0.210 HD
ENDBRANCH  21  32
ENDBRANCH  20  21
ENDBRANCH   4  20
TORSDOF 8
