REMARK  Name = ZINC08836385
REMARK  12 active torsions:
REMARK  status: ('A' for Active; 'I' for Inactive)
REMARK    1  A    between atoms: C_1  and  C_2
REMARK    2  A    between atoms: C_2  and  C_3
REMARK    3  A    between atoms: C_2  and  C_4
REMARK    4  A    between atoms: C_2  and  C_5
REMARK    5  A    between atoms: C_8  and  C_11
REMARK    6  A    between atoms: C_14  and  C_15
REMARK    7  A    between atoms: C_14  and  O_24
REMARK    8  A    between atoms: N_29  and  C_30
REMARK    9  A    between atoms: C_30  and  C_31
REMARK   10  A    between atoms: C_31  and  N_63
REMARK   11  A    between atoms: C_32  and  N_63
REMARK   12  A    between atoms: C_33  and  N_63
REMARK                            x       y       z     vdW  Elec       q    Type
REMARK                         _______ _______ _______ _____ _____    ______ ____
ROOT
ATOM      1  C   UNL     1       3.503   2.209   0.017  0.00  0.00    +0.144 C 
ATOM      2  C   UNL     1       4.018   2.704   1.349  0.00  0.00    +0.074 C 
ATOM      3  C   UNL     1       4.158   1.967   2.513  0.00  0.00    +0.168 C 
ATOM      4  C   UNL     1       4.325   4.059   1.169  0.00  0.00    +0.249 C 
ATOM      5  O   UNL     1       4.770   4.810   2.019  0.00  0.00    -0.282 OA
ATOM      6  C   UNL     1       4.016   4.423  -0.239  0.00  0.00    +0.288 C 
ATOM      7  O   UNL     1       4.169   5.527  -0.722  0.00  0.00    -0.266 OA
ATOM      8  N   UNL     1       3.542   3.353  -0.899  0.00  0.00    -0.285 N 
ENDROOT
BRANCH   3   9
ATOM      9  C   UNL     1       4.546   2.631   3.757  0.00  0.00    +0.171 A 
ATOM     10  C   UNL     1       5.517   2.200   4.610  0.00  0.00    +0.061 A 
ATOM     11  C   UNL     1       5.569   3.131   5.678  0.00  0.00    +0.021 A 
ATOM     12  C   UNL     1       6.347   3.232   6.837  0.00  0.00    +0.011 A 
ATOM     13  C   UNL     1       6.149   4.274   7.697  0.00  0.00    +0.001 A 
ATOM     14  C   UNL     1       5.180   5.232   7.432  0.00  0.00    +0.004 A 
ATOM     15  C   UNL     1       4.402   5.151   6.296  0.00  0.00    +0.047 A 
ATOM     16  C   UNL     1       4.586   4.101   5.405  0.00  0.00    +0.136 A 
ATOM     17  O   UNL     1       3.994   3.765   4.242  0.00  0.00    -0.452 OA
ENDBRANCH   3   9
BRANCH   1  21
ATOM     18  C   UNL     1      -0.509   0.803   0.433  0.00  0.00    -0.042 A 
ATOM     19  C   UNL     1      -0.254   2.161   0.383  0.00  0.00    +0.004 A 
ATOM     20  C   UNL     1       1.044   2.616   0.249  0.00  0.00    +0.006 A 
ATOM     21  C   UNL     1       2.087   1.713   0.164  0.00  0.00    -0.022 A 
ATOM     22  C   UNL     1       1.833   0.355   0.215  0.00  0.00    +0.006 A 
ATOM     23  C   UNL     1       0.534  -0.100   0.350  0.00  0.00    +0.004 A 
BRANCH  18  25
ATOM     24  C   UNL     1      -2.762   0.797  -0.603  0.00  0.00    +0.015 C 
ATOM     25  C   UNL     1      -1.925   0.307   0.580  0.00  0.00    -0.013 C 
ATOM     26  C   UNL     1      -1.929  -1.223   0.609  0.00  0.00    +0.015 C 
ATOM     27  C   UNL     1      -2.521   0.843   1.883  0.00  0.00    +0.015 C 
ENDBRANCH  18  25
ENDBRANCH   1  21
BRANCH   3  28
ATOM     28  O   UNL     1       3.936   0.634   2.500  0.00  0.00    -0.503 OA
ATOM     29  H   UNL     1       4.080   0.263   3.417  0.00  0.00    +0.292 HD
ENDBRANCH   3  28
BRANCH   8  30
ATOM     30  C   UNL     1       3.131   3.332  -2.305  0.00  0.00    +0.090 C 
BRANCH  30  31
ATOM     31  C   UNL     1       1.645   3.681  -2.407  0.00  0.00    -0.060 C 
BRANCH  31  34
ATOM     32  C   UNL     1      -0.228   3.756  -3.940  0.00  0.00    -0.097 C 
ATOM     33  C   UNL     1       1.895   4.730  -4.575  0.00  0.00    -0.097 C 
ATOM     34  N   UNL     1       1.241   3.635  -3.828  0.00  0.00    +0.377 N 
ATOM     35  H   UNL     1       1.533   2.736  -4.229  0.00  0.00    -0.083 HD
ENDBRANCH  31  34
ENDBRANCH  30  31
ENDBRANCH   8  30
TORSDOF 7
