REMARK  Name = ZINC20355225
REMARK  6 active torsions:
REMARK  status: ('A' for Active; 'I' for Inactive)
REMARK    1  A    between atoms: C_1  and  C_2
REMARK    2  A    between atoms: C_6  and  C_8
REMARK    3  A    between atoms: C_8  and  N_9
REMARK    4  A    between atoms: C_18  and  C_19
REMARK    5  A    between atoms: C_22  and  C_25
REMARK    6  A    between atoms: C_30  and  N_33
REMARK                            x       y       z     vdW  Elec       q    Type
REMARK                         _______ _______ _______ _____ _____    ______ ____
ROOT
ATOM      1  C   UNL     1      -1.087   5.681  -1.888  0.00  0.00    -0.021 A 
ATOM      2  C   UNL     1      -2.329   5.187  -1.471  0.00  0.00    +0.009 A 
ATOM      3  C   UNL     1      -3.478   5.671  -2.029  0.00  0.00    +0.013 A 
ATOM      4  C   UNL     1      -3.414   6.651  -3.024  0.00  0.00    +0.037 A 
ATOM      5  C   UNL     1      -2.175   7.141  -3.445  0.00  0.00    +0.013 A 
ATOM      6  C   UNL     1      -1.024   6.662  -2.885  0.00  0.00    +0.009 A 
ENDROOT
BRANCH   1  16
ATOM      7  N   UNL     1      -1.148   4.240   1.976  0.00  0.00    -0.257 N 
ATOM      8  C   UNL     1      -0.227   3.205   2.180  0.00  0.00    +0.079 A 
ATOM      9  C   UNL     1      -0.505   2.199   3.094  0.00  0.00    +0.027 A 
ATOM     10  C   UNL     1       0.402   1.175   3.289  0.00  0.00    +0.002 A 
ATOM     11  C   UNL     1       1.587   1.149   2.576  0.00  0.00    +0.004 A 
ATOM     12  C   UNL     1       1.871   2.147   1.664  0.00  0.00    +0.048 A 
ATOM     13  C   UNL     1       0.968   3.178   1.463  0.00  0.00    +0.150 A 
ATOM     14  O   UNL     1       1.245   4.166   0.567  0.00  0.00    -0.449 OA
ATOM     15  C   UNL     1       0.164   4.795   0.016  0.00  0.00    +0.191 C 
ATOM     16  C   UNL     1       0.150   5.165  -1.285  0.00  0.00    +0.059 C 
ATOM     17  C   UNL     1      -0.990   5.055   0.906  0.00  0.00    +0.287 C 
ATOM     18  O   UNL     1      -1.768   5.963   0.683  0.00  0.00    -0.266 OA
BRANCH   7  19
ATOM     19  C   UNL     1      -2.261   4.442   2.907  0.00  0.00    +0.149 C 
BRANCH  19  25
ATOM     20  C   UNL     1      -0.251   5.203   7.426  0.00  0.00    +0.044 C 
ATOM     21  C   UNL     1      -0.873   5.747   6.166  0.00  0.00    -0.050 A 
ATOM     22  C   UNL     1      -1.053   7.110   6.017  0.00  0.00    +0.003 A 
ATOM     23  C   UNL     1      -1.625   7.609   4.861  0.00  0.00    +0.001 A 
ATOM     24  C   UNL     1      -2.016   6.745   3.855  0.00  0.00    +0.005 A 
ATOM     25  C   UNL     1      -1.835   5.383   4.004  0.00  0.00    -0.029 A 
ATOM     26  C   UNL     1      -1.268   4.884   5.162  0.00  0.00    +0.008 A 
ENDBRANCH  19  25
ENDBRANCH   7  19
ENDBRANCH   1  16
BRANCH   4  27
ATOM     27  C   UNL     1      -4.657   7.170  -3.630  0.00  0.00    +0.247 C 
ATOM     28  O   UNL     1      -5.613   6.434  -3.781  0.00  0.00    -0.270 OA
ATOM     29  N   UNL     1      -4.732   8.459  -4.016  0.00  0.00    -0.298 N 
ATOM     30  C   UNL     1      -3.632   9.391  -3.730  0.00  0.00    +0.106 C 
ATOM     31  C   UNL     1      -4.192  10.612  -3.003  0.00  0.00    +0.004 C 
ATOM     32  C   UNL     1      -5.330  11.217  -3.828  0.00  0.00    -0.066 C 
ATOM     33  C   UNL     1      -6.453  10.188  -3.982  0.00  0.00    +0.004 C 
ATOM     34  C   UNL     1      -5.917   8.961  -4.725  0.00  0.00    +0.106 C 
BRANCH  32  35
ATOM     35  N   UNL     1      -5.849  12.409  -3.145  0.00  0.00    +0.382 N 
ATOM     36  C   UNL     1      -7.009  12.961  -3.857  0.00  0.00    -0.078 C 
ATOM     37  C   UNL     1      -7.610  14.109  -3.043  0.00  0.00    -0.019 C 
ATOM     38  C   UNL     1      -6.549  15.194  -2.839  0.00  0.00    -0.004 C 
ATOM     39  C   UNL     1      -5.333  14.582  -2.139  0.00  0.00    -0.019 C 
ATOM     40  C   UNL     1      -4.798  13.421  -2.979  0.00  0.00    -0.078 C 
ATOM     41  H   UNL     1      -6.185  12.107  -2.142  0.00  0.00    -0.081 HD
ENDBRANCH  32  35
ENDBRANCH   4  27
TORSDOF 5
