REMARK  Name = ZINC08798404
REMARK  12 active torsions:
REMARK  status: ('A' for Active; 'I' for Inactive)
REMARK    1  A    between atoms: C_1  and  C_2
REMARK    2  A    between atoms: C_2  and  N_3
REMARK    3  A    between atoms: C_5  and  O_34
REMARK    4  A    between atoms: C_8  and  C_33
REMARK    5  A    between atoms: N_12  and  C_13
REMARK    6  A    between atoms: C_13  and  C_15
REMARK    7  A    between atoms: C_18  and  S_21
REMARK    8  A    between atoms: S_21  and  N_24
REMARK    9  A    between atoms: N_24  and  C_25
REMARK   10  A    between atoms: N_24  and  C_26
REMARK   11  A    between atoms: C_26  and  C_27
REMARK   12  A    between atoms: O_34  and  C_35
REMARK                            x       y       z     vdW  Elec       q    Type
REMARK                         _______ _______ _______ _____ _____    ______ ____
ROOT
ATOM      1  C   UNL     1      -0.684   0.381   0.518  0.00  0.00    +0.039 A 
ATOM      2  C   UNL     1      -1.790   1.228   0.591  0.00  0.00    +0.015 A 
ATOM      3  C   UNL     1      -1.606   2.596   0.624  0.00  0.00    +0.029 A 
ATOM      4  C   UNL     1      -0.330   3.126   0.576  0.00  0.00    +0.106 A 
ATOM      5  C   UNL     1       0.770   2.291   0.500  0.00  0.00    +0.029 A 
ATOM      6  C   UNL     1       0.600   0.922   0.470  0.00  0.00    +0.015 A 
ENDROOT
BRANCH   4   7
ATOM      7  S   UNL     1      -0.104   4.873   0.612  0.00  0.00    +0.061 S 
ATOM      8  O   UNL     1      -1.202   5.410   1.337  0.00  0.00    -0.153 OA
ATOM      9  O   UNL     1       1.246   5.101   0.994  0.00  0.00    -0.153 OA
BRANCH   7  10
ATOM     10  N   UNL     1      -0.253   5.418  -0.945  0.00  0.00    -0.175 NA
ATOM     11  C   UNL     1       0.940   5.598  -1.776  0.00  0.00    +0.132 C 
BRANCH  10  12
ATOM     12  C   UNL     1      -1.578   5.721  -1.491  0.00  0.00    +0.144 C 
BRANCH  12  13
ATOM     13  C   UNL     1      -1.826   7.206  -1.414  0.00  0.00    -0.032 A 
ATOM     14  C   UNL     1      -2.344   7.761  -0.259  0.00  0.00    +0.005 A 
ATOM     15  C   UNL     1      -2.567   9.123  -0.186  0.00  0.00    +0.000 A 
ATOM     16  C   UNL     1      -2.281   9.929  -1.272  0.00  0.00    +0.000 A 
ATOM     17  C   UNL     1      -1.768   9.373  -2.429  0.00  0.00    +0.000 A 
ATOM     18  C   UNL     1      -1.540   8.012  -2.500  0.00  0.00    +0.005 A 
ENDBRANCH  12  13
ENDBRANCH  10  12
ENDBRANCH   7  10
ENDBRANCH   4   7
BRANCH   1  19
ATOM     19  C   UNL     1      -0.874  -1.088   0.487  0.00  0.00    +0.269 C 
ATOM     20  O   UNL     1       0.093  -1.826   0.419  0.00  0.00    -0.268 OA
BRANCH  19  30
ATOM     21  N   UNL     1      -3.441  -3.622   0.542  0.00  0.00    -0.318 N 
ATOM     22  C   UNL     1      -3.420  -5.005   0.501  0.00  0.00    +0.100 A 
ATOM     23  C   UNL     1      -4.509  -5.898   0.530  0.00  0.00    +0.145 A 
ATOM     24  C   UNL     1      -4.303  -7.260   0.480  0.00  0.00    +0.048 A 
ATOM     25  C   UNL     1      -3.025  -7.790   0.402  0.00  0.00    +0.008 A 
ATOM     26  C   UNL     1      -1.939  -6.934   0.373  0.00  0.00    -0.034 A 
ATOM     27  C   UNL     1      -2.142  -5.573   0.422  0.00  0.00    +0.045 A 
ATOM     28  S   UNL     1      -1.068  -4.160   0.403  0.00  0.00    -0.052 S 
ATOM     29  C   UNL     1      -2.277  -2.921   0.505  0.00  0.00    +0.167 A 
ATOM     30  N   UNL     1      -2.107  -1.603   0.533  0.00  0.00    -0.152 NA
ATOM     31  C   UNL     1      -0.540  -7.488   0.287  0.00  0.00    +0.045 C 
BRANCH  21  33
ATOM     32  C   UNL     1      -4.555  -1.664   1.494  0.00  0.00    +0.027 C 
ATOM     33  C   UNL     1      -4.720  -2.912   0.626  0.00  0.00    +0.121 C 
ENDBRANCH  21  33
BRANCH  23  34
ATOM     34  O   UNL     1      -5.776  -5.411   0.607  0.00  0.00    -0.493 OA
ATOM     35  C   UNL     1      -6.838  -6.367   0.632  0.00  0.00    +0.277 C 
ENDBRANCH  23  34
ENDBRANCH  19  30
ENDBRANCH   1  19
TORSDOF 8
