REMARK  Name = ZINC39466335
REMARK  9 active torsions:
REMARK  status: ('A' for Active; 'I' for Inactive)
REMARK    1  A    between atoms: C_1  and  C_2
REMARK    2  A    between atoms: C_2  and  O_3
REMARK    3  A    between atoms: O_3  and  C_4
REMARK    4  A    between atoms: C_9  and  C_10
REMARK    5  A    between atoms: C_15  and  O_16
REMARK    6  A    between atoms: P_21  and  S_27
REMARK    7  A    between atoms: S_27  and  C_30
REMARK    8  A    between atoms: C_30  and  C_31
REMARK    9  A    between atoms: C_30  and  C_32
REMARK                            x       y       z     vdW  Elec       q    Type
REMARK                         _______ _______ _______ _____ _____    ______ ____
ROOT
ATOM      1  C   UNL     1      -1.498  -1.848   0.006  0.00  0.00    +0.129 A 
ATOM      2  C   UNL     1      -0.393  -2.680  -0.003  0.00  0.00    +0.050 A 
ATOM      3  C   UNL     1      -0.551  -4.058  -0.009  0.00  0.00    -0.038 A 
ATOM      4  C   UNL     1      -1.814  -4.612  -0.005  0.00  0.00    -0.023 A 
ATOM      5  C   UNL     1      -2.929  -3.788   0.004  0.00  0.00    +0.017 A 
ATOM      6  C   UNL     1      -2.781  -2.405   0.016  0.00  0.00    +0.028 A 
ATOM      7  C   UNL     1      -2.034  -6.102  -0.009  0.00  0.00    +0.129 C 
ATOM      8  C   UNL     1      -3.169  -6.436  -0.982  0.00  0.00    +0.195 C 
ATOM      9  O   UNL     1      -3.452  -7.847  -0.894  0.00  0.00    -0.298 OA
ATOM     10  P   UNL     1      -2.210  -8.891  -1.001  0.00  0.00    +0.419 P 
ATOM     11  O   UNL     1      -2.565 -10.176  -0.358  0.00  0.00    -0.246 OA
ATOM     12  N   UNL     1      -0.957  -8.175  -0.194  0.00  0.00    -0.161 NA
ATOM     13  N   UNL     1      -0.814  -6.816  -0.386  0.00  0.00    -0.224 NA
ATOM     14  C   UNL     1       0.336  -6.337   0.396  0.00  0.00    +0.108 C 
ATOM     15  C   UNL     1       0.686  -4.920  -0.021  0.00  0.00    +0.052 C 
ATOM     16  H   UNL     1      -0.356  -8.686   0.371  0.00  0.00    +0.152 HD
ENDROOT
BRANCH   6  17
ATOM     17  C   UNL     1      -3.975  -1.527   0.032  0.00  0.00    +0.027 A 
ATOM     18  C   UNL     1      -4.827  -1.525   1.135  0.00  0.00    +0.012 A 
ATOM     19  C   UNL     1      -5.938  -0.706   1.145  0.00  0.00    +0.001 A 
ATOM     20  C   UNL     1      -6.209   0.115   0.064  0.00  0.00    +0.004 A 
ATOM     21  C   UNL     1      -5.371   0.120  -1.035  0.00  0.00    +0.046 A 
ATOM     22  C   UNL     1      -4.249  -0.693  -1.056  0.00  0.00    +0.125 A 
BRANCH  22  23
ATOM     23  O   UNL     1      -3.422  -0.685  -2.134  0.00  0.00    -0.506 OA
ATOM     24  H   UNL     1      -3.660  -1.325  -2.818  0.00  0.00    +0.292 HD
ENDBRANCH  22  23
ENDBRANCH   6  17
BRANCH  10  25
ATOM     25  S   UNL     1      -1.692  -9.208  -3.033  0.00  0.00    +0.058 S 
ATOM     26  O   UNL     1      -1.425  -7.910  -3.545  0.00  0.00    -0.164 OA
ATOM     27  O   UNL     1      -0.673 -10.197  -2.997  0.00  0.00    -0.164 OA
BRANCH  25  28
ATOM     28  C   UNL     1      -3.192  -9.884  -3.796  0.00  0.00    +0.136 C 
ATOM     29  C   UNL     1      -4.336  -8.878  -3.653  0.00  0.00    +0.032 C 
ATOM     30  C   UNL     1      -2.933 -10.155  -5.279  0.00  0.00    +0.032 C 
ENDBRANCH  25  28
ENDBRANCH  10  25
BRANCH   1  31
ATOM     31  O   UNL     1      -1.339  -0.499   0.012  0.00  0.00    -0.492 OA
BRANCH  31  33
ATOM     32  C   UNL     1      -0.019   1.526   0.010  0.00  0.00    +0.048 C 
ATOM     33  C   UNL     1       0.002  -0.004   0.002  0.00  0.00    +0.226 C 
ENDBRANCH  31  33
ENDBRANCH   1  31
TORSDOF 6
