REMARK  Name = ZINC09850497
REMARK  11 active torsions:
REMARK  status: ('A' for Active; 'I' for Inactive)
REMARK    1  A    between atoms: C_1  and  C_2
REMARK    2  A    between atoms: C_7  and  O_8
REMARK    3  A    between atoms: O_8  and  C_9
REMARK    4  A    between atoms: C_9  and  C_10
REMARK    5  A    between atoms: C_13  and  S_16
REMARK    6  A    between atoms: N_14  and  C_15
REMARK    7  A    between atoms: S_16  and  C_17
REMARK    8  A    between atoms: C_17  and  C_18
REMARK    9  A    between atoms: C_25  and  C_26
REMARK   10  A    between atoms: C_25  and  C_32
REMARK   11  A    between atoms: C_25  and  N_71
REMARK                            x       y       z     vdW  Elec       q    Type
REMARK                         _______ _______ _______ _____ _____    ______ ____
ROOT
ATOM      1  C   UNL     1       0.243   3.876   2.164  0.00  0.00    +0.226 C 
ATOM      2  O   UNL     1       0.330   5.081   2.064  0.00  0.00    -0.275 OA
ATOM      3  N   UNL     1      -0.331   3.158   1.179  0.00  0.00    -0.304 N 
ATOM      4  C   UNL     1      -0.446   1.695   1.280  0.00  0.00    +0.089 C 
ATOM      5  C   UNL     1       0.115   1.073  -0.003  0.00  0.00    -0.058 C 
ATOM      6  C   UNL     1      -0.279   3.110  -1.258  0.00  0.00    -0.058 C 
ATOM      7  C   UNL     1      -0.857   3.816  -0.027  0.00  0.00    +0.089 C 
ATOM      8  N   UNL     1      -0.584   1.666  -1.164  0.00  0.00    +0.389 N 
ATOM      9  H   UNL     1      -1.596   1.546  -1.039  0.00  0.00    -0.080 HD
ENDROOT
BRANCH   1  10
ATOM     10  C   UNL     1       0.775   3.181   3.391  0.00  0.00    +0.173 C 
BRANCH  10  11
ATOM     11  S   UNL     1       1.479   4.407   4.521  0.00  0.00    -0.077 S 
BRANCH  11  15
ATOM     12  C   UNL     1       2.848   2.583   7.686  0.00  0.00    +0.172 A 
ATOM     13  N   UNL     1       2.380   1.597   6.973  0.00  0.00    -0.130 NA
ATOM     14  N   UNL     1       1.879   2.045   5.877  0.00  0.00    -0.122 NA
ATOM     15  C   UNL     1       2.010   3.350   5.827  0.00  0.00    +0.192 A 
ATOM     16  N   UNL     1       2.629   3.734   6.982  0.00  0.00    -0.306 N 
ATOM     17  C   UNL     1       2.986   5.098   7.383  0.00  0.00    +0.153 C 
BRANCH  12  18
ATOM     18  C   UNL     1       3.509   2.473   9.036  0.00  0.00    +0.305 C 
BRANCH  18  19
ATOM     19  O   UNL     1       2.518   2.576  10.061  0.00  0.00    -0.484 OA
BRANCH  19  26
ATOM     20  C   UNL     1       0.576   2.776  12.102  0.00  0.00    +0.047 C 
ATOM     21  C   UNL     1       2.042   2.588  12.392  0.00  0.00    -0.009 A 
ATOM     22  C   UNL     1       2.484   2.507  13.698  0.00  0.00    +0.007 A 
ATOM     23  C   UNL     1       3.829   2.334  13.965  0.00  0.00    +0.000 A 
ATOM     24  C   UNL     1       4.736   2.241  12.925  0.00  0.00    +0.004 A 
ATOM     25  C   UNL     1       4.299   2.317  11.617  0.00  0.00    +0.046 A 
ATOM     26  C   UNL     1       2.950   2.496  11.347  0.00  0.00    +0.124 A 
ENDBRANCH  19  26
ENDBRANCH  18  19
ENDBRANCH  12  18
ENDBRANCH  11  15
ENDBRANCH  10  11
ENDBRANCH   1  10
BRANCH   8  27
ATOM     27  C   UNL     1      -0.170   0.981  -2.406  0.00  0.00    -0.007 C 
BRANCH  27  28
ATOM     28  C   UNL     1      -0.497  -0.485  -2.288  0.00  0.00    -0.057 A 
ATOM     29  C   UNL     1      -1.708  -0.882  -1.751  0.00  0.00    +0.002 A 
ATOM     30  C   UNL     1      -2.010  -2.227  -1.648  0.00  0.00    +0.000 A 
ATOM     31  C   UNL     1      -1.098  -3.175  -2.071  0.00  0.00    +0.000 A 
ATOM     32  C   UNL     1       0.115  -2.779  -2.603  0.00  0.00    +0.000 A 
ATOM     33  C   UNL     1       0.415  -1.434  -2.711  0.00  0.00    +0.002 A 
ENDBRANCH  27  28
BRANCH  27  34
ATOM     34  C   UNL     1      -0.927   1.573  -3.566  0.00  0.00    -0.057 A 
ATOM     35  C   UNL     1      -2.280   1.832  -3.448  0.00  0.00    +0.002 A 
ATOM     36  C   UNL     1      -2.974   2.380  -4.510  0.00  0.00    +0.000 A 
ATOM     37  C   UNL     1      -2.318   2.660  -5.694  0.00  0.00    +0.000 A 
ATOM     38  C   UNL     1      -0.966   2.396  -5.814  0.00  0.00    +0.000 A 
ATOM     39  C   UNL     1      -0.271   1.853  -4.750  0.00  0.00    +0.002 A 
ENDBRANCH  27  34
ENDBRANCH   8  27
TORSDOF 9
