REMARK  Name = ZINC35112554
REMARK  7 active torsions:
REMARK  status: ('A' for Active; 'I' for Inactive)
REMARK    1  A    between atoms: C_4  and  C_7
REMARK    2  A    between atoms: C_7  and  N_8
REMARK    3  A    between atoms: C_9  and  C_11
REMARK    4  A    between atoms: C_11  and  N_12
REMARK    5  A    between atoms: N_14  and  C_34
REMARK    6  A    between atoms: C_23  and  C_25
REMARK    7  A    between atoms: C_28  and  N_31
REMARK                            x       y       z     vdW  Elec       q    Type
REMARK                         _______ _______ _______ _____ _____    ______ ____
ROOT
ATOM      1  N   UNL     1       7.044  -2.557   3.055  0.00  0.00    -0.275 N 
ATOM      2  C   UNL     1       7.199  -4.009   3.127  0.00  0.00    +0.217 C 
ATOM      3  N   UNL     1       8.620  -4.325   2.936  0.00  0.00    -0.300 N 
ATOM      4  C   UNL     1       9.297  -3.035   2.751  0.00  0.00    +0.115 C 
ATOM      5  C   UNL     1       8.233  -1.972   2.834  0.00  0.00    +0.241 C 
ATOM      6  O   UNL     1       8.420  -0.779   2.721  0.00  0.00    -0.273 OA
ATOM      7  C   UNL     1      10.337  -2.830   3.852  0.00  0.00    +0.054 C 
ATOM      8  C   UNL     1      11.379  -3.951   3.781  0.00  0.00    +0.110 C 
ATOM      9  N   UNL     1      11.932  -3.997   2.421  0.00  0.00    -0.297 N 
ATOM     10  C   UNL     1      11.006  -4.115   1.285  0.00  0.00    +0.110 C 
ATOM     11  C   UNL     1       9.968  -2.992   1.378  0.00  0.00    +0.054 C 
ATOM     12  C   UNL     1      13.263  -3.933   2.218  0.00  0.00    +0.247 C 
ATOM     13  O   UNL     1      13.703  -3.874   1.086  0.00  0.00    -0.270 OA
ENDROOT
BRANCH  12  14
ATOM     14  C   UNL     1      14.187  -3.935   3.371  0.00  0.00    +0.037 A 
ATOM     15  C   UNL     1      13.889  -4.690   4.507  0.00  0.00    +0.015 A 
ATOM     16  C   UNL     1      14.757  -4.688   5.580  0.00  0.00    +0.033 A 
ATOM     17  C   UNL     1      15.919  -3.939   5.532  0.00  0.00    +0.126 A 
ATOM     18  C   UNL     1      16.220  -3.188   4.410  0.00  0.00    +0.033 A 
ATOM     19  C   UNL     1      15.364  -3.187   3.327  0.00  0.00    +0.015 A 
BRANCH  17  20
ATOM     20  N   UNL     1      16.845  -3.941   6.687  0.00  0.00    +0.056 N 
ATOM     21  O   UNL     1      16.584  -4.596   7.669  0.00  0.00    -0.126 OA
ATOM     22  O   UNL     1      17.861  -3.288   6.648  0.00  0.00    -0.126 OA
ENDBRANCH  17  20
ENDBRANCH  12  14
BRANCH   3  23
ATOM     23  C   UNL     1       9.208  -5.592   2.932  0.00  0.00    +0.032 A 
ATOM     24  C   UNL     1       8.415  -6.728   3.037  0.00  0.00    +0.023 A 
ATOM     25  C   UNL     1       9.000  -7.979   3.032  0.00  0.00    +0.002 A 
ATOM     26  C   UNL     1      10.373  -8.102   2.922  0.00  0.00    +0.000 A 
ATOM     27  C   UNL     1      11.165  -6.973   2.817  0.00  0.00    +0.002 A 
ATOM     28  C   UNL     1      10.587  -5.719   2.816  0.00  0.00    +0.023 A 
ENDBRANCH   3  23
BRANCH   1  29
ATOM     29  C   UNL     1       5.773  -1.843   3.198  0.00  0.00    +0.205 C 
BRANCH  29  31
ATOM     30  N   UNL     1       3.938  -1.067   1.732  0.00  0.00    -0.310 N 
ATOM     31  C   UNL     1       5.124  -1.696   1.845  0.00  0.00    +0.231 C 
ATOM     32  O   UNL     1       5.670  -2.144   0.859  0.00  0.00    -0.274 OA
ATOM     33  H   UNL     1       3.501  -0.708   2.520  0.00  0.00    +0.149 HD
BRANCH  30  34
ATOM     34  C   UNL     1       3.308  -0.924   0.417  0.00  0.00    +0.139 C 
BRANCH  34  38
ATOM     35  C   UNL     1      -0.399   1.159   0.831  0.00  0.00    +0.000 A 
ATOM     36  C   UNL     1       0.769   1.864   0.606  0.00  0.00    +0.000 A 
ATOM     37  C   UNL     1       1.968   1.190   0.472  0.00  0.00    +0.005 A 
ATOM     38  C   UNL     1       2.000  -0.189   0.564  0.00  0.00    -0.030 A 
ATOM     39  C   UNL     1       0.833  -0.894   0.789  0.00  0.00    +0.005 A 
ATOM     40  C   UNL     1      -0.367  -0.220   0.922  0.00  0.00    +0.000 A 
ENDBRANCH  34  38
ENDBRANCH  30  34
ENDBRANCH  29  31
ENDBRANCH   1  29
TORSDOF 7
