REMARK  Name = ZINC35058855
REMARK  11 active torsions:
REMARK  status: ('A' for Active; 'I' for Inactive)
REMARK    1  A    between atoms: C_1  and  C_2
REMARK    2  A    between atoms: C_2  and  C_3
REMARK    3  A    between atoms: C_3  and  C_5
REMARK    4  A    between atoms: C_3  and  N_25
REMARK    5  A    between atoms: N_15  and  C_16
REMARK    6  A    between atoms: C_19  and  O_22
REMARK    7  A    between atoms: O_22  and  C_23
REMARK    8  A    between atoms: C_23  and  C_24
REMARK    9  A    between atoms: C_29  and  C_32
REMARK   10  A    between atoms: C_33  and  C_35
REMARK   11  A    between atoms: C_35  and  C_36
REMARK                            x       y       z     vdW  Elec       q    Type
REMARK                         _______ _______ _______ _____ _____    ______ ____
ROOT
ATOM      1  C   UNL     1      -1.359  -2.075  -0.198  0.00  0.00    +0.135 A 
ATOM      2  N   UNL     1      -0.140  -2.501  -0.334  0.00  0.00    -0.232 NA
ATOM      3  C   UNL     1       0.211  -3.770  -0.008  0.00  0.00    +0.078 A 
ATOM      4  C   UNL     1       1.522  -4.228  -0.154  0.00  0.00    +0.028 A 
ATOM      5  C   UNL     1       1.834  -5.524   0.190  0.00  0.00    +0.002 A 
ATOM      6  C   UNL     1       0.860  -6.384   0.681  0.00  0.00    +0.001 A 
ATOM      7  C   UNL     1      -0.440  -5.955   0.835  0.00  0.00    +0.015 A 
ATOM      8  C   UNL     1      -0.777  -4.647   0.492  0.00  0.00    +0.065 A 
ATOM      9  C   UNL     1      -2.147  -4.134   0.635  0.00  0.00    +0.266 A 
ATOM     10  O   UNL     1      -3.045  -4.838   1.060  0.00  0.00    -0.267 OA
ATOM     11  N   UNL     1      -2.371  -2.847   0.281  0.00  0.00    -0.263 N 
ENDROOT
BRANCH  11  12
ATOM     12  C   UNL     1      -3.659  -2.307   0.402  0.00  0.00    +0.051 A 
ATOM     13  C   UNL     1      -4.683  -2.761  -0.419  0.00  0.00    +0.030 A 
ATOM     14  C   UNL     1      -5.951  -2.229  -0.298  0.00  0.00    +0.047 A 
ATOM     15  C   UNL     1      -6.202  -1.240   0.642  0.00  0.00    +0.121 A 
ATOM     16  C   UNL     1      -5.179  -0.786   1.462  0.00  0.00    +0.047 A 
ATOM     17  C   UNL     1      -3.912  -1.322   1.348  0.00  0.00    +0.030 A 
BRANCH  15  18
ATOM     18  O   UNL     1      -7.451  -0.716   0.760  0.00  0.00    -0.492 OA
BRANCH  18  19
ATOM     19  C   UNL     1      -7.638   0.298   1.749  0.00  0.00    +0.225 C 
ATOM     20  C   UNL     1      -9.096   0.763   1.733  0.00  0.00    +0.048 C 
ENDBRANCH  18  19
ENDBRANCH  15  18
ENDBRANCH  11  12
BRANCH   1  21
ATOM     21  C   UNL     1      -1.666  -0.651  -0.583  0.00  0.00    +0.123 C 
BRANCH  21  22
ATOM     22  N   UNL     1      -2.387  -0.634  -1.862  0.00  0.00    -0.289 NA
ATOM     23  C   UNL     1      -1.541  -1.143  -2.950  0.00  0.00    +0.104 C 
ATOM     24  C   UNL     1      -2.380  -1.280  -4.225  0.00  0.00    +0.123 C 
ATOM     25  N   UNL     1      -3.032   0.011  -4.495  0.00  0.00    -0.296 N 
ATOM     26  C   UNL     1      -3.787   0.651  -3.407  0.00  0.00    +0.087 C 
ATOM     27  C   UNL     1      -2.892   0.712  -2.165  0.00  0.00    +0.107 C 
ATOM     28  C   UNL     1      -4.190   2.066  -3.825  0.00  0.00    +0.029 C 
ATOM     29  C   UNL     1      -2.942   0.591  -5.709  0.00  0.00    +0.221 C 
ATOM     30  O   UNL     1      -3.407   1.696  -5.889  0.00  0.00    -0.275 OA
BRANCH  29  31
ATOM     31  C   UNL     1      -2.262  -0.135  -6.841  0.00  0.00    +0.138 C 
BRANCH  31  32
ATOM     32  C   UNL     1      -2.295   0.724  -8.079  0.00  0.00    -0.001 A 
ATOM     33  C   UNL     1      -1.391   1.639  -8.508  0.00  0.00    +0.011 A 
ATOM     34  C   UNL     1      -1.631   2.317  -9.688  0.00  0.00    +0.008 A 
ATOM     35  C   UNL     1      -2.763   2.046 -10.383  0.00  0.00    +0.045 A 
ATOM     36  S   UNL     1      -3.530   0.795  -9.366  0.00  0.00    -0.101 S 
ENDBRANCH  31  32
ENDBRANCH  29  31
ENDBRANCH  21  22
BRANCH  21  38
ATOM     37  C   UNL     1       0.333   0.219   0.639  0.00  0.00    +0.006 C 
ATOM     38  C   UNL     1      -0.359   0.133  -0.723  0.00  0.00    +0.023 C 
ENDBRANCH  21  38
ENDBRANCH   1  21
TORSDOF 8
