REMARK  Name = ZINC20071461
REMARK  6 active torsions:
REMARK  status: ('A' for Active; 'I' for Inactive)
REMARK    1  A    between atoms: C_6  and  C_7
REMARK    2  A    between atoms: C_8  and  C_12
REMARK    3  A    between atoms: C_19  and  C_21
REMARK    4  A    between atoms: C_21  and  O_22
REMARK    5  A    between atoms: C_24  and  N_28
REMARK    6  A    between atoms: C_25  and  C_26
REMARK                            x       y       z     vdW  Elec       q    Type
REMARK                         _______ _______ _______ _____ _____    ______ ____
ROOT
ATOM      1  C   UNL     1      -0.673   4.180   1.526  0.00  0.00    +0.136 C 
ATOM      2  C   UNL     1      -1.215   4.255   2.930  0.00  0.00    +0.143 A 
ATOM      3  C   UNL     1      -1.840   5.371   3.366  0.00  0.00    +0.119 A 
ATOM      4  C   UNL     1      -2.364   5.403   4.736  0.00  0.00    +0.207 A 
ATOM      5  O   UNL     1      -2.940   6.386   5.175  0.00  0.00    -0.286 OA
ATOM      6  C   UNL     1      -2.171   4.241   5.529  0.00  0.00    +0.096 A 
ATOM      7  C   UNL     1      -1.527   3.192   4.983  0.00  0.00    +0.134 A 
ATOM      8  O   UNL     1      -1.066   3.194   3.737  0.00  0.00    -0.459 OA
ATOM      9  N   UNL     1      -1.992   6.487   2.536  0.00  0.00    -0.298 N 
ATOM     10  C   UNL     1      -1.203   6.621   1.421  0.00  0.00    +0.084 C 
ATOM     11  C   UNL     1      -0.551   5.542   0.912  0.00  0.00    +0.078 C 
ATOM     12  H   UNL     1      -2.742   7.254   2.778  0.00  0.00    +0.153 HD
ENDROOT
BRANCH   1  14
ATOM     13  C   UNL     1      -1.311   2.116   0.020  0.00  0.00    +0.117 A 
ATOM     14  C   UNL     1      -1.599   3.340   0.685  0.00  0.00    +0.035 A 
ATOM     15  C   UNL     1      -2.896   3.577   0.384  0.00  0.00    +0.235 A 
ATOM     16  O   UNL     1      -3.305   2.557  -0.383  0.00  0.00    -0.362 OA
ATOM     17  N   UNL     1      -2.420   1.756  -0.577  0.00  0.00    -0.078 NA
BRANCH  13  23
ATOM     18  C   UNL     1       1.183   2.099   0.002  0.00  0.00    +0.013 A 
ATOM     19  C   UNL     1       2.383   1.419  -0.013  0.00  0.00    +0.039 A 
ATOM     20  C   UNL     1       2.398   0.034  -0.021  0.00  0.00    +0.123 A 
ATOM     21  C   UNL     1       1.207  -0.675  -0.013  0.00  0.00    +0.039 A 
ATOM     22  C   UNL     1       0.002  -0.004   0.002  0.00  0.00    +0.013 A 
ATOM     23  C   UNL     1      -0.017   1.389   0.010  0.00  0.00    +0.004 A 
ATOM     24  F   UNL     1       3.575  -0.628  -0.037  0.00  0.00    -0.205 F 
ENDBRANCH  13  23
ENDBRANCH   1  14
BRANCH  10  25
ATOM     25  N   UNL     1      -1.071   7.849   0.818  0.00  0.00    -0.405 NA
ATOM     26  H   UNL     1      -0.405   7.760  -0.054  0.00  0.00    +0.122 HD
ATOM     27  H   UNL     1      -0.643   8.565   1.534  0.00  0.00    +0.122 HD
ATOM     28  H   UNL     1      -2.059   8.204   0.489  0.00  0.00    +0.122 HD
ENDBRANCH  10  25
BRANCH  11  29
ATOM     29  C   UNL     1       0.276   5.711  -0.245  0.00  0.00    +0.099 C 
ATOM     30  N   UNL     1       0.932   5.845  -1.163  0.00  0.00    -0.191 NA
ENDBRANCH  11  29
BRANCH   7  31
ATOM     31  C   UNL     1      -1.320   1.959   5.825  0.00  0.00    +0.230 C 
BRANCH  31  32
ATOM     32  O   UNL     1      -2.430   1.075   5.655  0.00  0.00    -0.387 OA
ATOM     33  H   UNL     1      -2.456   0.116   6.194  0.00  0.00    +0.210 HD
ENDBRANCH  31  32
ENDBRANCH   7  31
TORSDOF 6
