REMARK  Name = ZINC04066587
REMARK  11 active torsions:
REMARK  status: ('A' for Active; 'I' for Inactive)
REMARK    1  A    between atoms: C_1  and  C_2
REMARK    2  A    between atoms: C_2  and  O_4
REMARK    3  A    between atoms: O_4  and  C_5
REMARK    4  A    between atoms: C_5  and  C_6
REMARK    5  A    between atoms: CA_7  and  C_30
REMARK    6  A    between atoms: CA_11  and  N_15
REMARK    7  A    between atoms: C_16  and  C_18
REMARK    8  A    between atoms: C_18  and  C_22
REMARK    9  A    between atoms: N_19  and  O_20
REMARK   10  A    between atoms: O_20  and  C_21
REMARK   11  A    between atoms: C_24  and  N_27
REMARK                            x       y       z     vdW  Elec       q    Type
REMARK                         _______ _______ _______ _____ _____    ______ ____
ROOT
ATOM      1  C   UNL     1      -8.700  -1.635  -0.301  0.00  0.00    +0.006 C 
ATOM      2  CA  UNL     1      -8.456  -0.541  -1.006  0.00  0.00    +0.130 C 
ATOM      3  N   UNL     1      -7.548   0.419  -0.530  0.00  0.00    -0.249 N 
ATOM      4  C   UNL     1      -7.095   0.591   0.887  0.00  0.00    +0.169 C 
ATOM      5  CA  UNL     1      -5.946   1.401   0.296  0.00  0.00    +0.191 C 
ATOM      6  C   UNL     1      -6.681   1.321  -1.032  0.00  0.00    +0.244 C 
ATOM      7  O   UNL     1      -6.542   1.856  -2.111  0.00  0.00    -0.273 OA
ATOM      8  S   UNL     1      -6.655  -1.085   1.460  0.00  0.00    -0.131 S 
ATOM      9  C   UNL     1      -8.161  -2.016   1.040  0.00  0.00    +0.107 C 
ENDROOT
BRANCH   5  10
ATOM     10  N   UNL     1      -4.663   0.693   0.301  0.00  0.00    -0.296 N 
ATOM     11  C   UNL     1      -3.510   1.389   0.267  0.00  0.00    +0.267 C 
ATOM     12  O   UNL     1      -3.533   2.603   0.231  0.00  0.00    -0.268 OA
ATOM     13  H   UNL     1      -4.645  -0.276   0.329  0.00  0.00    +0.150 HD
BRANCH  11  14
ATOM     14  C   UNL     1      -2.212   0.672   0.272  0.00  0.00    +0.172 C 
ATOM     15  N   UNL     1      -2.187  -0.629   0.310  0.00  0.00    -0.080 NA
BRANCH  14  16
ATOM     16  C   UNL     1      -0.946   1.435   0.234  0.00  0.00    +0.017 A 
ATOM     17  C   UNL     1      -0.850   2.749   0.813  0.00  0.00    +0.041 A 
ATOM     18  C   UNL     1       0.344   3.390   0.748  0.00  0.00    +0.063 A 
ATOM     19  S   UNL     1       1.373   2.218  -0.116  0.00  0.00    -0.082 S 
ATOM     20  C   UNL     1       0.174   0.920  -0.357  0.00  0.00    +0.057 A 
BRANCH  18  21
ATOM     21  N   UNL     1       0.683   4.653   1.235  0.00  0.00    -0.353 N 
ATOM     22  H   UNL     1       0.017   5.191   1.691  0.00  0.00    +0.143 HD
ATOM     23  H   UNL     1       1.584   4.992   1.118  0.00  0.00    +0.143 HD
ENDBRANCH  18  21
ENDBRANCH  14  16
BRANCH  15  24
ATOM     24  O   UNL     1      -0.955  -1.310   0.470  0.00  0.00    -0.396 OA
ATOM     25  C   UNL     1      -1.076  -2.733   0.494  0.00  0.00    +0.313 C 
ENDBRANCH  15  24
ENDBRANCH  11  14
ENDBRANCH   5  10
BRANCH   2  26
ATOM     26  C   UNL     1      -9.139  -0.331  -2.295  0.00  0.00    +0.401 C 
ATOM     27  O   UNL     1      -8.994   0.715  -2.896  0.00  0.00    -0.239 OA
ATOM     28  OXT UNL     1      -9.924  -1.299  -2.808  0.00  0.00    -0.239 OA
ENDBRANCH   2  26
BRANCH   1  29
ATOM     29  C   UNL     1      -9.643  -2.626  -0.933  0.00  0.00    +0.266 C 
BRANCH  29  30
ATOM     30  O   UNL     1      -9.835  -3.752  -0.037  0.00  0.00    -0.460 OA
BRANCH  30  32
ATOM     31  C   UNL     1     -10.910  -5.928   0.417  0.00  0.00    +0.136 C 
ATOM     32  C   UNL     1     -10.572  -4.776  -0.494  0.00  0.00    +0.304 C 
ATOM     33  O   UNL     1     -10.965  -4.775  -1.637  0.00  0.00    -0.251 OA
ENDBRANCH  30  32
ENDBRANCH  29  30
ENDBRANCH   1  29
TORSDOF 9
