REMARK  Name = ZINC22473288
REMARK  8 active torsions:
REMARK  status: ('A' for Active; 'I' for Inactive)
REMARK    1  A    between atoms: C_4  and  C_7
REMARK    2  A    between atoms: C_7  and  N_8
REMARK    3  A    between atoms: N_8  and  C_9
REMARK    4  A    between atoms: C_9  and  C_10
REMARK    5  A    between atoms: C_10  and  C_11
REMARK    6  A    between atoms: C_11  and  N_12
REMARK    7  A    between atoms: C_15  and  O_16
REMARK    8  A    between atoms: C_24  and  C_26
REMARK                            x       y       z     vdW  Elec       q    Type
REMARK                         _______ _______ _______ _____ _____    ______ ____
ROOT
ATOM      1  N   UNL     1       3.805  -2.234  -0.124  0.00  0.00    -0.293 N 
ATOM      2  C   UNL     1       3.938  -0.962  -0.547  0.00  0.00    +0.247 C 
ATOM      3  O   UNL     1       2.955  -0.259  -0.681  0.00  0.00    -0.270 OA
ENDROOT
BRANCH   2   4
ATOM      4  C   UNL     1       5.278  -0.422  -0.850  0.00  0.00    +0.041 A 
ATOM      5  C   UNL     1       6.400  -0.914  -0.178  0.00  0.00    +0.017 A 
ATOM      6  C   UNL     1       7.649  -0.407  -0.461  0.00  0.00    +0.050 A 
ATOM      7  C   UNL     1       7.799   0.595  -1.413  0.00  0.00    +0.162 A 
ATOM      8  C   UNL     1       6.685   1.089  -2.088  0.00  0.00    +0.163 A 
ATOM      9  C   UNL     1       5.428   0.584  -1.807  0.00  0.00    +0.062 A 
ATOM     10  O   UNL     1       6.816   2.064  -3.029  0.00  0.00    -0.485 OA
ATOM     11  C   UNL     1       8.040   2.807  -3.018  0.00  0.00    +0.270 C 
ATOM     12  C   UNL     1       9.204   1.815  -2.892  0.00  0.00    +0.270 C 
ATOM     13  O   UNL     1       9.040   1.087  -1.670  0.00  0.00    -0.485 OA
ENDBRANCH   2   4
BRANCH   1  14
ATOM     14  C   UNL     1       2.470  -2.815   0.042  0.00  0.00    +0.143 C 
BRANCH  14  18
ATOM     15  C   UNL     1       1.087  -4.301  -3.716  0.00  0.00    +0.000 A 
ATOM     16  C   UNL     1       1.878  -5.096  -2.908  0.00  0.00    +0.000 A 
ATOM     17  C   UNL     1       2.326  -4.615  -1.692  0.00  0.00    +0.005 A 
ATOM     18  C   UNL     1       1.982  -3.339  -1.284  0.00  0.00    -0.030 A 
ATOM     19  C   UNL     1       1.186  -2.547  -2.090  0.00  0.00    +0.005 A 
ATOM     20  C   UNL     1       0.743  -3.026  -3.309  0.00  0.00    +0.000 A 
ENDBRANCH  14  18
ENDBRANCH   1  14
BRANCH   1  21
ATOM     21  C   UNL     1       4.994  -3.037   0.171  0.00  0.00    +0.110 C 
BRANCH  21  22
ATOM     22  C   UNL     1       5.260  -3.019   1.678  0.00  0.00    +0.040 C 
BRANCH  22  23
ATOM     23  C   UNL     1       6.503  -3.858   1.986  0.00  0.00    +0.114 C 
BRANCH  23  24
ATOM     24  N   UNL     1       6.758  -3.841   3.429  0.00  0.00    -0.384 N 
ATOM     25  C   UNL     1       7.831  -4.531   3.946  0.00  0.00    +0.053 A 
ATOM     26  C   UNL     1       8.675  -5.240   3.131  0.00  0.00    +0.113 A 
ATOM     27  C   UNL     1       9.759  -5.932   3.687  0.00  0.00    +0.286 A 
ATOM     28  O   UNL     1      10.003  -5.925   5.007  0.00  0.00    -0.425 OA
ATOM     29  C   UNL     1       9.215  -5.249   5.872  0.00  0.00    +0.141 A 
ATOM     30  C   UNL     1       8.112  -4.525   5.392  0.00  0.00    +0.041 A 
ATOM     31  C   UNL     1       7.300  -3.819   6.280  0.00  0.00    +0.013 A 
ATOM     32  C   UNL     1       7.590  -3.833   7.627  0.00  0.00    +0.001 A 
ATOM     33  C   UNL     1       8.683  -4.544   8.100  0.00  0.00    +0.004 A 
ATOM     34  C   UNL     1       9.487  -5.255   7.233  0.00  0.00    +0.047 A 
ATOM     35  H   UNL     1       6.091  -3.277   4.098  0.00  0.00    +0.160 HD
BRANCH  27  36
ATOM     36  O   UNL     1      10.501  -6.559   2.951  0.00  0.00    -0.480 OA
ATOM     37  H   UNL     1      11.357  -7.108   3.371  0.00  0.00    +0.295 HD
ENDBRANCH  27  36
ENDBRANCH  23  24
ENDBRANCH  22  23
ENDBRANCH  21  22
ENDBRANCH   1  21
TORSDOF 8
