REMARK  Name = ZINC58159134
REMARK  10 active torsions:
REMARK  status: ('A' for Active; 'I' for Inactive)
REMARK    1  A    between atoms: C_1  and  C_2
REMARK    2  A    between atoms: C_5  and  C_7
REMARK    3  A    between atoms: C_10  and  C_13
REMARK    4  A    between atoms: C_18  and  C_20
REMARK    5  A    between atoms: C_20  and  N_21
REMARK    6  A    between atoms: N_21  and  C_22
REMARK    7  A    between atoms: C_22  and  C_24
REMARK    8  A    between atoms: C_22  and  C_25
REMARK    9  A    between atoms: C_28  and  S_31
REMARK   10  A    between atoms: S_31  and  N_34
REMARK                            x       y       z     vdW  Elec       q    Type
REMARK                         _______ _______ _______ _____ _____    ______ ____
ROOT
ATOM      1  C   UNL     1       1.659  -3.217  -0.024  0.00  0.00    +0.104 C 
ATOM      2  N   UNL     1       1.299  -4.457  -0.035  0.00  0.00    -0.178 NA
ATOM      3  N   UNL     1       2.363  -5.357  -0.044  0.00  0.00    -0.183 N 
ATOM      4  C   UNL     1       3.626  -4.601  -0.039  0.00  0.00    +0.144 C 
ATOM      5  C   UNL     1       3.168  -3.130  -0.031  0.00  0.00    +0.090 C 
ATOM      6  C   UNL     1       2.253  -6.700  -0.055  0.00  0.00    +0.249 C 
ATOM      7  O   UNL     1       3.251  -7.390  -0.062  0.00  0.00    -0.272 OA
ENDROOT
BRANCH   1  12
ATOM      8  C   UNL     1      -0.018   1.503   0.010  0.00  0.00    +0.086 C 
ATOM      9  C   UNL     1       0.002  -0.004   0.002  0.00  0.00    +0.103 A 
ATOM     10  C   UNL     1      -1.084  -0.804   0.003  0.00  0.00    +0.045 A 
ATOM     11  C   UNL     1      -0.619  -2.132  -0.007  0.00  0.00    +0.051 A 
ATOM     12  C   UNL     1       0.745  -2.071  -0.013  0.00  0.00    +0.151 A 
ATOM     13  O   UNL     1       1.104  -0.771  -0.013  0.00  0.00    -0.459 OA
ENDBRANCH   1  12
BRANCH   4  14
ATOM     14  C   UNL     1       4.430  -4.921   1.195  0.00  0.00    +0.013 A 
ATOM     15  C   UNL     1       5.771  -5.071   1.325  0.00  0.00    +0.013 A 
ATOM     16  C   UNL     1       6.295  -5.367   2.569  0.00  0.00    +0.008 A 
ATOM     17  C   UNL     1       5.452  -5.498   3.623  0.00  0.00    +0.045 A 
ATOM     18  S   UNL     1       3.864  -5.194   2.866  0.00  0.00    -0.100 S 
ENDBRANCH   4  14
BRANCH   6  19
ATOM     19  C   UNL     1       0.891  -7.345  -0.059  0.00  0.00    +0.180 C 
BRANCH  19  20
ATOM     20  N   UNL     1       1.041  -8.806  -0.071  0.00  0.00    -0.302 NA
ATOM     21  H   UNL     1       1.601  -9.105  -0.856  0.00  0.00    +0.123 HD
BRANCH  20  22
ATOM     22  C   UNL     1      -0.269  -9.470  -0.075  0.00  0.00    +0.081 C 
ATOM     23  C   UNL     1      -0.779  -9.600   1.361  0.00  0.00    +0.029 C 
BRANCH  22  24
ATOM     24  C   UNL     1      -0.136 -10.841  -0.687  0.00  0.00    -0.031 A 
ATOM     25  C   UNL     1       0.966 -11.623  -0.398  0.00  0.00    +0.007 A 
ATOM     26  C   UNL     1       1.088 -12.880  -0.959  0.00  0.00    +0.029 A 
ATOM     27  C   UNL     1       0.107 -13.355  -1.810  0.00  0.00    +0.105 A 
ATOM     28  C   UNL     1      -0.995 -12.573  -2.099  0.00  0.00    +0.029 A 
ATOM     29  C   UNL     1      -1.119 -11.318  -1.534  0.00  0.00    +0.007 A 
BRANCH  27  30
ATOM     30  S   UNL     1       0.263 -14.957  -2.526  0.00  0.00    +0.056 S 
ATOM     31  O   UNL     1      -0.517 -14.949  -3.714  0.00  0.00    -0.153 OA
ATOM     32  O   UNL     1       1.650 -15.268  -2.529  0.00  0.00    -0.153 OA
BRANCH  30  33
ATOM     33  N   UNL     1      -0.460 -16.029  -1.492  0.00  0.00    -0.204 NA
ATOM     34  H   UNL     1      -0.871 -16.836  -1.839  0.00  0.00    +0.144 HD
ATOM     35  H   UNL     1      -0.472 -15.850  -0.539  0.00  0.00    +0.144 HD
ENDBRANCH  30  33
ENDBRANCH  27  30
ENDBRANCH  22  24
ENDBRANCH  20  22
ENDBRANCH  19  20
ENDBRANCH   6  19
TORSDOF 8
