REMARK  Name = ZINC14544114
REMARK  5 active torsions:
REMARK  status: ('A' for Active; 'I' for Inactive)
REMARK    1  A    between atoms: C_1  and  O_2
REMARK    2  A    between atoms: O_2  and  C_3
REMARK    3  A    between atoms: C_12  and  C_13
REMARK    4  A    between atoms: C_24  and  S_29
REMARK    5  A    between atoms: S_29  and  N_32
REMARK                            x       y       z     vdW  Elec       q    Type
REMARK                         _______ _______ _______ _____ _____    ______ ____
ROOT
ATOM      1  C   UNL     1       2.367  -1.942  -6.523  0.00  0.00    +0.109 C 
ATOM      2  C   UNL     1       1.234  -2.970  -6.457  0.00  0.00    +0.029 C 
ATOM      3  C   UNL     1       0.287  -2.693  -7.661  0.00  0.00    +0.033 C 
ATOM      4  C   UNL     1      -0.595  -1.565  -7.162  0.00  0.00    -0.030 C 
ATOM      5  C   UNL     1      -0.600  -1.532  -5.852  0.00  0.00    -0.023 C 
ATOM      6  C   UNL     1       0.279  -2.627  -5.298  0.00  0.00    +0.049 C 
ATOM      7  C   UNL     1       0.996  -2.180  -4.063  0.00  0.00    -0.018 A 
ATOM      8  C   UNL     1       0.283  -2.089  -2.875  0.00  0.00    +0.034 A 
ATOM      9  C   UNL     1       0.905  -1.677  -1.714  0.00  0.00    +0.109 A 
ATOM     10  C   UNL     1       2.252  -1.362  -1.718  0.00  0.00    +0.030 A 
ATOM     11  C   UNL     1       2.972  -1.454  -2.893  0.00  0.00    +0.025 A 
ATOM     12  C   UNL     1       2.345  -1.862  -4.063  0.00  0.00    +0.031 A 
ATOM     13  N   UNL     1       3.088  -1.947  -5.245  0.00  0.00    -0.336 N 
ATOM     14  H   UNL     1       4.055  -2.009  -5.221  0.00  0.00    +0.147 HD
ENDROOT
BRANCH   1  24
ATOM     15  C   UNL     1       1.496   0.251  -5.723  0.00  0.00    +0.126 A 
ATOM     16  C   UNL     1       0.964   1.526  -5.938  0.00  0.00    +0.046 A 
ATOM     17  C   UNL     1       0.727   1.981  -7.197  0.00  0.00    +0.012 A 
ATOM     18  C   UNL     1       1.020   1.162  -8.301  0.00  0.00    -0.017 A 
ATOM     19  C   UNL     1       0.787   1.601  -9.616  0.00  0.00    +0.008 A 
ATOM     20  C   UNL     1       1.083   0.781 -10.662  0.00  0.00    +0.001 A 
ATOM     21  C   UNL     1       1.614  -0.490 -10.450  0.00  0.00    +0.001 A 
ATOM     22  C   UNL     1       1.853  -0.948  -9.191  0.00  0.00    +0.009 A 
ATOM     23  C   UNL     1       1.565  -0.128  -8.086  0.00  0.00    -0.009 A 
ATOM     24  C   UNL     1       1.793  -0.571  -6.772  0.00  0.00    +0.022 A 
BRANCH  15  26
ATOM     25  C   UNL     1       1.426   0.742  -3.397  0.00  0.00    +0.277 C 
ATOM     26  O   UNL     1       1.721  -0.176  -4.452  0.00  0.00    -0.495 OA
ENDBRANCH  15  26
ENDBRANCH   1  24
BRANCH   9  27
ATOM     27  S   UNL     1      -0.018  -1.561  -0.218  0.00  0.00    +0.075 S 
ATOM     28  O   UNL     1       0.915  -1.683   0.846  0.00  0.00    -0.150 OA
ATOM     29  O   UNL     1      -1.131  -2.433  -0.359  0.00  0.00    -0.150 OA
BRANCH  27  30
ATOM     30  N   UNL     1      -0.629  -0.023  -0.139  0.00  0.00    -0.202 N 
ATOM     31  C   UNL     1       0.049   1.118   0.483  0.00  0.00    +0.136 C 
ATOM     32  C   UNL     1      -0.912   2.305   0.301  0.00  0.00    +0.058 C 
ATOM     33  C   UNL     1      -2.099   1.723  -0.434  0.00  0.00    -0.023 A 
ATOM     34  C   UNL     1      -1.864   0.375  -0.653  0.00  0.00    +0.054 A 
ATOM     35  C   UNL     1      -2.829  -0.382  -1.321  0.00  0.00    +0.025 A 
ATOM     36  C   UNL     1      -3.995   0.210  -1.759  0.00  0.00    +0.002 A 
ATOM     37  C   UNL     1      -4.222   1.554  -1.530  0.00  0.00    +0.000 A 
ATOM     38  C   UNL     1      -3.271   2.310  -0.869  0.00  0.00    +0.005 A 
ENDBRANCH  27  30
ENDBRANCH   9  27
TORSDOF 4
