REMARK  Name = ZINC08452729
REMARK  5 active torsions:
REMARK  status: ('A' for Active; 'I' for Inactive)
REMARK    1  A    between atoms: C_1  and  C_2
REMARK    2  A    between atoms: C_3  and  C_14
REMARK    3  A    between atoms: N_5  and  C_7
REMARK    4  A    between atoms: C_26  and  S_29
REMARK    5  A    between atoms: S_29  and  C_30
REMARK                            x       y       z     vdW  Elec       q    Type
REMARK                         _______ _______ _______ _____ _____    ______ ____
ROOT
ATOM      1  C   UNL     1      -3.243   1.137   1.280  0.00  0.00    +0.299 C 
ATOM      2  N   UNL     1      -2.437   1.067   0.064  0.00  0.00    -0.305 N 
ATOM      3  C   UNL     1      -1.218   1.752   0.017  0.00  0.00    +0.040 A 
ATOM      4  C   UNL     1      -0.013   1.076   0.008  0.00  0.00    +0.025 A 
ATOM      5  C   UNL     1       1.175   1.785   0.000  0.00  0.00    +0.017 A 
ATOM      6  C   UNL     1       1.164   3.170   0.005  0.00  0.00    +0.019 A 
ATOM      7  C   UNL     1      -0.034   3.860   0.012  0.00  0.00    +0.027 A 
ATOM      8  C   UNL     1      -1.234   3.159   0.017  0.00  0.00    +0.029 A 
ATOM      9  C   UNL     1      -2.536   3.857   0.008  0.00  0.00    +0.156 A 
ATOM     10  C   UNL     1      -3.546   3.463   0.915  0.00  0.00    +0.248 A 
ATOM     11  N   UNL     1      -4.708   4.091   0.885  0.00  0.00    -0.184 NA
ATOM     12  C   UNL     1      -4.892   5.076   0.010  0.00  0.00    +0.212 A 
ATOM     13  N   UNL     1      -3.929   5.435  -0.830  0.00  0.00    -0.122 NA
ATOM     14  N   UNL     1      -2.783   4.847  -0.836  0.00  0.00    -0.141 NA
ATOM     15  O   UNL     1      -3.307   2.462   1.795  0.00  0.00    -0.449 OA
ATOM     16 BR   UNL     1       2.797   4.122   0.003  0.00  0.00    -0.050 Br
ATOM     17  H   UNL     1      -2.742   0.555  -0.701  0.00  0.00    +0.150 HD
ENDROOT
BRANCH   1  20
ATOM     18  C   UNL     1      -3.452   1.516   4.417  0.00  0.00    +0.068 C 
ATOM     19  C   UNL     1      -2.730   0.399   3.708  0.00  0.00    +0.070 A 
ATOM     20  C   UNL     1      -2.638   0.233   2.322  0.00  0.00    +0.071 A 
ATOM     21  C   UNL     1      -1.905  -0.880   2.083  0.00  0.00    +0.141 A 
ATOM     22  N   UNL     1      -1.550  -1.404   3.284  0.00  0.00    -0.221 N 
ATOM     23  N   UNL     1      -2.085  -0.583   4.285  0.00  0.00    -0.170 NA
ATOM     24 CL   UNL     1      -1.492  -1.521   0.523  0.00  0.00    -0.061 Cl
BRANCH  22  25
ATOM     25  C   UNL     1      -0.784  -2.561   3.487  0.00  0.00    +0.067 A 
ATOM     26  C   UNL     1      -0.909  -3.639   2.622  0.00  0.00    +0.028 A 
ATOM     27  C   UNL     1      -0.150  -4.775   2.821  0.00  0.00    +0.002 A 
ATOM     28  C   UNL     1       0.727  -4.844   3.889  0.00  0.00    +0.000 A 
ATOM     29  C   UNL     1       0.850  -3.774   4.755  0.00  0.00    +0.002 A 
ATOM     30  C   UNL     1       0.098  -2.633   4.558  0.00  0.00    +0.028 A 
ENDBRANCH  22  25
ENDBRANCH   1  20
BRANCH  12  31
ATOM     31  S   UNL     1      -6.439   5.918  -0.035  0.00  0.00    -0.088 S 
ATOM     32  C   UNL     1      -6.114   7.103  -1.364  0.00  0.00    +0.093 C 
ENDBRANCH  12  31
TORSDOF 3
