REMARK  Name = ZINC67216401
REMARK  8 active torsions:
REMARK  status: ('A' for Active; 'I' for Inactive)
REMARK    1  A    between atoms: C_1  and  C_2
REMARK    2  A    between atoms: C_5  and  N_9
REMARK    3  A    between atoms: C_7  and  C_8
REMARK    4  A    between atoms: C_18  and  S_19
REMARK    5  A    between atoms: S_19  and  C_20
REMARK    6  A    between atoms: C_20  and  C_21
REMARK    7  A    between atoms: N_23  and  C_24
REMARK    8  A    between atoms: C_24  and  C_25
REMARK                            x       y       z     vdW  Elec       q    Type
REMARK                         _______ _______ _______ _____ _____    ______ ____
ROOT
ATOM      1  N   UNL     1       0.057  -4.171  -0.021  0.00  0.00    -0.255 N 
ATOM      2  C   UNL     1       0.168  -4.862   1.139  0.00  0.00    +0.274 A 
ATOM      3  O   UNL     1       0.254  -4.280   2.208  0.00  0.00    -0.266 OA
ATOM      4  C   UNL     1       0.181  -6.253   1.080  0.00  0.00    +0.102 A 
ATOM      5  C   UNL     1       0.083  -6.939  -0.144  0.00  0.00    +0.086 A 
ATOM      6  C   UNL     1       0.109  -8.338  -0.054  0.00  0.00    +0.036 A 
ATOM      7  C   UNL     1       0.224  -8.940   1.149  0.00  0.00    +0.048 A 
ATOM      8  S   UNL     1       0.304  -7.557   2.275  0.00  0.00    -0.090 S 
ATOM      9  N   UNL     1      -0.026  -6.162  -1.263  0.00  0.00    -0.222 NA
ATOM     10  C   UNL     1      -0.043  -4.859  -1.199  0.00  0.00    +0.177 A 
ENDROOT
BRANCH   1  15
ATOM     11  C   UNL     1      -0.016   1.503   0.013  0.00  0.00    +0.044 C 
ATOM     12  C   UNL     1       0.004  -0.004   0.003  0.00  0.00    -0.047 A 
ATOM     13  C   UNL     1      -1.181  -0.710   0.107  0.00  0.00    +0.005 A 
ATOM     14  C   UNL     1      -1.167  -2.091   0.100  0.00  0.00    +0.026 A 
ATOM     15  C   UNL     1       0.039  -2.771  -0.013  0.00  0.00    +0.052 A 
ATOM     16  C   UNL     1       1.227  -2.059  -0.118  0.00  0.00    +0.030 A 
ATOM     17  C   UNL     1       1.205  -0.678  -0.115  0.00  0.00    -0.046 A 
ATOM     18  C   UNL     1       2.493   0.095  -0.234  0.00  0.00    +0.044 C 
ENDBRANCH   1  15
BRANCH  10  19
ATOM     19  S   UNL     1      -0.193  -3.944  -2.698  0.00  0.00    -0.078 S 
BRANCH  19  20
ATOM     20  C   UNL     1      -0.295  -5.220  -3.983  0.00  0.00    +0.173 C 
BRANCH  20  21
ATOM     21  C   UNL     1      -0.429  -4.564  -5.333  0.00  0.00    +0.224 C 
ATOM     22  O   UNL     1      -0.453  -3.355  -5.420  0.00  0.00    -0.275 OA
ATOM     23  N   UNL     1      -0.521  -5.322  -6.444  0.00  0.00    -0.311 N 
ATOM     24  H   UNL     1      -0.502  -6.289  -6.374  0.00  0.00    +0.149 HD
BRANCH  23  25
ATOM     25  C   UNL     1      -0.651  -4.684  -7.756  0.00  0.00    +0.139 C 
BRANCH  25  26
ATOM     26  C   UNL     1      -0.736  -5.745  -8.824  0.00  0.00    -0.027 A 
ATOM     27  C   UNL     1       0.419  -6.219  -9.419  0.00  0.00    +0.009 A 
ATOM     28  C   UNL     1       0.346  -7.192 -10.398  0.00  0.00    +0.050 A 
ATOM     29  C   UNL     1      -0.885  -7.694 -10.786  0.00  0.00    +0.166 A 
ATOM     30  C   UNL     1      -2.048  -7.217 -10.187  0.00  0.00    +0.167 A 
ATOM     31  C   UNL     1      -1.968  -6.246  -9.202  0.00  0.00    +0.054 A 
ATOM     32  O   UNL     1      -3.119  -7.862 -10.736  0.00  0.00    -0.453 OA
ATOM     33  C   UNL     1      -2.631  -8.442 -11.961  0.00  0.00    +0.466 C 
ATOM     34  O   UNL     1      -1.227  -8.639 -11.710  0.00  0.00    -0.453 OA
ENDBRANCH  25  26
ENDBRANCH  23  25
ENDBRANCH  20  21
ENDBRANCH  19  20
ENDBRANCH  10  19
TORSDOF 6
