REMARK  Name = ZINC35786119
REMARK  9 active torsions:
REMARK  status: ('A' for Active; 'I' for Inactive)
REMARK    1  A    between atoms: C_1  and  C_2
REMARK    2  A    between atoms: C_5  and  C_8
REMARK    3  A    between atoms: C_11  and  C_30
REMARK    4  A    between atoms: C_14  and  C_16
REMARK    5  A    between atoms: C_16  and  N_17
REMARK    6  A    between atoms: C_20  and  C_23
REMARK    7  A    between atoms: C_23  and  C_24
REMARK    8  A    between atoms: C_32  and  C_37
REMARK    9  A    between atoms: C_35  and  C_36
REMARK                            x       y       z     vdW  Elec       q    Type
REMARK                         _______ _______ _______ _____ _____    ______ ____
ROOT
ATOM      1  C   UNL     1      -0.101  -3.587   0.597  0.00  0.00    +0.137 C 
ATOM      2  C   UNL     1      -1.465  -4.284   0.768  0.00  0.00    +0.087 C 
ATOM      3  C   UNL     1      -1.231  -5.273   1.887  0.00  0.00    +0.069 C 
ATOM      4  N   UNL     1      -0.011  -5.186   2.291  0.00  0.00    -0.181 NA
ATOM      5  N   UNL     1       0.750  -4.234   1.609  0.00  0.00    -0.187 N 
ATOM      6  C   UNL     1       2.048  -3.953   1.838  0.00  0.00    +0.219 C 
ATOM      7  O   UNL     1       2.609  -3.101   1.181  0.00  0.00    -0.276 OA
ENDROOT
BRANCH   3   8
ATOM      8  C   UNL     1      -2.244  -6.195   2.434  0.00  0.00    +0.001 A 
ATOM      9  C   UNL     1      -3.569  -6.121   1.997  0.00  0.00    +0.013 A 
ATOM     10  C   UNL     1      -4.511  -6.986   2.513  0.00  0.00    -0.050 A 
ATOM     11  C   UNL     1      -4.147  -7.926   3.460  0.00  0.00    +0.003 A 
ATOM     12  C   UNL     1      -2.837  -8.006   3.898  0.00  0.00    +0.004 A 
ATOM     13  C   UNL     1      -1.883  -7.150   3.387  0.00  0.00    -0.042 A 
ATOM     14  C   UNL     1      -0.455  -7.243   3.860  0.00  0.00    +0.044 C 
ATOM     15  C   UNL     1      -5.941  -6.907   2.043  0.00  0.00    +0.044 C 
ENDBRANCH   3   8
BRANCH   1  20
ATOM     16  C   UNL     1      -0.567   2.075   1.650  0.00  0.00    +0.044 C 
ATOM     17  C   UNL     1      -0.445   0.599   1.376  0.00  0.00    -0.050 A 
ATOM     18  C   UNL     1      -0.381   0.141   0.073  0.00  0.00    +0.004 A 
ATOM     19  C   UNL     1      -0.270  -1.214  -0.179  0.00  0.00    +0.006 A 
ATOM     20  C   UNL     1      -0.221  -2.111   0.872  0.00  0.00    -0.025 A 
ATOM     21  C   UNL     1      -0.284  -1.653   2.175  0.00  0.00    +0.006 A 
ATOM     22  C   UNL     1      -0.391  -0.298   2.427  0.00  0.00    +0.004 A 
ENDBRANCH   1  20
BRANCH   6  23
ATOM     23  C   UNL     1       2.803  -4.696   2.910  0.00  0.00    +0.021 C 
BRANCH  23  24
ATOM     24  N   UNL     1       4.188  -4.208   2.962  0.00  0.00    +0.385 N 
ATOM     25  C   UNL     1       4.194  -2.800   3.375  0.00  0.00    -0.078 C 
ATOM     26  C   UNL     1       5.627  -2.265   3.352  0.00  0.00    -0.015 C 
ATOM     27  C   UNL     1       6.489  -3.086   4.316  0.00  0.00    -0.010 C 
ATOM     28  C   UNL     1       6.415  -4.563   3.920  0.00  0.00    -0.015 C 
ATOM     29  C   UNL     1       4.952  -5.013   3.922  0.00  0.00    -0.078 C 
ATOM     30  H   UNL     1       4.606  -4.290   2.047  0.00  0.00    -0.081 HD
BRANCH  27  31
ATOM     31  C   UNL     1       7.940  -2.607   4.240  0.00  0.00    +0.038 C 
BRANCH  31  32
ATOM     32  C   UNL     1       8.763  -3.330   5.275  0.00  0.00    -0.047 A 
ATOM     33  C   UNL     1       8.893  -2.802   6.546  0.00  0.00    +0.003 A 
ATOM     34  C   UNL     1       9.648  -3.465   7.496  0.00  0.00    +0.000 A 
ATOM     35  C   UNL     1      10.271  -4.657   7.175  0.00  0.00    +0.000 A 
ATOM     36  C   UNL     1      10.140  -5.185   5.904  0.00  0.00    +0.000 A 
ATOM     37  C   UNL     1       9.382  -4.524   4.955  0.00  0.00    +0.003 A 
ENDBRANCH  31  32
ENDBRANCH  27  31
ENDBRANCH  23  24
ENDBRANCH   6  23
TORSDOF 6
