REMARK  Name = ZINC45961094
REMARK  8 active torsions:
REMARK  status: ('A' for Active; 'I' for Inactive)
REMARK    1  A    between atoms: C_1  and  O_2
REMARK    2  A    between atoms: O_2  and  C_3
REMARK    3  A    between atoms: C_6  and  S_9
REMARK    4  A    between atoms: S_9  and  N_12
REMARK    5  A    between atoms: N_12  and  C_13
REMARK    6  A    between atoms: C_14  and  N_24
REMARK    7  A    between atoms: N_24  and  C_25
REMARK    8  A    between atoms: C_25  and  C_26
REMARK                            x       y       z     vdW  Elec       q    Type
REMARK                         _______ _______ _______ _____ _____    ______ ____
ROOT
ATOM      1  C   UNL     1       0.606  -3.702   5.279  0.00  0.00    +0.154 A 
ATOM      2  C   UNL     1       0.634  -4.379   4.074  0.00  0.00    +0.068 A 
ATOM      3  C   UNL     1      -0.556  -5.157   3.694  0.00  0.00    +0.040 A 
ATOM      4  C   UNL     1      -0.598  -5.866   2.492  0.00  0.00    +0.013 A 
ATOM      5  C   UNL     1      -1.727  -6.584   2.164  0.00  0.00    +0.001 A 
ATOM      6  C   UNL     1      -2.817  -6.605   3.021  0.00  0.00    +0.004 A 
ATOM      7  C   UNL     1      -2.788  -5.908   4.211  0.00  0.00    +0.047 A 
ATOM      8  C   UNL     1      -1.660  -5.178   4.561  0.00  0.00    +0.141 A 
ATOM      9  O   UNL     1      -1.619  -4.491   5.724  0.00  0.00    -0.421 OA
ATOM     10  C   UNL     1      -0.540  -3.782   6.091  0.00  0.00    +0.362 A 
ATOM     11  O   UNL     1      -0.556  -3.187   7.155  0.00  0.00    -0.243 OA
ENDROOT
BRANCH   1  12
ATOM     12  N   UNL     1       1.716  -2.943   5.693  0.00  0.00    -0.208 N 
ATOM     13  H   UNL     1       2.471  -2.823   5.095  0.00  0.00    +0.174 HD
BRANCH  12  14
ATOM     14  S   UNL     1       1.734  -2.256   7.199  0.00  0.00    +0.073 S 
ATOM     15  O   UNL     1       0.574  -1.440   7.288  0.00  0.00    -0.150 OA
ATOM     16  O   UNL     1       3.044  -1.740   7.394  0.00  0.00    -0.150 OA
BRANCH  14  20
ATOM     17  C   UNL     1       1.199  -5.600  10.205  0.00  0.00    +0.120 A 
ATOM     18  C   UNL     1       2.324  -5.569   9.393  0.00  0.00    +0.047 A 
ATOM     19  C   UNL     1       2.484  -4.548   8.476  0.00  0.00    +0.032 A 
ATOM     20  C   UNL     1       1.526  -3.557   8.368  0.00  0.00    +0.109 A 
ATOM     21  C   UNL     1       0.405  -3.586   9.177  0.00  0.00    +0.032 A 
ATOM     22  C   UNL     1       0.236  -4.608  10.091  0.00  0.00    +0.047 A 
BRANCH  17  24
ATOM     23  C   UNL     1       2.070  -7.591  11.169  0.00  0.00    +0.277 C 
ATOM     24  O   UNL     1       1.038  -6.604  11.107  0.00  0.00    -0.495 OA
ENDBRANCH  17  24
ENDBRANCH  14  20
ENDBRANCH  12  14
ENDBRANCH   1  12
BRANCH   2  25
ATOM     25  N   UNL     1       1.746  -4.328   3.252  0.00  0.00    -0.341 N 
ATOM     26  H   UNL     1       1.794  -4.894   2.466  0.00  0.00    +0.146 HD
BRANCH  25  27
ATOM     27  C   UNL     1       2.849  -3.418   3.568  0.00  0.00    +0.105 C 
BRANCH  27  28
ATOM     28  C   UNL     1       3.860  -3.423   2.420  0.00  0.00    +0.006 C 
ATOM     29  C   UNL     1       4.457  -4.824   2.271  0.00  0.00    +0.005 C 
ATOM     30  C   UNL     1       5.467  -4.829   1.122  0.00  0.00    +0.000 C 
ATOM     31  C   UNL     1       6.584  -3.827   1.422  0.00  0.00    +0.000 C 
ATOM     32  C   UNL     1       5.987  -2.426   1.570  0.00  0.00    +0.000 C 
ATOM     33  C   UNL     1       4.977  -2.421   2.719  0.00  0.00    +0.005 C 
ENDBRANCH  27  28
ENDBRANCH  25  27
ENDBRANCH   2  25
TORSDOF 7
