REMARK  Name = ZINC22023500
REMARK  5 active torsions:
REMARK  status: ('A' for Active; 'I' for Inactive)
REMARK    1  A    between atoms: C_1  and  C_2
REMARK    2  A    between atoms: C_7  and  S_23
REMARK    3  A    between atoms: N_11  and  S_12
REMARK    4  A    between atoms: S_12  and  C_15
REMARK    5  A    between atoms: S_23  and  N_26
REMARK                            x       y       z     vdW  Elec       q    Type
REMARK                         _______ _______ _______ _____ _____    ______ ____
ROOT
ATOM      1  C   UNL     1       4.327   2.661   1.232  0.00  0.00    +0.030 C 
ATOM      2  C   UNL     1       3.445   2.598  -0.016  0.00  0.00    +0.099 C 
ATOM      3  C   UNL     1       2.611   1.306  -0.015  0.00  0.00    +0.061 C 
ATOM      4  C   UNL     1       1.175   1.781   0.000  0.00  0.00    -0.021 A 
ATOM      5  C   UNL     1      -0.013   1.076   0.008  0.00  0.00    +0.034 A 
ATOM      6  C   UNL     1      -1.220   1.749   0.017  0.00  0.00    +0.105 A 
ATOM      7  C   UNL     1      -1.236   3.132   0.031  0.00  0.00    +0.030 A 
ATOM      8  C   UNL     1      -0.054   3.840   0.024  0.00  0.00    +0.027 A 
ATOM      9  C   UNL     1       1.170   3.167   0.008  0.00  0.00    +0.055 A 
ATOM     10  N   UNL     1       2.465   3.687  -0.001  0.00  0.00    -0.200 N 
ENDROOT
BRANCH  10  11
ATOM     11  S   UNL     1       2.840   5.301   0.004  0.00  0.00    +0.078 S 
ATOM     12  O   UNL     1       4.140   5.417  -0.557  0.00  0.00    -0.150 OA
ATOM     13  O   UNL     1       1.714   5.981  -0.532  0.00  0.00    -0.150 OA
BRANCH  11  14
ATOM     14  C   UNL     1       2.973   5.798   1.689  0.00  0.00    +0.144 A 
ATOM     15  C   UNL     1       4.190   6.220   2.192  0.00  0.00    +0.033 A 
ATOM     16  C   UNL     1       4.295   6.611   3.513  0.00  0.00    +0.022 A 
ATOM     17  C   UNL     1       3.182   6.581   4.335  0.00  0.00    +0.044 A 
ATOM     18  C   UNL     1       1.964   6.159   3.834  0.00  0.00    +0.060 A 
ATOM     19  C   UNL     1       1.857   5.773   2.509  0.00  0.00    +0.151 A 
ATOM     20  F   UNL     1       0.666   5.366   2.017  0.00  0.00    -0.203 F 
ATOM     21 CL   UNL     1       3.315   7.072   5.995  0.00  0.00    -0.083 Cl
ENDBRANCH  11  14
ENDBRANCH  10  11
BRANCH   6  22
ATOM     22  S   UNL     1      -2.734   0.848   0.019  0.00  0.00    +0.056 S 
ATOM     23  O   UNL     1      -3.722   1.713  -0.522  0.00  0.00    -0.153 OA
ATOM     24  O   UNL     1      -2.448  -0.427  -0.540  0.00  0.00    -0.153 OA
BRANCH  22  25
ATOM     25  N   UNL     1      -3.147   0.588   1.601  0.00  0.00    -0.204 NA
ATOM     26  H   UNL     1      -4.091   0.025   1.646  0.00  0.00    +0.144 HD
ATOM     27  H   UNL     1      -3.272   1.555   2.111  0.00  0.00    +0.144 HD
ENDBRANCH  22  25
ENDBRANCH   6  22
TORSDOF 4
