REMARK  Name = ZINC63513916
REMARK  11 active torsions:
REMARK  status: ('A' for Active; 'I' for Inactive)
REMARK    1  A    between atoms: C_1  and  C_2
REMARK    2  A    between atoms: C_7  and  N_8
REMARK    3  A    between atoms: C_9  and  C_11
REMARK    4  A    between atoms: C_11  and  N_16
REMARK    5  A    between atoms: N_16  and  C_17
REMARK    6  A    between atoms: C_17  and  C_18
REMARK    7  A    between atoms: C_18  and  C_19
REMARK    8  A    between atoms: C_22  and  O_30
REMARK    9  A    between atoms: C_27  and  C_29
REMARK   10  A    between atoms: O_30  and  C_31
REMARK   11  A    between atoms: C_32  and  C_34
REMARK                            x       y       z     vdW  Elec       q    Type
REMARK                         _______ _______ _______ _____ _____    ______ ____
ROOT
ATOM      1  N   UNL     1       0.233   1.530   5.019  0.00  0.00    -0.283 N 
ATOM      2  C   UNL     1      -0.882   1.506   5.776  0.00  0.00    +0.250 C 
ATOM      3  O   UNL     1      -1.790   2.279   5.546  0.00  0.00    -0.270 OA
ENDROOT
BRANCH   2   4
ATOM      4  C   UNL     1      -0.999   0.539   6.887  0.00  0.00    +0.072 A 
ATOM      5  C   UNL     1      -0.492  -0.755   6.747  0.00  0.00    +0.016 A 
ATOM      6  C   UNL     1      -0.604  -1.653   7.787  0.00  0.00    +0.001 A 
ATOM      7  C   UNL     1      -1.218  -1.276   8.970  0.00  0.00    +0.003 A 
ATOM      8  C   UNL     1      -1.723   0.002   9.118  0.00  0.00    +0.039 A 
ATOM      9  C   UNL     1      -1.612   0.916   8.085  0.00  0.00    +0.135 A 
ATOM     10  F   UNL     1      -2.101   2.167   8.232  0.00  0.00    -0.205 F 
ENDBRANCH   2   4
BRANCH   1  11
ATOM     11  C   UNL     1       0.909   0.278   4.670  0.00  0.00    +0.114 C 
ATOM     12  C   UNL     1       2.034   0.551   3.650  0.00  0.00    +0.035 C 
ATOM     13  C   UNL     1       3.310   0.681   4.519  0.00  0.00    +0.003 C 
ATOM     14  C   UNL     1       3.091  -0.396   5.611  0.00  0.00    +0.003 C 
ATOM     15  C   UNL     1       1.581  -0.324   5.916  0.00  0.00    +0.035 C 
BRANCH  11  17
ATOM     16  N   UNL     1      -1.401  -0.534   4.319  0.00  0.00    -0.283 N 
ATOM     17  C   UNL     1      -0.083  -0.700   4.095  0.00  0.00    +0.241 C 
ATOM     18  O   UNL     1       0.306  -1.638   3.430  0.00  0.00    -0.273 OA
ATOM     19  H   UNL     1      -1.705   0.135   4.952  0.00  0.00    +0.155 HD
BRANCH  16  26
ATOM     20  C   UNL     1      -3.981   0.556   3.817  0.00  0.00    +0.045 C 
ATOM     21  C   UNL     1      -3.603  -0.833   3.372  0.00  0.00    -0.029 A 
ATOM     22  C   UNL     1      -4.517  -1.615   2.693  0.00  0.00    +0.005 A 
ATOM     23  C   UNL     1      -4.171  -2.889   2.284  0.00  0.00    +0.000 A 
ATOM     24  C   UNL     1      -2.908  -3.385   2.552  0.00  0.00    +0.002 A 
ATOM     25  C   UNL     1      -1.988  -2.608   3.229  0.00  0.00    +0.023 A 
ATOM     26  C   UNL     1      -2.332  -1.326   3.637  0.00  0.00    +0.036 A 
ENDBRANCH  16  26
ENDBRANCH  11  17
ENDBRANCH   1  11
BRANCH   1  27
ATOM     27  C   UNL     1       0.768   2.809   4.545  0.00  0.00    +0.113 C 
BRANCH  27  28
ATOM     28  C   UNL     1       0.203   3.115   3.157  0.00  0.00    +0.052 C 
BRANCH  28  29
ATOM     29  C   UNL     1       0.638   4.494   2.730  0.00  0.00    -0.037 C 
ATOM     30  C   UNL     1       1.312   5.400   3.474  0.00  0.00    +0.003 A 
ATOM     31  C   UNL     1       1.822   5.377   4.849  0.00  0.00    +0.055 A 
ATOM     32  C   UNL     1       2.474   6.460   5.337  0.00  0.00    +0.121 A 
ATOM     33  C   UNL     1       2.684   7.618   4.569  0.00  0.00    +0.047 A 
ATOM     34  C   UNL     1       2.252   7.734   3.295  0.00  0.00    +0.029 A 
ATOM     35  C   UNL     1       1.534   6.621   2.666  0.00  0.00    +0.043 A 
ATOM     36  N   UNL     1       1.018   6.475   1.471  0.00  0.00    -0.378 N 
ATOM     37  C   UNL     1       0.415   5.141   1.382  0.00  0.00    +0.103 C 
ATOM     38  C   UNL     1       1.098   4.322   0.284  0.00  0.00    +0.035 C 
ATOM     39  H   UNL     1       1.036   7.137   0.762  0.00  0.00    +0.160 HD
BRANCH  32  40
ATOM     40  O   UNL     1       2.941   6.425   6.613  0.00  0.00    -0.495 OA
ATOM     41  C   UNL     1       3.622   7.588   7.087  0.00  0.00    +0.277 C 
ENDBRANCH  32  40
ENDBRANCH  28  29
ENDBRANCH  27  28
ENDBRANCH   1  27
TORSDOF 8
