REMARK  Name = ZINC02532076
REMARK  9 active torsions:
REMARK  status: ('A' for Active; 'I' for Inactive)
REMARK    1  A    between atoms: C_1  and  C_2
REMARK    2  A    between atoms: C_5  and  C_8
REMARK    3  A    between atoms: N_10  and  C_11
REMARK    4  A    between atoms: C_11  and  C_12
REMARK    5  A    between atoms: N_14  and  N_15
REMARK    6  A    between atoms: C_16  and  C_17
REMARK    7  A    between atoms: C_20  and  O_23
REMARK    8  A    between atoms: O_23  and  C_24
REMARK    9  A    between atoms: C_24  and  C_26
REMARK                            x       y       z     vdW  Elec       q    Type
REMARK                         _______ _______ _______ _____ _____    ______ ____
ROOT
ATOM      1  C   UNL     1      -4.706  -0.201  -0.308  0.00  0.00    -0.005 A 
ATOM      2  C   UNL     1      -4.698   1.194  -0.394  0.00  0.00    +0.013 A 
ATOM      3  C   UNL     1      -3.505   1.880  -0.318  0.00  0.00    +0.047 A 
ATOM      4  C   UNL     1      -2.312   1.187  -0.155  0.00  0.00    +0.132 A 
ATOM      5  C   UNL     1      -2.315  -0.200  -0.075  0.00  0.00    +0.047 A 
ATOM      6  C   UNL     1      -3.503  -0.893  -0.144  0.00  0.00    +0.013 A 
ENDROOT
BRANCH   1   8
ATOM      7  N   UNL     1      -5.985  -2.234  -0.308  0.00  0.00    -0.188 NA
ATOM      8  C   UNL     1      -5.979  -0.939  -0.388  0.00  0.00    +0.138 C 
BRANCH   7  11
ATOM      9  C   UNL     1      -7.200  -4.281  -0.301  0.00  0.00    +0.249 C 
ATOM     10  O   UNL     1      -6.157  -4.885  -0.160  0.00  0.00    -0.272 OA
ATOM     11  N   UNL     1      -7.195  -2.936  -0.385  0.00  0.00    -0.206 N 
ATOM     12  H   UNL     1      -8.029  -2.454  -0.497  0.00  0.00    +0.177 HD
BRANCH   9  13
ATOM     13  C   UNL     1      -8.502  -5.036  -0.384  0.00  0.00    +0.202 C 
BRANCH  13  16
ATOM     14  C   UNL     1      -9.264  -7.349  -0.315  0.00  0.00    +0.244 C 
ATOM     15  O   UNL     1     -10.403  -6.947  -0.453  0.00  0.00    -0.270 OA
ATOM     16  N   UNL     1      -8.242  -6.473  -0.268  0.00  0.00    -0.303 N 
ATOM     17  H   UNL     1      -7.333  -6.794  -0.158  0.00  0.00    +0.150 HD
BRANCH  14  22
ATOM     18  C   UNL     1      -8.241 -12.994   0.137  0.00  0.00    +0.044 C 
ATOM     19  C   UNL     1      -8.509 -11.516   0.018  0.00  0.00    -0.050 A 
ATOM     20  C   UNL     1      -9.806 -11.062  -0.138  0.00  0.00    +0.004 A 
ATOM     21  C   UNL     1     -10.059  -9.710  -0.247  0.00  0.00    +0.013 A 
ATOM     22  C   UNL     1      -9.002  -8.800  -0.199  0.00  0.00    +0.037 A 
ATOM     23  C   UNL     1      -7.694  -9.265  -0.045  0.00  0.00    +0.013 A 
ATOM     24  C   UNL     1      -7.457 -10.619   0.067  0.00  0.00    +0.004 A 
ENDBRANCH  14  22
ENDBRANCH  13  16
ENDBRANCH   9  13
ENDBRANCH   7  11
ENDBRANCH   1   8
BRANCH   4  25
ATOM     25  O   UNL     1      -1.139   1.868  -0.081  0.00  0.00    -0.422 OA
BRANCH  25  26
ATOM     26  C   UNL     1      -0.875   2.510   1.075  0.00  0.00    +0.345 C 
ATOM     27  O   UNL     1      -1.626   2.387   2.022  0.00  0.00    -0.245 OA
BRANCH  26  28
ATOM     28  C   UNL     1       0.325   3.355   1.190  0.00  0.00    +0.067 A 
ATOM     29  C   UNL     1       1.255   3.413   0.159  0.00  0.00    +0.015 A 
ATOM     30  C   UNL     1       2.382   4.215   0.269  0.00  0.00    +0.001 A 
ATOM     31  C   UNL     1       2.627   4.961   1.381  0.00  0.00    +0.008 A 
ATOM     32  C   UNL     1       1.733   4.947   2.465  0.00  0.00    -0.017 A 
ATOM     33  C   UNL     1       0.566   4.147   2.395  0.00  0.00    -0.004 A 
ATOM     34  C   UNL     1      -0.327   4.130   3.473  0.00  0.00    +0.009 A 
ATOM     35  C   UNL     1      -0.064   4.884   4.578  0.00  0.00    +0.001 A 
ATOM     36  C   UNL     1       1.083   5.672   4.650  0.00  0.00    +0.001 A 
ATOM     37  C   UNL     1       1.973   5.712   3.620  0.00  0.00    +0.008 A 
ENDBRANCH  26  28
ENDBRANCH  25  26
ENDBRANCH   4  25
TORSDOF 8
