REMARK  Name = ZINC36167757
REMARK  13 active torsions:
REMARK  status: ('A' for Active; 'I' for Inactive)
REMARK    1  A    between atoms: C_1  and  O_2
REMARK    2  A    between atoms: O_2  and  C_3
REMARK    3  A    between atoms: C_3  and  C_4
REMARK    4  A    between atoms: C_4  and  C_5
REMARK    5  A    between atoms: C_5  and  N_6
REMARK    6  A    between atoms: N_6  and  C_7
REMARK    7  A    between atoms: N_6  and  C_15
REMARK    8  A    between atoms: C_7  and  C_8
REMARK    9  A    between atoms: C_15  and  C_16
REMARK   10  A    between atoms: C_19  and  C_21
REMARK   11  A    between atoms: C_21  and  C_22
REMARK   12  A    between atoms: C_21  and  C_29
REMARK   13  A    between atoms: C_21  and  O_36
REMARK                            x       y       z     vdW  Elec       q    Type
REMARK                         _______ _______ _______ _____ _____    ______ ____
ROOT
ATOM      1  C   UNL     1      -0.246  -4.635   5.070  0.00  0.00    +0.089 A 
ATOM      2  C   UNL     1      -1.347  -4.986   5.758  0.00  0.00    +0.043 A 
ATOM      3  C   UNL     1      -1.540  -4.001   6.753  0.00  0.00    +0.048 A 
ATOM      4  C   UNL     1      -0.546  -3.106   6.614  0.00  0.00    +0.146 A 
ATOM      5  O   UNL     1       0.239  -3.498   5.596  0.00  0.00    -0.463 OA
ENDROOT
BRANCH   1   6
ATOM      6  C   UNL     1       0.347  -5.392   3.910  0.00  0.00    -0.003 C 
BRANCH   6   7
ATOM      7  N   UNL     1      -0.237  -4.901   2.655  0.00  0.00    +0.387 N 
ATOM      8  H   UNL     1      -1.243  -4.964   2.705  0.00  0.00    -0.081 HD
BRANCH   7   9
ATOM      9  C   UNL     1       0.155  -3.500   2.447  0.00  0.00    -0.076 C 
BRANCH   9  10
ATOM     10  C   UNL     1      -0.570  -2.944   1.220  0.00  0.00    +0.009 C 
BRANCH  10  11
ATOM     11  C   UNL     1      -0.272  -1.450   1.085  0.00  0.00    +0.157 C 
BRANCH  11  13
ATOM     12  C   UNL     1      -0.736   0.466  -0.279  0.00  0.00    +0.193 C 
ATOM     13  O   UNL     1      -0.949  -0.930  -0.061  0.00  0.00    -0.383 OA
ENDBRANCH  11  13
ENDBRANCH  10  11
ENDBRANCH   9  10
ENDBRANCH   7   9
BRANCH   7  14
ATOM     14  C   UNL     1       0.250  -5.717   1.535  0.00  0.00    -0.042 C 
BRANCH  14  15
ATOM     15  C   UNL     1      -0.269  -7.125   1.677  0.00  0.00    -0.064 A 
ATOM     16  C   UNL     1       0.519  -8.095   2.269  0.00  0.00    +0.004 A 
ATOM     17  C   UNL     1       0.044  -9.386   2.400  0.00  0.00    +0.038 A 
ATOM     18  C   UNL     1      -1.221  -9.708   1.938  0.00  0.00    +0.123 A 
ATOM     19  C   UNL     1      -2.009  -8.736   1.346  0.00  0.00    +0.038 A 
ATOM     20  C   UNL     1      -1.534  -7.444   1.220  0.00  0.00    +0.004 A 
ATOM     21  F   UNL     1      -1.686 -10.970   2.065  0.00  0.00    -0.205 F 
ENDBRANCH  14  15
ENDBRANCH   7  14
ENDBRANCH   6   7
ENDBRANCH   1   6
BRANCH   4  22
ATOM     22  C   UNL     1      -0.343  -1.875   7.459  0.00  0.00    +0.174 C 
BRANCH  22  23
ATOM     23  C   UNL     1       1.128  -1.556   7.536  0.00  0.00    -0.004 A 
ATOM     24  C   UNL     1       1.800  -1.681   8.738  0.00  0.00    +0.010 A 
ATOM     25  C   UNL     1       3.149  -1.389   8.810  0.00  0.00    +0.039 A 
ATOM     26  C   UNL     1       3.827  -0.970   7.678  0.00  0.00    +0.123 A 
ATOM     27  C   UNL     1       3.153  -0.845   6.475  0.00  0.00    +0.039 A 
ATOM     28  C   UNL     1       1.806  -1.142   6.404  0.00  0.00    +0.010 A 
ATOM     29  F   UNL     1       5.146  -0.684   7.747  0.00  0.00    -0.205 F 
ENDBRANCH  22  23
BRANCH  22  30
ATOM     30  C   UNL     1      -1.077  -0.714   6.840  0.00  0.00    -0.004 A 
ATOM     31  C   UNL     1      -1.081  -0.552   5.467  0.00  0.00    +0.010 A 
ATOM     32  C   UNL     1      -1.754   0.513   4.898  0.00  0.00    +0.039 A 
ATOM     33  C   UNL     1      -2.425   1.417   5.704  0.00  0.00    +0.123 A 
ATOM     34  C   UNL     1      -2.421   1.254   7.079  0.00  0.00    +0.039 A 
ATOM     35  C   UNL     1      -1.751   0.186   7.645  0.00  0.00    +0.010 A 
ATOM     36  F   UNL     1      -3.084   2.458   5.149  0.00  0.00    -0.205 F 
ENDBRANCH  22  30
BRANCH  22  37
ATOM     37  O   UNL     1      -0.848  -2.112   8.774  0.00  0.00    -0.372 OA
ATOM     38  H   UNL     1      -1.791  -2.324   8.801  0.00  0.00    +0.212 HD
ENDBRANCH  22  37
ENDBRANCH   4  22
TORSDOF 12
