REMARK  Name = ZINC36082917
REMARK  10 active torsions:
REMARK  status: ('A' for Active; 'I' for Inactive)
REMARK    1  A    between atoms: C_4  and  C_7
REMARK    2  A    between atoms: C_7  and  N_8
REMARK    3  A    between atoms: C_9  and  C_11
REMARK    4  A    between atoms: C_14  and  C_16
REMARK    5  A    between atoms: C_16  and  N_17
REMARK    6  A    between atoms: N_17  and  C_18
REMARK    7  A    between atoms: N_17  and  C_25
REMARK    8  A    between atoms: C_18  and  C_19
REMARK    9  A    between atoms: C_25  and  C_26
REMARK   10  A    between atoms: C_31  and  C_32
REMARK                            x       y       z     vdW  Elec       q    Type
REMARK                         _______ _______ _______ _____ _____    ______ ____
ROOT
ATOM      1  N   UNL     1       4.045  -2.229   7.102  0.00  0.00    +0.391 N 
ATOM      2  H   UNL     1       4.507  -3.126   7.134  0.00  0.00    -0.080 HD
ENDROOT
BRANCH   1   3
ATOM      3  C   UNL     1       4.950  -1.232   6.515  0.00  0.00    +0.020 C 
BRANCH   3   7
ATOM      4  C   UNL     1       8.281  -1.691   7.862  0.00  0.00    +0.163 A 
ATOM      5  C   UNL     1       7.787  -0.775   8.739  0.00  0.00    +0.230 A 
ATOM      6  O   UNL     1       6.529  -0.504   8.355  0.00  0.00    -0.449 OA
ATOM      7  C   UNL     1       6.257  -1.237   7.266  0.00  0.00    +0.179 A 
ATOM      8  N   UNL     1       7.299  -1.949   6.956  0.00  0.00    -0.210 NA
BRANCH   4  10
ATOM      9  N   UNL     1      10.019  -3.111   6.893  0.00  0.00    -0.306 N 
ATOM     10  C   UNL     1       9.629  -2.287   7.886  0.00  0.00    +0.266 C 
ATOM     11  O   UNL     1      10.390  -2.035   8.801  0.00  0.00    -0.268 OA
ATOM     12  H   UNL     1       9.389  -3.372   6.203  0.00  0.00    +0.149 HD
BRANCH   9  13
ATOM     13  C   UNL     1      11.395  -3.612   6.855  0.00  0.00    +0.140 C 
BRANCH  13  17
ATOM     14  C   UNL     1      11.897  -6.146   3.452  0.00  0.00    +0.000 A 
ATOM     15  C   UNL     1      12.141  -4.789   3.346  0.00  0.00    +0.000 A 
ATOM     16  C   UNL     1      11.979  -3.969   4.447  0.00  0.00    +0.005 A 
ATOM     17  C   UNL     1      11.571  -4.506   5.654  0.00  0.00    -0.030 A 
ATOM     18  C   UNL     1      11.326  -5.862   5.760  0.00  0.00    +0.005 A 
ATOM     19  C   UNL     1      11.490  -6.682   4.660  0.00  0.00    +0.000 A 
ENDBRANCH  13  17
ENDBRANCH   9  13
ENDBRANCH   4  10
ENDBRANCH   3   7
ENDBRANCH   1   3
BRANCH   1  20
ATOM     20  C   UNL     1       3.679  -1.818   8.464  0.00  0.00    -0.042 C 
BRANCH  20  21
ATOM     21  C   UNL     1       2.851  -2.899   9.110  0.00  0.00    -0.064 A 
ATOM     22  C   UNL     1       1.475  -2.886   8.979  0.00  0.00    +0.002 A 
ATOM     23  C   UNL     1       0.716  -3.877   9.572  0.00  0.00    +0.000 A 
ATOM     24  C   UNL     1       1.332  -4.882  10.294  0.00  0.00    +0.000 A 
ATOM     25  C   UNL     1       2.708  -4.895  10.424  0.00  0.00    +0.000 A 
ATOM     26  C   UNL     1       3.468  -3.906   9.828  0.00  0.00    +0.002 A 
ENDBRANCH  20  21
ENDBRANCH   1  20
BRANCH   1  27
ATOM     27  C   UNL     1       2.832  -2.333   6.280  0.00  0.00    -0.041 C 
BRANCH  27  28
ATOM     28  C   UNL     1       3.191  -2.876   4.920  0.00  0.00    -0.052 A 
ATOM     29  C   UNL     1       3.408  -2.009   3.865  0.00  0.00    +0.002 A 
ATOM     30  C   UNL     1       3.738  -2.507   2.619  0.00  0.00    +0.000 A 
ATOM     31  C   UNL     1       3.851  -3.872   2.427  0.00  0.00    +0.001 A 
ATOM     32  C   UNL     1       3.634  -4.738   3.482  0.00  0.00    +0.012 A 
ATOM     33  C   UNL     1       3.309  -4.240   4.730  0.00  0.00    +0.056 A 
BRANCH  33  34
ATOM     34  C   UNL     1       3.078  -5.184   5.881  0.00  0.00    +0.418 C 
ATOM     35  F   UNL     1       3.126  -6.504   5.419  0.00  0.00    -0.166 F 
ATOM     36  F   UNL     1       4.072  -4.993   6.848  0.00  0.00    -0.166 F 
ATOM     37  F   UNL     1       1.823  -4.933   6.446  0.00  0.00    -0.166 F 
ENDBRANCH  33  34
ENDBRANCH  27  28
ENDBRANCH   1  27
TORSDOF 10
