REMARK  Name = ZINC19370897
REMARK  9 active torsions:
REMARK  status: ('A' for Active; 'I' for Inactive)
REMARK    1  A    between atoms: C_1  and  C_2
REMARK    2  A    between atoms: C_2  and  C_3
REMARK    3  A    between atoms: C_2  and  C_4
REMARK    4  A    between atoms: C_10  and  N_21
REMARK    5  A    between atoms: N_24  and  C_27
REMARK    6  A    between atoms: C_27  and  C_28
REMARK    7  A    between atoms: C_28  and  C_29
REMARK    8  A    between atoms: C_29  and  C_30
REMARK    9  A    between atoms: C_30  and  C_32
REMARK                            x       y       z     vdW  Elec       q    Type
REMARK                         _______ _______ _______ _____ _____    ______ ____
ROOT
ATOM      1  C   UNL     1      -4.821   6.189   2.019  0.00  0.00    -0.044 A 
ATOM      2  C   UNL     1      -4.493   5.989   3.349  0.00  0.00    +0.005 A 
ATOM      3  C   UNL     1      -3.454   5.148   3.659  0.00  0.00    +0.015 A 
ATOM      4  C   UNL     1      -2.709   4.489   2.663  0.00  0.00    +0.017 A 
ATOM      5  C   UNL     1      -3.048   4.669   1.346  0.00  0.00    -0.016 A 
ATOM      6  C   UNL     1      -4.107   5.539   1.044  0.00  0.00    +0.010 A 
ATOM      7  C   UNL     1      -2.449   4.049   0.114  0.00  0.00    +0.092 C 
ATOM      8  C   UNL     1      -1.143   3.339   0.295  0.00  0.00    +0.060 C 
ATOM      9  C   UNL     1      -1.294   2.036   1.007  0.00  0.00    -0.032 A 
ATOM     10  C   UNL     1      -1.308   0.856   0.272  0.00  0.00    +0.007 A 
ATOM     11  C   UNL     1      -1.522  -0.349   0.914  0.00  0.00    +0.038 A 
ATOM     12  C   UNL     1      -1.719  -0.390   2.285  0.00  0.00    +0.124 A 
ATOM     13  C   UNL     1      -1.688   0.784   3.019  0.00  0.00    +0.053 A 
ATOM     14  C   UNL     1      -1.464   1.988   2.361  0.00  0.00    +0.019 A 
ATOM     15  S   UNL     1      -1.390   3.496   3.261  0.00  0.00    -0.089 S 
ATOM     16  F   UNL     1      -1.940  -1.571   2.902  0.00  0.00    -0.205 F 
ENDROOT
BRANCH   7  17
ATOM     17  N   UNL     1      -2.240   5.114  -0.876  0.00  0.00    -0.299 NA
ATOM     18  C   UNL     1      -1.985   4.550  -2.210  0.00  0.00    +0.066 C 
ATOM     19  C   UNL     1      -1.851   5.688  -3.224  0.00  0.00    -0.063 C 
ATOM     20  N   UNL     1      -0.758   6.580  -2.815  0.00  0.00    +0.381 N 
ATOM     21  C   UNL     1      -1.013   7.144  -1.482  0.00  0.00    -0.063 C 
ATOM     22  C   UNL     1      -1.146   6.006  -0.467  0.00  0.00    +0.066 C 
ATOM     23  H   UNL     1       0.165   5.984  -2.761  0.00  0.00    -0.082 HD
BRANCH  20  24
ATOM     24  C   UNL     1      -0.548   7.645  -3.805  0.00  0.00    -0.078 C 
BRANCH  24  25
ATOM     25  C   UNL     1      -0.043   7.033  -5.113  0.00  0.00    -0.011 C 
BRANCH  25  26
ATOM     26  C   UNL     1       0.175   8.142  -6.145  0.00  0.00    +0.078 C 
BRANCH  26  27
ATOM     27  C   UNL     1       0.672   7.539  -7.433  0.00  0.00    +0.163 C 
ATOM     28  O   UNL     1       0.836   6.340  -7.518  0.00  0.00    -0.292 OA
BRANCH  27  29
ATOM     29  C   UNL     1       0.958   8.404  -8.587  0.00  0.00    +0.018 A 
ATOM     30  C   UNL     1       0.765   9.786  -8.494  0.00  0.00    +0.014 A 
ATOM     31  C   UNL     1       1.041  10.592  -9.577  0.00  0.00    +0.039 A 
ATOM     32  C   UNL     1       1.499  10.033 -10.762  0.00  0.00    +0.123 A 
ATOM     33  C   UNL     1       1.687   8.663 -10.862  0.00  0.00    +0.039 A 
ATOM     34  C   UNL     1       1.420   7.847  -9.785  0.00  0.00    +0.014 A 
ATOM     35  F   UNL     1       1.762  10.828 -11.822  0.00  0.00    -0.205 F 
ENDBRANCH  27  29
ENDBRANCH  26  27
ENDBRANCH  25  26
ENDBRANCH  24  25
ENDBRANCH  20  24
ENDBRANCH   7  17
BRANCH   1  37
ATOM     36  C   UNL     1      -7.253   6.605   2.271  0.00  0.00    +0.012 C 
ATOM     37  C   UNL     1      -5.952   7.113   1.646  0.00  0.00    +0.013 C 
ATOM     38  C   UNL     1      -5.653   8.521   2.165  0.00  0.00    +0.012 C 
ENDBRANCH   1  37
TORSDOF 7
