REMARK  Name = ZINC14044196
REMARK  10 active torsions:
REMARK  status: ('A' for Active; 'I' for Inactive)
REMARK    1  A    between atoms: C_1  and  C_2
REMARK    2  A    between atoms: C_2  and  O_3
REMARK    3  A    between atoms: O_3  and  C_4
REMARK    4  A    between atoms: C_9  and  C_10
REMARK    5  A    between atoms: C_12  and  C_15
REMARK    6  A    between atoms: C_15  and  S_16
REMARK    7  A    between atoms: S_16  and  C_17
REMARK    8  A    between atoms: C_20  and  C_29
REMARK    9  A    between atoms: N_21  and  C_22
REMARK   10  A    between atoms: C_29  and  N_62
REMARK                            x       y       z     vdW  Elec       q    Type
REMARK                         _______ _______ _______ _____ _____    ______ ____
ROOT
ATOM      1  C   UNL     1      -9.794  -0.572   1.545  0.00  0.00    +0.197 A 
ATOM      2  N   UNL     1     -10.405  -0.521   0.384  0.00  0.00    -0.122 NA
ATOM      3  N   UNL     1     -11.675  -0.445   0.561  0.00  0.00    -0.135 NA
ATOM      4  C   UNL     1     -11.951  -0.431   1.835  0.00  0.00    +0.122 A 
ATOM      5  N   UNL     1     -10.762  -0.512   2.510  0.00  0.00    -0.276 N 
ENDROOT
BRANCH   5   6
ATOM      6  C   UNL     1     -10.575  -0.529   3.901  0.00  0.00    +0.050 A 
ATOM      7  C   UNL     1     -11.062  -1.589   4.654  0.00  0.00    +0.029 A 
ATOM      8  C   UNL     1     -10.873  -1.607   6.022  0.00  0.00    +0.040 A 
ATOM      9  C   UNL     1     -10.208  -0.563   6.643  0.00  0.00    +0.124 A 
ATOM     10  C   UNL     1      -9.727   0.498   5.894  0.00  0.00    +0.040 A 
ATOM     11  C   UNL     1      -9.910   0.516   4.525  0.00  0.00    +0.029 A 
ATOM     12  F   UNL     1     -10.028  -0.580   7.982  0.00  0.00    -0.205 F 
ENDBRANCH   5   6
BRANCH   1  13
ATOM     13  S   UNL     1      -8.056  -0.686   1.811  0.00  0.00    -0.076 S 
BRANCH  13  14
ATOM     14  C   UNL     1      -7.477  -0.718   0.096  0.00  0.00    +0.176 C 
BRANCH  14  17
ATOM     15  C   UNL     1      -3.974  -1.520   0.043  0.00  0.00    +0.206 A 
ATOM     16  N   UNL     1      -5.266  -1.918   0.054  0.00  0.00    -0.191 NA
ATOM     17  C   UNL     1      -5.974  -0.816   0.075  0.00  0.00    +0.238 A 
ATOM     18  O   UNL     1      -5.111   0.205   0.068  0.00  0.00    -0.337 OA
ATOM     19  N   UNL     1      -3.973  -0.212   0.050  0.00  0.00    -0.056 NA
BRANCH  15  25
ATOM     20  C   UNL     1      -1.498  -1.847   0.006  0.00  0.00    +0.131 A 
ATOM     21  C   UNL     1      -0.389  -2.679  -0.009  0.00  0.00    +0.046 A 
ATOM     22  C   UNL     1      -0.553  -4.051  -0.013  0.00  0.00    +0.004 A 
ATOM     23  C   UNL     1      -1.823  -4.603  -0.004  0.00  0.00    +0.001 A 
ATOM     24  C   UNL     1      -2.935  -3.787   0.011  0.00  0.00    +0.015 A 
ATOM     25  C   UNL     1      -2.781  -2.402   0.022  0.00  0.00    +0.064 A 
BRANCH  20  26
ATOM     26  O   UNL     1      -1.339  -0.499   0.012  0.00  0.00    -0.492 OA
BRANCH  26  28
ATOM     27  C   UNL     1      -0.019   1.526   0.010  0.00  0.00    +0.048 C 
ATOM     28  C   UNL     1       0.002  -0.004   0.002  0.00  0.00    +0.226 C 
ENDBRANCH  26  28
ENDBRANCH  20  26
ENDBRANCH  15  25
ENDBRANCH  14  17
ENDBRANCH  13  14
ENDBRANCH   1  13
BRANCH   4  29
ATOM     29  C   UNL     1     -13.323  -0.343   2.451  0.00  0.00    -0.001 C 
BRANCH  29  35
ATOM     30  C   UNL     1     -12.801   1.691   3.655  0.00  0.00    -0.078 C 
ATOM     31  C   UNL     1     -13.103   3.189   3.736  0.00  0.00    -0.019 C 
ATOM     32  C   UNL     1     -14.571   3.389   4.124  0.00  0.00    -0.004 C 
ATOM     33  C   UNL     1     -15.462   2.688   3.094  0.00  0.00    -0.019 C 
ATOM     34  C   UNL     1     -15.092   1.205   3.031  0.00  0.00    -0.078 C 
ATOM     35  N   UNL     1     -13.674   1.081   2.630  0.00  0.00    +0.384 N 
ATOM     36  H   UNL     1     -13.536   1.572   1.739  0.00  0.00    -0.081 HD
ENDBRANCH  29  35
ENDBRANCH   4  29
TORSDOF 9
