REMARK  Name = ZINC63221995
REMARK  4 active torsions:
REMARK  status: ('A' for Active; 'I' for Inactive)
REMARK    1  A    between atoms: C_1  and  C_2
REMARK    2  A    between atoms: C_2  and  C_34
REMARK    3  A    between atoms: C_6  and  C_18
REMARK    4  A    between atoms: C_21  and  C_23
REMARK                            x       y       z     vdW  Elec       q    Type
REMARK                         _______ _______ _______ _____ _____    ______ ____
ROOT
ATOM      1  C   UNL     1      -0.019   1.526   0.010  0.00  0.00    +0.011 C 
ATOM      2  C   UNL     1       0.002  -0.004   0.002  0.00  0.00    -0.023 C 
ATOM      3  C   UNL     1       0.742  -0.503  -1.241  0.00  0.00    +0.058 C 
ATOM      4  C   UNL     1       2.168  -0.007  -1.216  0.00  0.00    +0.017 C 
ATOM      5  C   UNL     1       2.818   0.178  -0.050  0.00  0.00    +0.024 C 
ATOM      6  C   UNL     1       4.253   0.647   0.006  0.00  0.00    +0.109 C 
ATOM      7  C   UNL     1       4.628   1.367  -1.291  0.00  0.00    +0.151 C 
ATOM      8  C   UNL     1       4.108   0.534  -2.439  0.00  0.00    +0.106 C 
ATOM      9  N   UNL     1       4.881   0.092  -3.382  0.00  0.00    -0.151 NA
ATOM     10  C   UNL     1       6.202   0.317  -3.397  0.00  0.00    +0.331 C 
ATOM     11  O   UNL     1       6.865  -0.105  -4.326  0.00  0.00    -0.250 OA
ATOM     12  N   UNL     1       6.811   0.998  -2.414  0.00  0.00    -0.238 N 
ATOM     13  C   UNL     1       6.118   1.521  -1.383  0.00  0.00    +0.231 C 
ATOM     14  O   UNL     1       6.706   2.123  -0.510  0.00  0.00    -0.275 OA
ATOM     15  N   UNL     1       2.769   0.255  -2.427  0.00  0.00    -0.307 N 
ATOM     16  C   UNL     1       2.173  -0.060   1.181  0.00  0.00    +0.162 C 
ATOM     17  O   UNL     1       2.788   0.107   2.215  0.00  0.00    -0.292 OA
ATOM     18  C   UNL     1       0.742  -0.517   1.242  0.00  0.00    +0.086 C 
ATOM     19  C   UNL     1      -1.431  -0.539  -0.001  0.00  0.00    +0.011 C 
ATOM     20  H   UNL     1       7.773   1.120  -2.446  0.00  0.00    +0.159 HD
ATOM     21  H   UNL     1       2.256   0.241  -3.251  0.00  0.00    +0.153 HD
ENDROOT
BRANCH   6  22
ATOM     22  C   UNL     1       5.160  -0.542   0.192  0.00  0.00    +0.114 A 
ATOM     23  C   UNL     1       5.996  -0.738   1.230  0.00  0.00    +0.046 A 
ATOM     24  C   UNL     1       6.649  -1.967   1.008  0.00  0.00    +0.050 A 
ATOM     25  C   UNL     1       6.171  -2.458  -0.166  0.00  0.00    +0.137 A 
ATOM     26  O   UNL     1       5.264  -1.586  -0.647  0.00  0.00    -0.459 OA
BRANCH  25  27
ATOM     27  C   UNL     1       6.573  -3.731  -0.802  0.00  0.00    +0.037 A 
ATOM     28  C   UNL     1       7.925  -4.034  -0.970  0.00  0.00    +0.033 A 
ATOM     29  C   UNL     1       8.293  -5.224  -1.564  0.00  0.00    +0.042 A 
ATOM     30  C   UNL     1       7.324  -6.117  -1.993  0.00  0.00    +0.021 A 
ATOM     31  C   UNL     1       5.983  -5.822  -1.829  0.00  0.00    +0.022 A 
ATOM     32  C   UNL     1       5.601  -4.638  -1.231  0.00  0.00    +0.052 A 
ATOM     33 CL   UNL     1       3.917  -4.273  -1.020  0.00  0.00    -0.083 Cl
ATOM     34 CL   UNL     1       9.974  -5.603  -1.775  0.00  0.00    -0.084 Cl
ENDBRANCH  25  27
ENDBRANCH   6  22
TORSDOF 2
