REMARK  Name = ZINC09151122
REMARK  8 active torsions:
REMARK  status: ('A' for Active; 'I' for Inactive)
REMARK    1  A    between atoms: C_1  and  C_2
REMARK    2  A    between atoms: C_2  and  N_57
REMARK    3  A    between atoms: C_8  and  N_23
REMARK    4  A    between atoms: C_9  and  C_10
REMARK    5  A    between atoms: C_10  and  N_11
REMARK    6  A    between atoms: N_14  and  C_15
REMARK    7  A    between atoms: C_18  and  C_22
REMARK    8  A    between atoms: C_20  and  C_21
REMARK                            x       y       z     vdW  Elec       q    Type
REMARK                         _______ _______ _______ _____ _____    ______ ____
ROOT
ATOM      1  C   UNL     1      -7.117   2.325  -4.003  0.00  0.00    -0.074 C 
ATOM      2  C   UNL     1      -6.077   1.981  -2.934  0.00  0.00    +0.018 C 
ATOM      3  C   UNL     1      -6.536   2.586  -1.610  0.00  0.00    -0.034 A 
ATOM      4  C   UNL     1      -7.477   3.571  -1.615  0.00  0.00    -0.021 A 
ATOM      5  S   UNL     1      -7.699   3.955   0.099  0.00  0.00    -0.077 S 
ATOM      6  C   UNL     1      -6.527   2.781   0.763  0.00  0.00    +0.089 A 
ATOM      7  C   UNL     1      -6.051   2.191  -0.366  0.00  0.00    +0.004 A 
ATOM      8  C   UNL     1      -8.145   4.166  -2.812  0.00  0.00    -0.035 C 
ATOM      9  N   UNL     1      -7.356   3.782  -4.008  0.00  0.00    +0.383 N 
ATOM     10  H   UNL     1      -6.453   4.269  -3.984  0.00  0.00    -0.081 HD
ENDROOT
BRANCH   6  11
ATOM     11  N   UNL     1      -6.186   2.534   2.098  0.00  0.00    -0.317 N 
ATOM     12  C   UNL     1      -7.067   2.384   3.130  0.00  0.00    +0.092 A 
ATOM     13  C   UNL     1      -6.361   2.158   4.257  0.00  0.00    +0.019 A 
ATOM     14  C   UNL     1      -4.995   2.178   3.912  0.00  0.00    +0.019 A 
ATOM     15  C   UNL     1      -4.916   2.410   2.585  0.00  0.00    +0.092 A 
ENDBRANCH   6  11
BRANCH   9  17
ATOM     16  C   UNL     1      -8.114   5.700  -5.328  0.00  0.00    -0.017 C 
ATOM     17  C   UNL     1      -8.080   4.173  -5.238  0.00  0.00    -0.082 C 
ENDBRANCH   9  17
BRANCH   7  18
ATOM     18  C   UNL     1      -5.007   1.109  -0.271  0.00  0.00    +0.144 C 
BRANCH  18  19
ATOM     19  N   UNL     1      -3.677   1.697  -0.450  0.00  0.00    -0.295 N 
ATOM     20  C   UNL     1      -2.582   0.912  -0.403  0.00  0.00    +0.304 C 
ATOM     21  O   UNL     1      -2.697  -0.283  -0.213  0.00  0.00    -0.252 OA
ATOM     22  N   UNL     1      -1.358   1.453  -0.568  0.00  0.00    -0.269 N 
ATOM     23  H   UNL     1      -3.584   2.650  -0.601  0.00  0.00    +0.151 HD
ATOM     24  H   UNL     1      -1.260   2.415  -0.652  0.00  0.00    +0.156 HD
BRANCH  22  25
ATOM     25  C   UNL     1      -0.229   0.628  -0.617  0.00  0.00    +0.038 A 
ATOM     26  C   UNL     1      -0.223  -0.585   0.060  0.00  0.00    +0.024 A 
ATOM     27  C   UNL     1       0.890  -1.400   0.005  0.00  0.00    +0.005 A 
ATOM     28  C   UNL     1       1.999  -1.010  -0.724  0.00  0.00    -0.050 A 
ATOM     29  C   UNL     1       1.996   0.197  -1.399  0.00  0.00    +0.008 A 
ATOM     30  C   UNL     1       0.886   1.017  -1.348  0.00  0.00    -0.029 A 
ATOM     31  C   UNL     1       0.884   2.332  -2.084  0.00  0.00    +0.045 C 
ATOM     32  C   UNL     1       3.212  -1.902  -0.783  0.00  0.00    +0.044 C 
ENDBRANCH  22  25
ENDBRANCH  18  19
ENDBRANCH   7  18
TORSDOF 5
