REMARK  Name = ZINC28724664
REMARK  10 active torsions:
REMARK  status: ('A' for Active; 'I' for Inactive)
REMARK    1  A    between atoms: C_1  and  C_2
REMARK    2  A    between atoms: C_2  and  C_4
REMARK    3  A    between atoms: C_2  and  N_15
REMARK    4  A    between atoms: C_7  and  N_10
REMARK    5  A    between atoms: N_15  and  C_16
REMARK    6  A    between atoms: N_15  and  C_17
REMARK    7  A    between atoms: C_17  and  C_18
REMARK    8  A    between atoms: C_20  and  C_23
REMARK    9  A    between atoms: C_28  and  O_29
REMARK   10  A    between atoms: O_29  and  C_30
REMARK                            x       y       z     vdW  Elec       q    Type
REMARK                         _______ _______ _______ _____ _____    ______ ____
ROOT
ATOM      1  N   UNL     1       0.713  -0.491   1.192  0.00  0.00    -0.290 NA
ATOM      2  C   UNL     1       0.671  -1.957   1.267  0.00  0.00    +0.106 C 
ENDROOT
BRANCH   1   4
ATOM      3  C   UNL     1      -0.019   1.526   0.010  0.00  0.00    +0.029 C 
ATOM      4  C   UNL     1       0.002  -0.004   0.002  0.00  0.00    +0.084 C 
BRANCH   4   5
ATOM      5  C   UNL     1      -1.412  -0.526   0.013  0.00  0.00    -0.030 A 
ATOM      6  C   UNL     1      -2.122  -0.570   1.198  0.00  0.00    +0.007 A 
ATOM      7  C   UNL     1      -3.418  -1.047   1.211  0.00  0.00    +0.028 A 
ATOM      8  C   UNL     1      -4.008  -1.482   0.032  0.00  0.00    +0.067 A 
ATOM      9  C   UNL     1      -3.292  -1.437  -1.157  0.00  0.00    +0.028 A 
ATOM     10  C   UNL     1      -1.998  -0.953  -1.164  0.00  0.00    +0.007 A 
BRANCH   8  11
ATOM     11  N   UNL     1      -5.323  -1.968   0.042  0.00  0.00    -0.220 N 
ATOM     12  C   UNL     1      -6.023  -2.427  -1.014  0.00  0.00    +0.225 A 
ATOM     13  N   UNL     1      -7.207  -2.785  -0.590  0.00  0.00    -0.222 NA
ATOM     14  C   UNL     1      -7.302  -2.572   0.723  0.00  0.00    +0.245 A 
ATOM     15  N   UNL     1      -6.172  -2.078   1.156  0.00  0.00    -0.154 NA
ENDBRANCH   8  11
ENDBRANCH   4   5
ENDBRANCH   1   4
BRANCH   1  16
ATOM     16  C   UNL     1       2.097  -0.001   1.216  0.00  0.00    +0.183 C 
BRANCH  16  17
ATOM     17  C   UNL     1       2.717  -0.309   2.554  0.00  0.00    +0.242 A 
ATOM     18  N   UNL     1       3.370  -1.394   2.859  0.00  0.00    -0.190 NA
ATOM     19  C   UNL     1       3.785  -1.338   4.137  0.00  0.00    +0.206 A 
ATOM     20  N   UNL     1       3.391  -0.201   4.656  0.00  0.00    -0.056 NA
ATOM     21  O   UNL     1       2.693   0.489   3.630  0.00  0.00    -0.336 OA
BRANCH  19  22
ATOM     22  C   UNL     1       4.559  -2.389   4.843  0.00  0.00    +0.064 A 
ATOM     23  C   UNL     1       4.923  -3.557   4.175  0.00  0.00    +0.015 A 
ATOM     24  C   UNL     1       5.643  -4.531   4.835  0.00  0.00    +0.001 A 
ATOM     25  C   UNL     1       6.006  -4.353   6.159  0.00  0.00    +0.004 A 
ATOM     26  C   UNL     1       5.650  -3.199   6.831  0.00  0.00    +0.046 A 
ATOM     27  C   UNL     1       4.931  -2.209   6.178  0.00  0.00    +0.131 A 
BRANCH  27  28
ATOM     28  O   UNL     1       4.586  -1.072   6.835  0.00  0.00    -0.494 OA
ATOM     29  C   UNL     1       5.001  -0.959   8.198  0.00  0.00    +0.277 C 
ENDBRANCH  27  28
ENDBRANCH  19  22
ENDBRANCH  16  17
ENDBRANCH   1  16
TORSDOF 7
