REMARK  Name = ZINC59387675
REMARK  11 active torsions:
REMARK  status: ('A' for Active; 'I' for Inactive)
REMARK    1  A    between atoms: C_1  and  C_2
REMARK    2  A    between atoms: C_2  and  C_4
REMARK    3  A    between atoms: C_2  and  N_11
REMARK    4  A    between atoms: N_11  and  C_12
REMARK    5  A    between atoms: N_11  and  C_13
REMARK    6  A    between atoms: C_13  and  C_14
REMARK    7  A    between atoms: N_16  and  C_17
REMARK    8  A    between atoms: C_17  and  C_19
REMARK    9  A    between atoms: C_17  and  C_30
REMARK   10  A    between atoms: C_30  and  C_31
REMARK   11  A    between atoms: C_30  and  C_32
REMARK                            x       y       z     vdW  Elec       q    Type
REMARK                         _______ _______ _______ _____ _____    ______ ____
ROOT
ATOM      1  C   UNL     1       2.735  -0.352  -2.513  0.00  0.00    +0.197 C 
ATOM      2  O   UNL     1       2.122  -0.986  -3.346  0.00  0.00    -0.278 OA
ATOM      3  N   UNL     1       4.012   0.010  -2.747  0.00  0.00    -0.310 N 
ATOM      4  H   UNL     1       4.502   0.517  -2.080  0.00  0.00    +0.149 HD
ENDROOT
BRANCH   1   5
ATOM      5  C   UNL     1       2.068   0.031  -1.217  0.00  0.00    +0.019 C 
BRANCH   5   6
ATOM      6  N   UNL     1       0.690  -0.478  -1.207  0.00  0.00    +0.388 N 
ATOM      7  C   UNL     1       0.710  -1.947  -1.215  0.00  0.00    -0.095 C 
ATOM      8  H   UNL     1       0.202  -0.144  -2.024  0.00  0.00    -0.081 HD
BRANCH   6  10
ATOM      9  C   UNL     1      -0.019   1.526   0.010  0.00  0.00    -0.008 C 
ATOM     10  C   UNL     1       0.002  -0.004   0.002  0.00  0.00    -0.038 C 
BRANCH  10  11
ATOM     11  C   UNL     1      -1.412  -0.526   0.013  0.00  0.00    -0.026 A 
ATOM     12  C   UNL     1      -1.998  -0.959  -1.162  0.00  0.00    +0.005 A 
ATOM     13  C   UNL     1      -3.294  -1.438  -1.152  0.00  0.00    +0.000 A 
ATOM     14  C   UNL     1      -4.007  -1.483   0.032  0.00  0.00    +0.003 A 
ATOM     15  C   UNL     1      -3.423  -1.051   1.207  0.00  0.00    +0.038 A 
ATOM     16  C   UNL     1      -2.122  -0.576   1.200  0.00  0.00    +0.125 A 
ATOM     17  F   UNL     1      -1.549  -0.158   2.349  0.00  0.00    -0.205 F 
ENDBRANCH  10  11
ENDBRANCH   6  10
ENDBRANCH   5   6
ENDBRANCH   1   5
BRANCH   3  18
ATOM     18  C   UNL     1       4.660  -0.362  -4.007  0.00  0.00    +0.106 C 
BRANCH  18  19
ATOM     19  C   UNL     1       6.153  -0.413  -3.808  0.00  0.00    -0.023 A 
ATOM     20  C   UNL     1       6.777   0.541  -3.025  0.00  0.00    +0.009 A 
ATOM     21  C   UNL     1       8.146   0.500  -2.837  0.00  0.00    +0.050 A 
ATOM     22  C   UNL     1       8.892  -0.501  -3.437  0.00  0.00    +0.162 A 
ATOM     23  C   UNL     1       8.266  -1.458  -4.223  0.00  0.00    +0.162 A 
ATOM     24  C   UNL     1       6.894  -1.417  -4.404  0.00  0.00    +0.055 A 
ATOM     25  O   UNL     1       9.009  -2.441  -4.808  0.00  0.00    -0.488 OA
ATOM     26  C   UNL     1       9.897  -2.019  -5.845  0.00  0.00    +0.232 C 
ATOM     27  C   UNL     1      11.212  -1.526  -5.262  0.00  0.00    +0.082 C 
ATOM     28  C   UNL     1      11.037  -0.276  -4.415  0.00  0.00    +0.232 C 
ATOM     29  O   UNL     1      10.244  -0.553  -3.259  0.00  0.00    -0.488 OA
ENDBRANCH  18  19
BRANCH  18  30
ATOM     30  C   UNL     1       4.324   0.677  -5.079  0.00  0.00    +0.008 C 
ATOM     31  C   UNL     1       5.000   0.288  -6.395  0.00  0.00    +0.009 C 
ATOM     32  C   UNL     1       2.808   0.729  -5.281  0.00  0.00    +0.009 C 
ENDBRANCH  18  30
ENDBRANCH   3  18
TORSDOF 7
