REMARK  Name = ZINC09510737
REMARK  11 active torsions:
REMARK  status: ('A' for Active; 'I' for Inactive)
REMARK    1  A    between atoms: C_1  and  C_2
REMARK    2  A    between atoms: C_5  and  N_9
REMARK    3  A    between atoms: C_6  and  C_8
REMARK    4  A    between atoms: C_10  and  C_12
REMARK    5  A    between atoms: C_12  and  S_13
REMARK    6  A    between atoms: S_13  and  C_14
REMARK    7  A    between atoms: C_17  and  C_20
REMARK    8  A    between atoms: N_18  and  N_19
REMARK    9  A    between atoms: C_22  and  C_26
REMARK   10  A    between atoms: C_29  and  O_32
REMARK   11  A    between atoms: O_32  and  C_33
REMARK                            x       y       z     vdW  Elec       q    Type
REMARK                         _______ _______ _______ _____ _____    ______ ____
ROOT
ATOM      1  C   UNL     1      -0.324  -8.700  -2.775  0.00  0.00    +0.209 A 
ATOM      2  N   UNL     1      -0.403  -9.323  -1.620  0.00  0.00    -0.120 NA
ATOM      3  N   UNL     1      -0.503 -10.590  -1.808  0.00  0.00    -0.125 NA
ATOM      4  C   UNL     1      -0.494 -10.855  -3.095  0.00  0.00    +0.199 A 
ATOM      5  N   UNL     1      -0.385  -9.651  -3.754  0.00  0.00    -0.223 N 
ENDROOT
BRANCH   4   6
ATOM      6  C   UNL     1      -0.590 -12.188  -3.716  0.00  0.00    +0.105 A 
ATOM      7  C   UNL     1      -1.008 -13.337  -3.104  0.00  0.00    +0.061 A 
ATOM      8  C   UNL     1      -0.947 -14.373  -4.051  0.00  0.00    +0.093 A 
ATOM      9  N   UNL     1      -0.510 -13.871  -5.188  0.00  0.00    -0.173 NA
ATOM     10  N   UNL     1      -0.282 -12.501  -5.010  0.00  0.00    -0.273 N 
ATOM     11  H   UNL     1       0.039 -11.883  -5.685  0.00  0.00    +0.189 HD
BRANCH   8  12
ATOM     12  C   UNL     1      -1.311 -15.791  -3.811  0.00  0.00    +0.002 A 
ATOM     13  C   UNL     1      -1.767 -16.192  -2.557  0.00  0.00    +0.013 A 
ATOM     14  C   UNL     1      -2.105 -17.511  -2.337  0.00  0.00    +0.046 A 
ATOM     15  C   UNL     1      -1.993 -18.439  -3.363  0.00  0.00    +0.120 A 
ATOM     16  C   UNL     1      -1.539 -18.042  -4.614  0.00  0.00    +0.046 A 
ATOM     17  C   UNL     1      -1.204 -16.723  -4.841  0.00  0.00    +0.013 A 
BRANCH  15  18
ATOM     18  O   UNL     1      -2.327 -19.737  -3.144  0.00  0.00    -0.495 OA
ATOM     19  C   UNL     1      -2.187 -20.638  -4.244  0.00  0.00    +0.277 C 
ENDBRANCH  15  18
ENDBRANCH   8  12
ENDBRANCH   4   6
BRANCH   5  20
ATOM     20  N   UNL     1      -0.344  -9.449  -5.104  0.00  0.00    -0.295 N 
ATOM     21  H   UNL     1       0.609  -9.400  -5.434  0.00  0.00    +0.163 HD
ATOM     22  H   UNL     1      -0.859 -10.166  -5.593  0.00  0.00    +0.163 HD
ENDBRANCH   5  20
BRANCH   1  23
ATOM     23  S   UNL     1      -0.175  -6.961  -3.016  0.00  0.00    -0.075 S 
BRANCH  23  24
ATOM     24  C   UNL     1      -0.150  -6.285  -1.332  0.00  0.00    +0.173 C 
BRANCH  24  26
ATOM     25  N   UNL     1       0.016  -4.064  -0.257  0.00  0.00    -0.285 N 
ATOM     26  C   UNL     1      -0.023  -4.785  -1.395  0.00  0.00    +0.227 C 
ATOM     27  O   UNL     1       0.043  -4.226  -2.470  0.00  0.00    -0.275 OA
ATOM     28  H   UNL     1       0.031  -4.514   0.602  0.00  0.00    +0.155 HD
BRANCH  25  33
ATOM     29  C   UNL     1       0.088   1.604  -0.492  0.00  0.00    +0.044 C 
ATOM     30  C   UNL     1       0.069   0.098  -0.430  0.00  0.00    -0.050 A 
ATOM     31  C   UNL     1       0.701  -0.641  -1.413  0.00  0.00    +0.005 A 
ATOM     32  C   UNL     1       0.685  -2.021  -1.359  0.00  0.00    +0.024 A 
ATOM     33  C   UNL     1       0.034  -2.666  -0.315  0.00  0.00    +0.036 A 
ATOM     34  C   UNL     1      -0.599  -1.921   0.671  0.00  0.00    -0.029 A 
ATOM     35  C   UNL     1      -0.575  -0.540   0.613  0.00  0.00    +0.008 A 
ATOM     36  C   UNL     1      -1.306  -2.616   1.805  0.00  0.00    +0.045 C 
ENDBRANCH  25  33
ENDBRANCH  24  26
ENDBRANCH  23  24
ENDBRANCH   1  23
TORSDOF 8
