REMARK  Name = ZINC32698741
REMARK  9 active torsions:
REMARK  status: ('A' for Active; 'I' for Inactive)
REMARK    1  A    between atoms: C_1  and  C_2
REMARK    2  A    between atoms: C_5  and  C_8
REMARK    3  A    between atoms: C_11  and  S_13
REMARK    4  A    between atoms: S_13  and  C_14
REMARK    5  A    between atoms: C_14  and  C_15
REMARK    6  A    between atoms: N_17  and  C_18
REMARK    7  A    between atoms: C_19  and  C_33
REMARK    8  A    between atoms: C_20  and  C_28
REMARK    9  A    between atoms: C_21  and  C_23
REMARK                            x       y       z     vdW  Elec       q    Type
REMARK                         _______ _______ _______ _____ _____    ______ ____
ROOT
ATOM      1  C   UNL     1      -0.014   1.209   0.009  0.00  0.00    +0.230 C 
ATOM      2  O   UNL     1       0.002  -0.004   0.002  0.00  0.00    -0.274 OA
ATOM      3  N   UNL     1      -1.191   1.867   0.018  0.00  0.00    -0.255 N 
ATOM      4  H   UNL     1      -1.206   2.966   0.024  0.00  0.00    +0.158 HD
ENDROOT
BRANCH   3   5
ATOM      5  C   UNL     1      -2.378   1.159   0.020  0.00  0.00    +0.211 A 
ATOM      6  C   UNL     1      -3.647   1.715   0.034  0.00  0.00    +0.124 A 
ATOM      7  C   UNL     1      -4.581   0.572   0.027  0.00  0.00    +0.085 A 
ATOM      8  C   UNL     1      -3.782  -0.559   0.017  0.00  0.00    +0.184 A 
ATOM      9  O   UNL     1      -2.490  -0.176   0.013  0.00  0.00    -0.436 OA
BRANCH   8  10
ATOM     10  C   UNL     1      -4.262  -1.944   0.013  0.00  0.00    +0.170 A 
ATOM     11  C   UNL     1      -3.481  -3.064   0.004  0.00  0.00    +0.053 A 
ATOM     12  C   UNL     1      -4.356  -4.168   0.003  0.00  0.00    +0.042 A 
ATOM     13  C   UNL     1      -5.612  -3.678   0.012  0.00  0.00    +0.196 A 
ATOM     14  O   UNL     1      -5.553  -2.335   0.023  0.00  0.00    -0.460 OA
ENDBRANCH   8  10
BRANCH   7  15
ATOM     15  C   UNL     1      -6.053   0.624   0.034  0.00  0.00    +0.140 A 
ATOM     16  C   UNL     1      -6.832   1.113   1.039  0.00  0.00    +0.050 A 
ATOM     17  C   UNL     1      -8.170   0.966   0.624  0.00  0.00    +0.042 A 
ATOM     18  C   UNL     1      -8.145   0.402  -0.600  0.00  0.00    +0.196 A 
ATOM     19  O   UNL     1      -6.864   0.202  -0.956  0.00  0.00    -0.463 OA
ENDBRANCH   7  15
BRANCH   6  20
ATOM     20  C   UNL     1      -3.981   3.107   0.051  0.00  0.00    +0.105 C 
ATOM     21  N   UNL     1      -4.247   4.212   0.063  0.00  0.00    -0.191 NA
ENDBRANCH   6  20
ENDBRANCH   3   5
BRANCH   1  22
ATOM     22  C   UNL     1       1.280   1.980   0.001  0.00  0.00    +0.175 C 
BRANCH  22  23
ATOM     23  S   UNL     1       2.672   0.822  -0.019  0.00  0.00    -0.056 S 
BRANCH  23  27
ATOM     24  C   UNL     1       5.997   2.821  -0.040  0.00  0.00    +0.249 A 
ATOM     25  N   UNL     1       5.107   3.782  -0.026  0.00  0.00    -0.106 NA
ATOM     26  N   UNL     1       3.926   3.271  -0.017  0.00  0.00    -0.101 NA
ATOM     27  C   UNL     1       4.017   1.961  -0.026  0.00  0.00    +0.278 A 
ATOM     28  O   UNL     1       5.326   1.647  -0.035  0.00  0.00    -0.411 OA
BRANCH  24  33
ATOM     29  C   UNL     1      11.714   3.474  -0.088  0.00  0.00    +0.044 C 
ATOM     30  C   UNL     1      10.216   3.303  -0.076  0.00  0.00    -0.050 A 
ATOM     31  C   UNL     1       9.396   4.417  -0.062  0.00  0.00    +0.004 A 
ATOM     32  C   UNL     1       8.025   4.267  -0.051  0.00  0.00    +0.013 A 
ATOM     33  C   UNL     1       7.465   2.988  -0.053  0.00  0.00    +0.039 A 
ATOM     34  C   UNL     1       8.299   1.869  -0.061  0.00  0.00    +0.013 A 
ATOM     35  C   UNL     1       9.669   2.032  -0.078  0.00  0.00    +0.004 A 
ENDBRANCH  24  33
ENDBRANCH  23  27
ENDBRANCH  22  23
ENDBRANCH   1  22
TORSDOF 8
