REMARK  Name = ZINC63137896
REMARK  8 active torsions:
REMARK  status: ('A' for Active; 'I' for Inactive)
REMARK    1  A    between atoms: C_1  and  C_2
REMARK    2  A    between atoms: C_2  and  C_4
REMARK    3  A    between atoms: C_2  and  N_10
REMARK    4  A    between atoms: C_30  and  C_32
REMARK    5  A    between atoms: C_34  and  O_40
REMARK    6  A    between atoms: C_37  and  O_38
REMARK    7  A    between atoms: O_38  and  C_39
REMARK    8  A    between atoms: O_40  and  C_41
REMARK                            x       y       z     vdW  Elec       q    Type
REMARK                         _______ _______ _______ _____ _____    ______ ____
ROOT
ATOM      1  N   UNL     1      -1.448  -0.153   0.147  0.00  0.00    -0.284 N 
ATOM      2  C   UNL     1      -2.205   0.599   1.165  0.00  0.00    +0.204 C 
ATOM      3  C   UNL     1      -3.445   1.174   0.514  0.00  0.00    +0.234 C 
ATOM      4  O   UNL     1      -3.799   2.315   0.721  0.00  0.00    -0.274 OA
ATOM      5  N   UNL     1      -4.149   0.344  -0.324  0.00  0.00    -0.279 N 
ATOM      6  C   UNL     1      -3.655  -1.014  -0.413  0.00  0.00    +0.167 C 
ATOM      7  C   UNL     1      -2.167  -0.992  -0.656  0.00  0.00    +0.237 C 
ATOM      8  O   UNL     1      -1.642  -1.677  -1.508  0.00  0.00    -0.274 OA
ATOM      9  C   UNL     1      -4.370  -1.977  -1.325  0.00  0.00    +0.065 C 
ATOM     10  C   UNL     1      -5.373  -1.236  -2.166  0.00  0.00    -0.034 C 
ATOM     11  C   UNL     1      -5.714  -1.342  -3.443  0.00  0.00    -0.001 A 
ATOM     12  C   UNL     1      -5.266  -2.257  -4.505  0.00  0.00    +0.010 A 
ATOM     13  C   UNL     1      -5.828  -2.077  -5.730  0.00  0.00    +0.001 A 
ATOM     14  C   UNL     1      -6.779  -1.089  -6.001  0.00  0.00    +0.002 A 
ATOM     15  C   UNL     1      -7.252  -0.207  -5.085  0.00  0.00    +0.026 A 
ATOM     16  C   UNL     1      -6.739  -0.300  -3.758  0.00  0.00    +0.043 A 
ATOM     17  N   UNL     1      -7.018   0.397  -2.699  0.00  0.00    -0.375 N 
ATOM     18  C   UNL     1      -6.232  -0.122  -1.572  0.00  0.00    +0.131 C 
ATOM     19  C   UNL     1      -5.266   0.930  -1.051  0.00  0.00    +0.137 C 
ATOM     20  H   UNL     1      -7.641   1.139  -2.659  0.00  0.00    +0.160 HD
ENDROOT
BRANCH  19  21
ATOM     21  C   UNL     1      -4.733   1.684  -2.242  0.00  0.00    +0.020 A 
ATOM     22  C   UNL     1      -3.517   1.332  -2.795  0.00  0.00    +0.054 A 
ATOM     23  C   UNL     1      -3.027   2.025  -3.892  0.00  0.00    +0.121 A 
ATOM     24  C   UNL     1      -3.758   3.073  -4.433  0.00  0.00    +0.049 A 
ATOM     25  C   UNL     1      -4.974   3.425  -3.880  0.00  0.00    +0.049 A 
ATOM     26  C   UNL     1      -5.466   2.728  -2.787  0.00  0.00    +0.125 A 
BRANCH  26  27
ATOM     27  O   UNL     1      -6.666   3.071  -2.245  0.00  0.00    -0.495 OA
ATOM     28  C   UNL     1      -7.367   4.155  -2.857  0.00  0.00    +0.277 C 
ENDBRANCH  26  27
BRANCH  23  29
ATOM     29  O   UNL     1      -1.830   1.679  -4.436  0.00  0.00    -0.495 OA
ATOM     30  C   UNL     1      -1.387   2.436  -5.564  0.00  0.00    +0.277 C 
ENDBRANCH  23  29
ENDBRANCH  19  21
BRANCH   1  32
ATOM     31  C   UNL     1       0.349   1.478  -0.155  0.00  0.00    +0.033 C 
ATOM     32  C   UNL     1       0.002  -0.004   0.002  0.00  0.00    +0.104 C 
BRANCH  32  33
ATOM     33  C   UNL     1       0.689  -0.554   1.226  0.00  0.00    -0.027 A 
ATOM     34  C   UNL     1       1.748  -1.431   1.088  0.00  0.00    +0.005 A 
ATOM     35  C   UNL     1       2.378  -1.935   2.211  0.00  0.00    +0.000 A 
ATOM     36  C   UNL     1       1.949  -1.561   3.471  0.00  0.00    +0.000 A 
ATOM     37  C   UNL     1       0.890  -0.684   3.608  0.00  0.00    +0.000 A 
ATOM     38  C   UNL     1       0.263  -0.176   2.486  0.00  0.00    +0.005 A 
ENDBRANCH  32  33
ENDBRANCH   1  32
TORSDOF 5
