REMARK  Name = ZINC36595066
REMARK  15 active torsions:
REMARK  status: ('A' for Active; 'I' for Inactive)
REMARK    1  A    between atoms: C_1  and  C_2
REMARK    2  A    between atoms: C_2  and  C_3
REMARK    3  A    between atoms: C_3  and  C_4
REMARK    4  A    between atoms: C_4  and  N_5
REMARK    5  A    between atoms: C_6  and  C_8
REMARK    6  A    between atoms: C_8  and  C_10
REMARK    7  A    between atoms: C_8  and  N_18
REMARK    8  A    between atoms: C_13  and  C_17
REMARK    9  A    between atoms: C_15  and  C_16
REMARK   10  A    between atoms: N_18  and  C_19
REMARK   11  A    between atoms: C_19  and  C_20
REMARK   12  A    between atoms: C_23  and  C_25
REMARK   13  A    between atoms: C_26  and  C_28
REMARK   14  A    between atoms: C_30  and  N_37
REMARK   15  A    between atoms: C_32  and  N_34
REMARK                            x       y       z     vdW  Elec       q    Type
REMARK                         _______ _______ _______ _____ _____    ______ ____
ROOT
ATOM      1  N   UNL     1      -7.042  -4.938  -2.536  0.00  0.00    -0.275 N 
ATOM      2  C   UNL     1      -6.161  -5.156  -1.540  0.00  0.00    +0.248 C 
ATOM      3  O   UNL     1      -5.141  -5.781  -1.756  0.00  0.00    -0.270 OA
ENDROOT
BRANCH   2   4
ATOM      4  C   UNL     1      -6.435  -4.634  -0.184  0.00  0.00    +0.041 A 
ATOM      5  C   UNL     1      -7.744  -4.588   0.298  0.00  0.00    +0.046 A 
ATOM      6  C   UNL     1      -7.992  -4.100   1.565  0.00  0.00    +0.129 A 
ATOM      7  C   UNL     1      -6.947  -3.657   2.356  0.00  0.00    +0.065 A 
ATOM      8  C   UNL     1      -5.647  -3.700   1.884  0.00  0.00    +0.129 A 
ATOM      9  C   UNL     1      -5.385  -4.191   0.622  0.00  0.00    +0.046 A 
BRANCH   8  10
ATOM     10  N   UNL     1      -4.535  -3.224   2.738  0.00  0.00    +0.057 N 
ATOM     11  O   UNL     1      -4.764  -2.798   3.846  0.00  0.00    -0.126 OA
ATOM     12  O   UNL     1      -3.399  -3.262   2.327  0.00  0.00    -0.126 OA
ENDBRANCH   8  10
BRANCH   6  13
ATOM     13  N   UNL     1      -9.380  -4.050   2.078  0.00  0.00    +0.057 N 
ATOM     14  O   UNL     1     -10.294  -4.436   1.387  0.00  0.00    -0.126 OA
ATOM     15  O   UNL     1      -9.599  -3.623   3.187  0.00  0.00    -0.126 OA
ENDBRANCH   6  13
ENDBRANCH   2   4
BRANCH   1  16
ATOM     16  C   UNL     1      -8.197  -4.065  -2.314  0.00  0.00    +0.193 C 
BRANCH  16  17
ATOM     17  C   UNL     1      -8.229  -2.995  -3.375  0.00  0.00    -0.015 A 
ATOM     18  C   UNL     1      -8.989  -3.175  -4.516  0.00  0.00    +0.006 A 
ATOM     19  C   UNL     1      -9.018  -2.194  -5.489  0.00  0.00    +0.004 A 
ATOM     20  C   UNL     1      -8.288  -1.032  -5.321  0.00  0.00    -0.050 A 
ATOM     21  C   UNL     1      -7.529  -0.852  -4.180  0.00  0.00    +0.007 A 
ATOM     22  C   UNL     1      -7.503  -1.832  -3.205  0.00  0.00    -0.045 A 
ATOM     23  C   UNL     1      -6.680  -1.633  -1.958  0.00  0.00    +0.044 C 
ATOM     24  C   UNL     1      -8.319   0.037  -6.382  0.00  0.00    +0.044 C 
ENDBRANCH  16  17
BRANCH  16  26
ATOM     25  N   UNL     1     -10.660  -4.280  -2.231  0.00  0.00    -0.313 N 
ATOM     26  C   UNL     1      -9.463  -4.880  -2.384  0.00  0.00    +0.238 C 
ATOM     27  O   UNL     1      -9.405  -6.076  -2.579  0.00  0.00    -0.273 OA
ATOM     28  H   UNL     1     -10.705  -3.337  -2.005  0.00  0.00    +0.149 HD
BRANCH  25  29
ATOM     29  C   UNL     1     -11.894  -5.050  -2.406  0.00  0.00    +0.104 C 
BRANCH  29  30
ATOM     30  C   UNL     1     -13.101  -4.139  -2.178  0.00  0.00    +0.018 C 
BRANCH  30  32
ATOM     31  C   UNL     1     -15.597  -4.032  -2.132  0.00  0.00    +0.004 C 
ATOM     32  C   UNL     1     -14.390  -4.943  -2.360  0.00  0.00    -0.002 C 
ENDBRANCH  30  32
ENDBRANCH  29  30
ENDBRANCH  25  29
ENDBRANCH  16  26
ENDBRANCH   1  16
BRANCH   1  33
ATOM     33  C   UNL     1      -6.845  -5.575  -3.841  0.00  0.00    +0.183 C 
BRANCH  33  34
ATOM     34  C   UNL     1      -7.364  -6.989  -3.794  0.00  0.00    +0.122 A 
ATOM     35  C   UNL     1      -8.544  -7.410  -4.283  0.00  0.00    +0.046 A 
ATOM     36  C   UNL     1      -8.623  -8.798  -4.025  0.00  0.00    +0.045 A 
ATOM     37  C   UNL     1      -7.486  -9.142  -3.394  0.00  0.00    +0.102 A 
ATOM     38  O   UNL     1      -6.725  -8.043  -3.261  0.00  0.00    -0.463 OA
ATOM     39  C   UNL     1      -7.125 -10.526  -2.920  0.00  0.00    +0.086 C 
ENDBRANCH  33  34
ENDBRANCH   1  33
TORSDOF 11
