REMARK  Name = ZINC36500775
REMARK  18 active torsions:
REMARK  status: ('A' for Active; 'I' for Inactive)
REMARK    1  A    between atoms: C_1  and  C_2
REMARK    2  A    between atoms: C_2  and  C_4
REMARK    3  A    between atoms: C_2  and  C_10
REMARK    4  A    between atoms: C_10  and  C_12
REMARK    5  A    between atoms: C_10  and  N_23
REMARK    6  A    between atoms: N_14  and  C_15
REMARK    7  A    between atoms: C_15  and  C_16
REMARK    8  A    between atoms: C_15  and  C_17
REMARK    9  A    between atoms: C_15  and  C_18
REMARK   10  A    between atoms: C_18  and  C_19
REMARK   11  A    between atoms: C_19  and  C_20
REMARK   12  A    between atoms: C_19  and  C_21
REMARK   13  A    between atoms: C_19  and  C_22
REMARK   14  A    between atoms: N_23  and  C_24
REMARK   15  A    between atoms: C_24  and  C_25
REMARK   16  A    between atoms: C_30  and  C_32
REMARK   17  A    between atoms: C_36  and  O_39
REMARK   18  A    between atoms: C_37  and  O_38
REMARK                            x       y       z     vdW  Elec       q    Type
REMARK                         _______ _______ _______ _____ _____    ______ ____
ROOT
ATOM      1  C   UNL     1      -1.366  -1.597   0.221  0.00  0.00    +0.170 C 
ENDROOT
BRANCH   1   2
ATOM      2  C   UNL     1      -0.613  -2.845  -0.164  0.00  0.00    +0.235 C 
ATOM      3  O   UNL     1      -0.322  -3.044  -1.325  0.00  0.00    -0.274 OA
ATOM      4  N   UNL     1      -0.262  -3.739   0.781  0.00  0.00    -0.309 N 
ATOM      5  H   UNL     1      -0.528  -3.599   1.704  0.00  0.00    +0.149 HD
BRANCH   4   6
ATOM      6  C   UNL     1       0.519  -4.923   0.416  0.00  0.00    +0.030 C 
ATOM      7  C   UNL     1      -0.406  -5.975  -0.199  0.00  0.00    +0.031 C 
ATOM      8  C   UNL     1       1.593  -4.531  -0.601  0.00  0.00    +0.031 C 
BRANCH   6   9
ATOM      9  C   UNL     1       1.186  -5.500   1.666  0.00  0.00    +0.031 C 
BRANCH   9  10
ATOM     10  C   UNL     1       1.897  -4.379   2.428  0.00  0.00    -0.036 C 
ATOM     11  C   UNL     1       1.157  -3.059   2.201  0.00  0.00    +0.010 C 
ATOM     12  C   UNL     1       1.909  -4.706   3.923  0.00  0.00    +0.010 C 
ATOM     13  C   UNL     1       3.335  -4.250   1.922  0.00  0.00    +0.010 C 
ENDBRANCH   9  10
ENDBRANCH   6   9
ENDBRANCH   4   6
ENDBRANCH   1   2
BRANCH   1  14
ATOM     14  N   UNL     1      -1.397  -0.675  -0.917  0.00  0.00    -0.278 N 
ATOM     15  C   UNL     1      -0.855   0.553  -0.804  0.00  0.00    +0.251 C 
ATOM     16  O   UNL     1      -0.356   0.903   0.248  0.00  0.00    -0.270 OA
BRANCH  15  17
ATOM     17  C   UNL     1      -0.868   1.474  -1.957  0.00  0.00    +0.082 A 
ATOM     18  C   UNL     1      -1.946   1.472  -2.846  0.00  0.00    +0.017 A 
ATOM     19  C   UNL     1      -1.954   2.333  -3.921  0.00  0.00    +0.005 A 
ATOM     20  C   UNL     1      -0.898   3.205  -4.128  0.00  0.00    +0.049 A 
ATOM     21  C   UNL     1       0.178   3.219  -3.256  0.00  0.00    +0.159 A 
ATOM     22  C   UNL     1       0.198   2.359  -2.162  0.00  0.00    +0.171 A 
BRANCH  22  23
ATOM     23  O   UNL     1       1.248   2.373  -1.302  0.00  0.00    -0.503 OA
ATOM     24  H   UNL     1       1.962   1.769  -1.543  0.00  0.00    +0.292 HD
ENDBRANCH  22  23
BRANCH  21  25
ATOM     25  O   UNL     1       1.212   4.077  -3.466  0.00  0.00    -0.503 OA
ATOM     26  H   UNL     1       1.104   4.936  -3.034  0.00  0.00    +0.292 HD
ENDBRANCH  21  25
ENDBRANCH  15  17
BRANCH  14  27
ATOM     27  C   UNL     1      -2.018  -1.089  -2.178  0.00  0.00    +0.183 C 
BRANCH  27  28
ATOM     28  C   UNL     1      -3.465  -1.434  -1.936  0.00  0.00    +0.122 A 
ATOM     29  C   UNL     1      -4.496  -0.572  -1.974  0.00  0.00    +0.046 A 
ATOM     30  C   UNL     1      -5.664  -1.317  -1.690  0.00  0.00    +0.041 A 
ATOM     31  C   UNL     1      -5.276  -2.590  -1.496  0.00  0.00    +0.195 A 
ATOM     32  O   UNL     1      -3.944  -2.656  -1.652  0.00  0.00    -0.466 OA
ENDBRANCH  27  28
ENDBRANCH  14  27
ENDBRANCH   1  14
BRANCH   1  34
ATOM     33  C   UNL     1      -3.569  -0.698   0.981  0.00  0.00    +0.015 C 
ATOM     34  C   UNL     1      -2.797  -1.968   0.617  0.00  0.00    +0.045 C 
BRANCH  34  35
ATOM     35  C   UNL     1      -2.765  -2.895   1.804  0.00  0.00    -0.042 A 
ATOM     36  C   UNL     1      -2.146  -2.498   2.975  0.00  0.00    +0.004 A 
ATOM     37  C   UNL     1      -2.117  -3.349   4.064  0.00  0.00    +0.000 A 
ATOM     38  C   UNL     1      -2.708  -4.596   3.983  0.00  0.00    +0.000 A 
ATOM     39  C   UNL     1      -3.327  -4.992   2.813  0.00  0.00    +0.000 A 
ATOM     40  C   UNL     1      -3.360  -4.140   1.725  0.00  0.00    +0.004 A 
ENDBRANCH  34  35
ENDBRANCH   1  34
TORSDOF 12
