REMARK  Name = ZINC09102082
REMARK  4 active torsions:
REMARK  status: ('A' for Active; 'I' for Inactive)
REMARK    1  A    between atoms: C_7  and  C_15
REMARK    2  A    between atoms: N_17  and  C_18
REMARK    3  A    between atoms: C_18  and  C_19
REMARK    4  A    between atoms: N_22  and  C_26
REMARK                            x       y       z     vdW  Elec       q    Type
REMARK                         _______ _______ _______ _____ _____    ______ ____
ROOT
ATOM      1  C   UNL     1       3.067   3.883   1.382  0.00  0.00    +0.225 C 
ATOM      2  O   UNL     1       2.490   3.309   2.281  0.00  0.00    -0.275 OA
ATOM      3  N   UNL     1       4.246   4.493   1.619  0.00  0.00    -0.311 N 
ATOM      4  H   UNL     1       4.707   4.953   0.900  0.00  0.00    +0.149 HD
ENDROOT
BRANCH   1  11
ATOM      5  C   UNL     1      -0.013   1.076   0.008  0.00  0.00    +0.001 A 
ATOM      6  C   UNL     1      -1.220   1.751   0.017  0.00  0.00    +0.004 A 
ATOM      7  C   UNL     1      -1.238   3.131   0.030  0.00  0.00    +0.046 A 
ATOM      8  C   UNL     1      -0.045   3.845   0.025  0.00  0.00    +0.133 A 
ATOM      9  C   UNL     1       1.162   3.167   0.009  0.00  0.00    +0.011 A 
ATOM     10  C   UNL     1       1.174   1.782   0.000  0.00  0.00    +0.008 A 
ATOM     11  C   UNL     1       2.467   3.916   0.000  0.00  0.00    +0.142 C 
ATOM     12  C   UNL     1       2.252   5.346  -0.414  0.00  0.00    +0.011 A 
ATOM     13  C   UNL     1       3.333   6.098  -0.840  0.00  0.00    +0.008 A 
ATOM     14  C   UNL     1       3.158   7.414  -1.223  0.00  0.00    +0.001 A 
ATOM     15  C   UNL     1       1.899   7.984  -1.183  0.00  0.00    +0.004 A 
ATOM     16  C   UNL     1       0.817   7.239  -0.760  0.00  0.00    +0.046 A 
ATOM     17  C   UNL     1       0.990   5.914  -0.374  0.00  0.00    +0.133 A 
ATOM     18  O   UNL     1      -0.085   5.199   0.036  0.00  0.00    -0.455 OA
ENDBRANCH   1  11
BRANCH   3  19
ATOM     19  C   UNL     1       4.830   4.462   2.962  0.00  0.00    +0.150 C 
BRANCH  19  20
ATOM     20  C   UNL     1       6.157   5.223   2.959  0.00  0.00    +0.213 C 
ATOM     21  C   UNL     1       6.793   5.205   4.363  0.00  0.00    +0.163 C 
ATOM     22  N   UNL     1       8.072   4.508   4.159  0.00  0.00    -0.234 N 
ATOM     23  C   UNL     1       8.181   4.170   2.867  0.00  0.00    +0.408 C 
ATOM     24  O   UNL     1       9.143   3.581   2.414  0.00  0.00    -0.226 OA
ATOM     25  O   UNL     1       7.134   4.541   2.120  0.00  0.00    -0.444 OA
BRANCH  22  26
ATOM     26  C   UNL     1       9.021   4.241   5.153  0.00  0.00    +0.041 A 
ATOM     27  C   UNL     1       8.793   4.649   6.460  0.00  0.00    +0.025 A 
ATOM     28  C   UNL     1       9.727   4.380   7.441  0.00  0.00    +0.023 A 
ATOM     29  C   UNL     1      10.897   3.713   7.119  0.00  0.00    +0.059 A 
ATOM     30  C   UNL     1      11.130   3.310   5.815  0.00  0.00    +0.061 A 
ATOM     31  C   UNL     1      10.195   3.572   4.832  0.00  0.00    +0.045 A 
ATOM     32 CL   UNL     1      12.598   2.473   5.415  0.00  0.00    -0.082 Cl
ATOM     33 CL   UNL     1      12.073   3.383   8.352  0.00  0.00    -0.082 Cl
ENDBRANCH  22  26
ENDBRANCH  19  20
ENDBRANCH   3  19
TORSDOF 4
