REMARK  Name = ZINC63426846
REMARK  14 active torsions:
REMARK  status: ('A' for Active; 'I' for Inactive)
REMARK    1  A    between atoms: C_1  and  C_2
REMARK    2  A    between atoms: C_2  and  C_3
REMARK    3  A    between atoms: C_2  and  C_4
REMARK    4  A    between atoms: C_4  and  O_5
REMARK    5  A    between atoms: O_5  and  C_6
REMARK    6  A    between atoms: N_8  and  C_9
REMARK    7  A    between atoms: C_9  and  C_11
REMARK    8  A    between atoms: C_9  and  C_21
REMARK    9  A    between atoms: C_11  and  C_12
REMARK   10  A    between atoms: N_23  and  N_24
REMARK   11  A    between atoms: C_25  and  C_26
REMARK   12  A    between atoms: C_29  and  N_32
REMARK   13  A    between atoms: N_32  and  C_33
REMARK   14  A    between atoms: N_32  and  C_34
REMARK                            x       y       z     vdW  Elec       q    Type
REMARK                         _______ _______ _______ _____ _____    ______ ____
ROOT
ATOM      1  C   UNL     1      -3.960  -4.608  -0.243  0.00  0.00    +0.168 C 
ENDROOT
BRANCH   1   4
ATOM      2  C   UNL     1      -2.608  -2.584  -0.120  0.00  0.00    +0.401 C 
ATOM      3  O   UNL     1      -3.634  -1.940  -0.022  0.00  0.00    -0.226 OA
ATOM      4  N   UNL     1      -2.663  -3.926  -0.235  0.00  0.00    -0.269 N 
ATOM      5  H   UNL     1      -1.844  -4.440  -0.313  0.00  0.00    +0.153 HD
BRANCH   2   6
ATOM      6  O   UNL     1      -1.417  -1.957  -0.112  0.00  0.00    -0.450 OA
BRANCH   6   7
ATOM      7  C   UNL     1      -1.433  -0.534   0.013  0.00  0.00    +0.236 C 
BRANCH   7   9
ATOM      8  C   UNL     1      -0.019   1.526   0.010  0.00  0.00    +0.010 C 
ATOM      9  C   UNL     1       0.002  -0.004   0.002  0.00  0.00    +0.021 C 
ATOM     10  C   UNL     1       0.742  -0.511   1.242  0.00  0.00    +0.010 C 
ENDBRANCH   7   9
ENDBRANCH   6   7
ENDBRANCH   2   6
ENDBRANCH   1   4
BRANCH   1  11
ATOM     11  C   UNL     1      -3.783  -6.028   0.229  0.00  0.00    +0.253 C 
ATOM     12  O   UNL     1      -2.683  -6.431   0.541  0.00  0.00    -0.272 OA
ATOM     13  N   UNL     1      -4.848  -6.850   0.304  0.00  0.00    -0.205 N 
ATOM     14  H   UNL     1      -5.729  -6.528   0.054  0.00  0.00    +0.177 HD
BRANCH  13  15
ATOM     15  N   UNL     1      -4.684  -8.171   0.743  0.00  0.00    -0.188 NA
ATOM     16  C   UNL     1      -5.710  -8.963   0.815  0.00  0.00    +0.138 C 
BRANCH  16  17
ATOM     17  C   UNL     1      -5.537 -10.352   1.276  0.00  0.00    -0.005 A 
ATOM     18  C   UNL     1      -4.271 -10.816   1.642  0.00  0.00    +0.011 A 
ATOM     19  C   UNL     1      -4.113 -12.115   2.074  0.00  0.00    +0.024 A 
ATOM     20  C   UNL     1      -5.212 -12.964   2.145  0.00  0.00    +0.029 A 
ATOM     21  C   UNL     1      -6.474 -12.506   1.781  0.00  0.00    +0.024 A 
ATOM     22  C   UNL     1      -6.641 -11.207   1.355  0.00  0.00    +0.011 A 
BRANCH  20  23
ATOM     23  N   UNL     1      -5.049 -14.278   2.582  0.00  0.00    -0.336 N 
ATOM     24  C   UNL     1      -3.721 -14.763   2.965  0.00  0.00    +0.129 C 
ATOM     25  C   UNL     1      -6.206 -15.174   2.657  0.00  0.00    +0.129 C 
ENDBRANCH  20  23
ENDBRANCH  16  17
ENDBRANCH  13  15
ENDBRANCH   1  11
BRANCH   1  26
ATOM     26  C   UNL     1      -4.527  -4.609  -1.664  0.00  0.00    +0.065 C 
BRANCH  26  27
ATOM     27  C   UNL     1      -4.818  -3.193  -2.090  0.00  0.00    -0.039 C 
ATOM     28  C   UNL     1      -4.011  -2.377  -2.806  0.00  0.00    -0.001 A 
ATOM     29  C   UNL     1      -2.672  -2.555  -3.378  0.00  0.00    +0.010 A 
ATOM     30  C   UNL     1      -2.108  -1.532  -4.059  0.00  0.00    +0.001 A 
ATOM     31  C   UNL     1      -2.769  -0.308  -4.231  0.00  0.00    +0.002 A 
ATOM     32  C   UNL     1      -4.001  -0.068  -3.734  0.00  0.00    +0.026 A 
ATOM     33  C   UNL     1      -4.688  -1.075  -3.001  0.00  0.00    +0.043 A 
ATOM     34  N   UNL     1      -5.868  -1.086  -2.429  0.00  0.00    -0.380 N 
ATOM     35  C   UNL     1      -6.075  -2.400  -1.810  0.00  0.00    +0.144 C 
ATOM     36  H   UNL     1      -6.499  -0.350  -2.419  0.00  0.00    +0.160 HD
ENDBRANCH  26  27
ENDBRANCH   1  26
TORSDOF 10
