REMARK  Name = ZINC21604161
REMARK  9 active torsions:
REMARK  status: ('A' for Active; 'I' for Inactive)
REMARK    1  A    between atoms: C_1  and  C_2
REMARK    2  A    between atoms: C_2  and  C_3
REMARK    3  A    between atoms: C_3  and  C_5
REMARK    4  A    between atoms: C_3  and  C_6
REMARK    5  A    between atoms: C_9  and  N_12
REMARK    6  A    between atoms: C_22  and  S_23
REMARK    7  A    between atoms: S_23  and  C_24
REMARK    8  A    between atoms: C_24  and  C_26
REMARK    9  A    between atoms: C_24  and  C_27
REMARK                            x       y       z     vdW  Elec       q    Type
REMARK                         _______ _______ _______ _____ _____    ______ ____
ROOT
ATOM      1  N   UNL     1      -2.429   1.040   0.019  0.00  0.00    -0.255 N 
ATOM      2  C   UNL     1      -2.410  -0.308  -0.096  0.00  0.00    +0.267 A 
ATOM      3  O   UNL     1      -1.361  -0.918  -0.202  0.00  0.00    -0.267 OA
ATOM      4  C   UNL     1      -3.700  -1.010  -0.085  0.00  0.00    +0.065 A 
ATOM      5  C   UNL     1      -3.782  -2.398  -0.192  0.00  0.00    +0.017 A 
ATOM      6  C   UNL     1      -5.006  -3.006  -0.181  0.00  0.00    +0.021 A 
ATOM      7  C   UNL     1      -6.171  -2.256  -0.064  0.00  0.00    +0.043 A 
ATOM      8  C   UNL     1      -6.118  -0.883   0.044  0.00  0.00    +0.048 A 
ATOM      9  C   UNL     1      -4.878  -0.239   0.036  0.00  0.00    +0.080 A 
ATOM     10  N   UNL     1      -4.778   1.107   0.140  0.00  0.00    -0.223 NA
ATOM     11  C   UNL     1      -3.615   1.710   0.132  0.00  0.00    +0.177 A 
ATOM     12 CL   UNL     1      -7.711  -3.058  -0.054  0.00  0.00    -0.083 Cl
ENDROOT
BRANCH   1  16
ATOM     13  C   UNL     1       1.159   3.161   0.013  0.00  0.00    -0.044 A 
ATOM     14  C   UNL     1       0.624   2.713   1.207  0.00  0.00    +0.006 A 
ATOM     15  C   UNL     1      -0.567   2.013   1.213  0.00  0.00    +0.026 A 
ATOM     16  C   UNL     1      -1.224   1.754   0.017  0.00  0.00    +0.052 A 
ATOM     17  C   UNL     1      -0.687   2.209  -1.179  0.00  0.00    +0.026 A 
ATOM     18  C   UNL     1       0.504   2.910  -1.178  0.00  0.00    +0.006 A 
BRANCH  13  19
ATOM     19  C   UNL     1       2.458   3.925   0.011  0.00  0.00    +0.016 C 
ATOM     20  C   UNL     1       2.231   5.315  -0.587  0.00  0.00    +0.012 C 
BRANCH  19  22
ATOM     21  C   UNL     1       4.843   3.880  -0.730  0.00  0.00    +0.004 C 
ATOM     22  C   UNL     1       3.491   3.171  -0.829  0.00  0.00    +0.004 C 
ENDBRANCH  19  22
ENDBRANCH  13  19
ENDBRANCH   1  16
BRANCH  11  23
ATOM     23  S   UNL     1      -3.578   3.466   0.272  0.00  0.00    -0.075 S 
BRANCH  23  24
ATOM     24  C   UNL     1      -5.351   3.810   0.388  0.00  0.00    +0.137 C 
ATOM     25  C   UNL     1      -6.034   3.416  -0.924  0.00  0.00    +0.029 C 
BRANCH  24  26
ATOM     26  C   UNL     1      -5.563   5.281   0.641  0.00  0.00    +0.236 C 
ATOM     27  O   UNL     1      -4.720   6.082   0.299  0.00  0.00    -0.274 OA
ATOM     28  N   UNL     1      -6.688   5.705   1.250  0.00  0.00    -0.224 N 
ATOM     29  C   UNL     1      -7.013   7.105   1.560  0.00  0.00    +0.136 C 
ATOM     30  C   UNL     1      -8.395   7.021   2.239  0.00  0.00    +0.125 C 
ATOM     31  N   UNL     1      -8.697   5.582   2.247  0.00  0.00    -0.297 N 
ATOM     32  C   UNL     1      -7.686   4.917   1.672  0.00  0.00    +0.309 C 
ATOM     33  O   UNL     1      -7.675   3.708   1.545  0.00  0.00    -0.252 OA
ATOM     34  H   UNL     1      -9.639   5.220   2.684  0.00  0.00    +0.150 HD
ENDBRANCH  24  26
ENDBRANCH  23  24
ENDBRANCH  11  23
TORSDOF 6
