REMARK  Name = ZINC35089573
REMARK  10 active torsions:
REMARK  status: ('A' for Active; 'I' for Inactive)
REMARK    1  A    between atoms: C_1  and  C_2
REMARK    2  A    between atoms: C_2  and  C_4
REMARK    3  A    between atoms: C_2  and  N_25
REMARK    4  A    between atoms: N_14  and  C_15
REMARK    5  A    between atoms: N_25  and  C_26
REMARK    6  A    between atoms: C_26  and  C_27
REMARK    7  A    between atoms: C_27  and  N_28
REMARK    8  A    between atoms: N_28  and  C_29
REMARK    9  A    between atoms: N_28  and  C_30
REMARK   10  A    between atoms: C_31  and  C_33
REMARK                            x       y       z     vdW  Elec       q    Type
REMARK                         _______ _______ _______ _____ _____    ______ ____
ROOT
ATOM      1  C   UNL     1       0.392  -1.577  -1.413  0.00  0.00    +0.138 A 
ATOM      2  N   UNL     1      -0.539  -2.474  -1.286  0.00  0.00    -0.231 NA
ATOM      3  C   UNL     1      -0.617  -3.541  -2.119  0.00  0.00    +0.078 A 
ATOM      4  C   UNL     1      -1.618  -4.505  -1.983  0.00  0.00    +0.028 A 
ATOM      5  C   UNL     1      -1.660  -5.573  -2.851  0.00  0.00    +0.002 A 
ATOM      6  C   UNL     1      -0.717  -5.705  -3.862  0.00  0.00    +0.001 A 
ATOM      7  C   UNL     1       0.281  -4.767  -4.017  0.00  0.00    +0.015 A 
ATOM      8  C   UNL     1       0.340  -3.678  -3.149  0.00  0.00    +0.065 A 
ATOM      9  C   UNL     1       1.381  -2.647  -3.266  0.00  0.00    +0.266 A 
ATOM     10  O   UNL     1       2.235  -2.706  -4.132  0.00  0.00    -0.267 OA
ATOM     11  N   UNL     1       1.350  -1.626  -2.378  0.00  0.00    -0.263 N 
ENDROOT
BRANCH  11  12
ATOM     12  C   UNL     1       2.315  -0.614  -2.449  0.00  0.00    +0.052 A 
ATOM     13  C   UNL     1       3.530  -0.767  -1.772  0.00  0.00    +0.027 A 
ATOM     14  C   UNL     1       4.485   0.199  -1.823  0.00  0.00    +0.010 A 
ATOM     15  C   UNL     1       4.257   1.371  -2.565  0.00  0.00    -0.018 A 
ATOM     16  C   UNL     1       5.226   2.386  -2.637  0.00  0.00    +0.008 A 
ATOM     17  C   UNL     1       4.974   3.508  -3.364  0.00  0.00    +0.001 A 
ATOM     18  C   UNL     1       3.767   3.669  -4.042  0.00  0.00    +0.001 A 
ATOM     19  C   UNL     1       2.805   2.707  -3.996  0.00  0.00    +0.008 A 
ATOM     20  C   UNL     1       3.029   1.534  -3.255  0.00  0.00    -0.016 A 
ATOM     21  C   UNL     1       2.061   0.518  -3.190  0.00  0.00    +0.034 A 
ENDBRANCH  11  12
BRANCH   1  23
ATOM     22  C   UNL     1      -0.591   0.642  -0.906  0.00  0.00    +0.036 C 
ATOM     23  C   UNL     1       0.408  -0.421  -0.446  0.00  0.00    +0.140 C 
BRANCH  23  24
ATOM     24  N   UNL     1       0.037  -0.896   0.889  0.00  0.00    -0.290 N 
ATOM     25  C   UNL     1       0.944  -0.880   1.886  0.00  0.00    +0.247 C 
ATOM     26  O   UNL     1       2.026  -0.353   1.715  0.00  0.00    -0.270 OA
BRANCH  25  27
ATOM     27  C   UNL     1       0.623  -1.505   3.187  0.00  0.00    +0.037 A 
ATOM     28  C   UNL     1      -0.583  -1.214   3.826  0.00  0.00    +0.013 A 
ATOM     29  C   UNL     1      -0.877  -1.800   5.039  0.00  0.00    +0.001 A 
ATOM     30  C   UNL     1       0.022  -2.675   5.624  0.00  0.00    +0.000 A 
ATOM     31  C   UNL     1       1.220  -2.968   4.996  0.00  0.00    +0.001 A 
ATOM     32  C   UNL     1       1.523  -2.393   3.779  0.00  0.00    +0.013 A 
ENDBRANCH  25  27
BRANCH  24  33
ATOM     33  C   UNL     1      -1.320  -1.387   1.141  0.00  0.00    +0.090 C 
BRANCH  33  34
ATOM     34  C   UNL     1      -2.263  -0.200   1.341  0.00  0.00    -0.060 C 
BRANCH  34  35
ATOM     35  N   UNL     1      -3.170  -0.478   2.462  0.00  0.00    +0.377 N 
ATOM     36  C   UNL     1      -3.950   0.727   2.772  0.00  0.00    -0.097 C 
ATOM     37  C   UNL     1      -4.081  -1.571   2.096  0.00  0.00    -0.097 C 
ATOM     38  H   UNL     1      -2.631  -0.747   3.272  0.00  0.00    -0.083 HD
ENDBRANCH  34  35
ENDBRANCH  33  34
ENDBRANCH  24  33
ENDBRANCH  23  24
ENDBRANCH   1  23
TORSDOF 7
