REMARK  Name = ZINC35938780
REMARK  10 active torsions:
REMARK  status: ('A' for Active; 'I' for Inactive)
REMARK    1  A    between atoms: C_1  and  C_2
REMARK    2  A    between atoms: C_2  and  C_3
REMARK    3  A    between atoms: C_3  and  C_4
REMARK    4  A    between atoms: C_4  and  C_5
REMARK    5  A    between atoms: C_8  and  C_11
REMARK    6  A    between atoms: C_19  and  C_21
REMARK    7  A    between atoms: C_21  and  C_23
REMARK    8  A    between atoms: C_21  and  N_24
REMARK    9  A    between atoms: C_32  and  C_34
REMARK   10  A    between atoms: C_39  and  C_40
REMARK                            x       y       z     vdW  Elec       q    Type
REMARK                         _______ _______ _______ _____ _____    ______ ____
ROOT
ATOM      1  C   UNL     1      -6.706  -4.123  -0.007  0.00  0.00    +0.247 C 
ATOM      2  O   UNL     1      -7.210  -4.454   1.048  0.00  0.00    -0.270 OA
ATOM      3  N   UNL     1      -7.407  -4.234  -1.153  0.00  0.00    -0.295 N 
ATOM      4  C   UNL     1      -6.771  -3.956  -2.449  0.00  0.00    +0.127 C 
ATOM      5  C   UNL     1      -6.947  -5.181  -3.354  0.00  0.00    +0.126 C 
ATOM      6  N   UNL     1      -8.360  -5.583  -3.331  0.00  0.00    -0.300 N 
ATOM      7  C   UNL     1      -8.996  -5.862  -2.035  0.00  0.00    +0.126 C 
ATOM      8  C   UNL     1      -8.818  -4.642  -1.130  0.00  0.00    +0.127 C 
ATOM      9  C   UNL     1      -9.061  -5.695  -4.477  0.00  0.00    +0.202 C 
ATOM     10  O   UNL     1      -8.504  -5.552  -5.545  0.00  0.00    -0.277 OA
ENDROOT
BRANCH   1  14
ATOM     11  C   UNL     1      -2.735  -2.619  -0.085  0.00  0.00    -0.047 A 
ATOM     12  C   UNL     1      -3.087  -3.586   0.839  0.00  0.00    +0.004 A 
ATOM     13  C   UNL     1      -4.375  -4.079   0.870  0.00  0.00    +0.013 A 
ATOM     14  C   UNL     1      -5.324  -3.599  -0.034  0.00  0.00    +0.037 A 
ATOM     15  C   UNL     1      -4.962  -2.623  -0.964  0.00  0.00    +0.013 A 
ATOM     16  C   UNL     1      -3.672  -2.134  -0.980  0.00  0.00    +0.004 A 
BRANCH  11  17
ATOM     17  C   UNL     1      -1.325  -2.085  -0.112  0.00  0.00    +0.035 C 
BRANCH  17  18
ATOM     18  C   UNL     1      -1.219  -0.878   0.822  0.00  0.00    +0.004 C 
BRANCH  18  20
ATOM     19  C   UNL     1       0.318   0.872   1.728  0.00  0.00    +0.004 C 
ATOM     20  C   UNL     1       0.212  -0.336   0.794  0.00  0.00    -0.003 C 
ENDBRANCH  18  20
ENDBRANCH  17  18
ENDBRANCH  11  17
ENDBRANCH   1  14
BRANCH   9  21
ATOM     21  C   UNL     1     -10.537  -5.996  -4.431  0.00  0.00    +0.018 C 
ATOM     22  C   UNL     1     -10.744  -7.504  -4.277  0.00  0.00    -0.004 C 
BRANCH  21  23
ATOM     23  N   UNL     1     -11.168  -5.540  -5.677  0.00  0.00    +0.395 N 
ATOM     24  C   UNL     1     -10.698  -6.373  -6.791  0.00  0.00    -0.071 C 
ATOM     25  C   UNL     1     -11.089  -5.699  -8.117  0.00  0.00    +0.024 C 
ATOM     26  C   UNL     1     -12.524  -5.296  -8.010  0.00  0.00    -0.010 A 
ATOM     27  C   UNL     1     -13.269  -5.250  -6.870  0.00  0.00    -0.047 A 
ATOM     28  C   UNL     1     -14.595  -4.848  -7.009  0.00  0.00    +0.010 A 
ATOM     29  C   UNL     1     -15.079  -4.525  -8.231  0.00  0.00    +0.045 A 
ATOM     30  S   UNL     1     -13.650  -4.778  -9.274  0.00  0.00    -0.101 S 
ATOM     31  C   UNL     1     -12.627  -5.628  -5.539  0.00  0.00    -0.005 C 
ATOM     32  H   UNL     1     -10.909  -4.580  -5.848  0.00  0.00    -0.079 HD
BRANCH  31  33
ATOM     33  C   UNL     1     -13.092  -4.678  -4.465  0.00  0.00    -0.054 A 
ATOM     34  C   UNL     1     -12.382  -3.518  -4.214  0.00  0.00    +0.002 A 
ATOM     35  C   UNL     1     -12.808  -2.647  -3.230  0.00  0.00    +0.000 A 
ATOM     36  C   UNL     1     -13.944  -2.935  -2.496  0.00  0.00    +0.000 A 
ATOM     37  C   UNL     1     -14.654  -4.094  -2.748  0.00  0.00    +0.003 A 
ATOM     38  C   UNL     1     -14.230  -4.963  -3.736  0.00  0.00    -0.049 A 
ATOM     39  C   UNL     1     -15.007  -6.225  -4.013  0.00  0.00    +0.044 C 
ENDBRANCH  31  33
ENDBRANCH  21  23
ENDBRANCH   9  21
TORSDOF 7
