REMARK  Name = ZINC61594782
REMARK  10 active torsions:
REMARK  status: ('A' for Active; 'I' for Inactive)
REMARK    1  A    between atoms: C_1  and  C_2
REMARK    2  A    between atoms: C_2  and  C_3
REMARK    3  A    between atoms: C_3  and  N_4
REMARK    4  A    between atoms: C_10  and  S_11
REMARK    5  A    between atoms: S_11  and  C_12
REMARK    6  A    between atoms: C_12  and  C_14
REMARK    7  A    between atoms: C_12  and  C_21
REMARK    8  A    between atoms: C_17  and  C_20
REMARK    9  A    between atoms: C_21  and  C_23
REMARK   10  A    between atoms: C_21  and  N_24
REMARK                            x       y       z     vdW  Elec       q    Type
REMARK                         _______ _______ _______ _____ _____    ______ ____
ROOT
ATOM      1  C   UNL     1      -1.306  -3.728   3.876  0.00  0.00    +0.069 C 
ENDROOT
BRANCH   1   2
ATOM      2  C   UNL     1      -1.581  -3.468   5.335  0.00  0.00    -0.036 A 
ATOM      3  C   UNL     1      -0.742  -2.643   6.060  0.00  0.00    +0.005 A 
ATOM      4  C   UNL     1      -0.994  -2.405   7.398  0.00  0.00    +0.003 A 
ATOM      5  C   UNL     1      -2.085  -2.992   8.011  0.00  0.00    -0.050 A 
ATOM      6  C   UNL     1      -2.925  -3.816   7.285  0.00  0.00    +0.003 A 
ATOM      7  C   UNL     1      -2.675  -4.051   5.946  0.00  0.00    +0.005 A 
ATOM      8  C   UNL     1      -2.360  -2.733   9.470  0.00  0.00    +0.044 C 
ENDBRANCH   1   2
BRANCH   1   9
ATOM      9  C   UNL     1       0.069  -4.382   3.724  0.00  0.00    -0.060 C 
ATOM     10  C   UNL     1       0.320  -4.706   2.250  0.00  0.00    -0.013 C 
BRANCH   9  11
ATOM     11  N   UNL     1       0.110  -5.622   4.512  0.00  0.00    +0.381 N 
ATOM     12  H   UNL     1      -0.602  -6.255   4.180  0.00  0.00    -0.090 HD
ATOM     13  H   UNL     1       1.017  -6.053   4.412  0.00  0.00    -0.090 HD
ATOM     14  H   UNL     1      -0.056  -5.409   5.484  0.00  0.00    -0.090 HD
ENDBRANCH   9  11
ENDBRANCH   1   9
BRANCH   1  15
ATOM     15  S   UNL     1      -1.332  -2.158   2.967  0.00  0.00    -0.080 S 
BRANCH  15  22
ATOM     16  N   UNL     1      -3.516  -0.452   2.583  0.00  0.00    -0.271 N 
ATOM     17  C   UNL     1      -4.844  -0.430   2.811  0.00  0.00    +0.345 A 
ATOM     18  O   UNL     1      -5.609   0.475   2.527  0.00  0.00    -0.245 OA
ATOM     19  N   UNL     1      -5.174  -1.593   3.410  0.00  0.00    -0.226 N 
ATOM     20  H   UNL     1      -6.062  -1.861   3.693  0.00  0.00    +0.194 HD
ATOM     21  N   UNL     1      -3.998  -2.342   3.547  0.00  0.00    -0.145 NA
ATOM     22  C   UNL     1      -3.018  -1.650   3.043  0.00  0.00    +0.193 A 
BRANCH  16  23
ATOM     23  C   UNL     1      -2.737   0.614   1.949  0.00  0.00    +0.129 C 
BRANCH  23  25
ATOM     24  C   UNL     1      -1.890   1.504  -0.227  0.00  0.00    +0.005 C 
ATOM     25  C   UNL     1      -2.704   0.390   0.436  0.00  0.00    +0.018 C 
ENDBRANCH  23  25
ENDBRANCH  16  23
ENDBRANCH  15  22
ENDBRANCH   1  15
TORSDOF 7
