REMARK  Name = ZINC06194804
REMARK  9 active torsions:
REMARK  status: ('A' for Active; 'I' for Inactive)
REMARK    1  A    between atoms: C_1  and  C_2
REMARK    2  A    between atoms: C_2  and  O_3
REMARK    3  A    between atoms: O_3  and  C_4
REMARK    4  A    between atoms: C_4  and  C_6
REMARK    5  A    between atoms: C_11  and  C_13
REMARK    6  A    between atoms: C_11  and  C_28
REMARK    7  A    between atoms: C_11  and  N_67
REMARK    8  A    between atoms: N_32  and  C_33
REMARK    9  A    between atoms: C_33  and  C_34
REMARK                            x       y       z     vdW  Elec       q    Type
REMARK                         _______ _______ _______ _____ _____    ______ ____
ROOT
ATOM      1  C   UNL     1      -2.491   0.995   0.019  0.00  0.00    +0.039 C 
ENDROOT
BRANCH   1   2
ATOM      2  C   UNL     1      -1.189   1.753   0.017  0.00  0.00    +0.011 A 
ATOM      3  C   UNL     1      -0.013   1.076   0.008  0.00  0.00    +0.017 A 
ATOM      4  C   UNL     1       1.234   1.840   0.000  0.00  0.00    +0.002 A 
ATOM      5  C   UNL     1       2.477   1.194  -0.016  0.00  0.00    +0.059 A 
ATOM      6  C   UNL     1       3.635   1.940  -0.023  0.00  0.00    +0.167 A 
ATOM      7  C   UNL     1       3.572   3.340  -0.014  0.00  0.00    +0.168 A 
ATOM      8  C   UNL     1       2.349   3.985   0.001  0.00  0.00    +0.075 A 
ATOM      9  C   UNL     1       1.173   3.247   0.009  0.00  0.00    +0.053 A 
ATOM     10  N   UNL     1      -0.056   3.875   0.023  0.00  0.00    -0.322 N 
ATOM     11  H   UNL     1      -0.099   4.874   0.030  0.00  0.00    +0.169 HD
ATOM     12  C   UNL     1      -1.197   3.163   0.030  0.00  0.00    +0.251 A 
ATOM     13  O   UNL     1      -2.264   3.751   0.042  0.00  0.00    -0.268 OA
ATOM     14  O   UNL     1       4.845   3.829  -0.024  0.00  0.00    -0.453 OA
ATOM     15  C   UNL     1       5.676   2.735  -0.454  0.00  0.00    +0.466 C 
ATOM     16  O   UNL     1       4.948   1.565  -0.038  0.00  0.00    -0.453 OA
ENDBRANCH   1   2
BRANCH   1  22
ATOM     17  C   UNL     1      -4.750   1.149   3.646  0.00  0.00    +0.094 C 
ATOM     18  C   UNL     1      -5.471   1.288   2.303  0.00  0.00    -0.004 C 
ATOM     19  C   UNL     1      -4.589   0.711   1.194  0.00  0.00    -0.077 C 
ATOM     20  C   UNL     1      -2.577   1.270   2.423  0.00  0.00    -0.077 C 
ATOM     21  C   UNL     1      -3.399   1.865   3.568  0.00  0.00    -0.004 C 
ATOM     22  N   UNL     1      -3.314   1.459   1.155  0.00  0.00    +0.389 N 
ATOM     23  H   UNL     1      -3.518   2.458   1.034  0.00  0.00    -0.080 HD
BRANCH  17  24
ATOM     24  C   UNL     1      -5.588   1.768   4.735  0.00  0.00    +0.310 C 
ATOM     25  O   UNL     1      -6.653   2.271   4.465  0.00  0.00    -0.251 OA
BRANCH  24  26
ATOM     26  O   UNL     1      -5.151   1.762   6.004  0.00  0.00    -0.465 OA
BRANCH  26  28
ATOM     27  C   UNL     1      -5.350   2.275   8.376  0.00  0.00    +0.048 C 
ATOM     28  C   UNL     1      -6.010   2.377   7.000  0.00  0.00    +0.229 C 
ENDBRANCH  26  28
ENDBRANCH  24  26
ENDBRANCH  17  24
ENDBRANCH   1  22
BRANCH   1  29
ATOM     29  C   UNL     1      -3.233   1.269  -1.264  0.00  0.00    +0.143 A 
ATOM     30  N   UNL     1      -3.882   2.365  -1.574  0.00  0.00    -0.115 NA
ATOM     31  N   UNL     1      -4.378   2.213  -2.754  0.00  0.00    -0.023 NA
ATOM     32  N   UNL     1      -4.069   1.046  -3.201  0.00  0.00    -0.044 NA
ATOM     33  N   UNL     1      -3.364   0.433  -2.311  0.00  0.00    -0.228 N 
BRANCH  33  34
ATOM     34  C   UNL     1      -2.808  -0.918  -2.420  0.00  0.00    +0.178 C 
BRANCH  34  35
ATOM     35  C   UNL     1      -3.818  -1.930  -1.876  0.00  0.00    +0.140 C 
ATOM     36  C   UNL     1      -3.197  -3.344  -1.880  0.00  0.00    +0.035 C 
ATOM     37  C   UNL     1      -4.394  -4.229  -2.322  0.00  0.00    +0.031 C 
ATOM     38  C   UNL     1      -5.125  -3.271  -3.296  0.00  0.00    +0.160 C 
ATOM     39  O   UNL     1      -4.975  -1.963  -2.720  0.00  0.00    -0.375 OA
ENDBRANCH  34  35
ENDBRANCH  33  34
ENDBRANCH   1  29
TORSDOF 8
