REMARK  Name = ZINC13311655
REMARK  9 active torsions:
REMARK  status: ('A' for Active; 'I' for Inactive)
REMARK    1  A    between atoms: C_1  and  C_2
REMARK    2  A    between atoms: C_2  and  O_3
REMARK    3  A    between atoms: O_3  and  C_4
REMARK    4  A    between atoms: C_9  and  O_10
REMARK    5  A    between atoms: O_10  and  C_11
REMARK    6  A    between atoms: C_11  and  C_12
REMARK    7  A    between atoms: N_14  and  S_17
REMARK    8  A    between atoms: S_17  and  C_20
REMARK    9  A    between atoms: C_22  and  C_28
REMARK                            x       y       z     vdW  Elec       q    Type
REMARK                         _______ _______ _______ _____ _____    ______ ____
ROOT
ATOM      1  C   UNL     1      -1.031   1.273   3.626  0.00  0.00    +0.162 A 
ATOM      2  C   UNL     1      -0.440   0.882   2.439  0.00  0.00    +0.053 A 
ATOM      3  C   UNL     1      -0.704   1.565   1.257  0.00  0.00    -0.038 A 
ATOM      4  C   UNL     1      -1.568   2.637   1.270  0.00  0.00    -0.025 A 
ATOM      5  C   UNL     1      -2.162   3.036   2.459  0.00  0.00    +0.054 A 
ATOM      6  C   UNL     1      -1.898   2.361   3.638  0.00  0.00    +0.162 A 
ATOM      7  C   UNL     1      -1.909   3.412   0.021  0.00  0.00    +0.145 C 
ATOM      8  N   UNL     1      -1.003   3.023  -1.065  0.00  0.00    -0.172 NA
ATOM      9  C   UNL     1      -0.738   1.585  -1.240  0.00  0.00    +0.114 C 
ATOM     10  C   UNL     1      -0.013   1.086   0.008  0.00  0.00    +0.052 C 
ENDROOT
BRANCH   8  11
ATOM     11  S   UNL     1      -0.307   4.154  -2.054  0.00  0.00    +0.063 S 
ATOM     12  O   UNL     1      -0.289   5.374  -1.325  0.00  0.00    -0.153 OA
ATOM     13  O   UNL     1       0.874   3.563  -2.579  0.00  0.00    -0.153 OA
BRANCH  11  14
ATOM     14  C   UNL     1      -1.398   4.397  -3.416  0.00  0.00    +0.125 A 
ATOM     15  C   UNL     1      -2.014   5.618  -3.594  0.00  0.00    +0.046 A 
ATOM     16  C   UNL     1      -2.875   5.811  -4.677  0.00  0.00    +0.083 A 
ATOM     17  C   UNL     1      -3.114   4.761  -5.568  0.00  0.00    +0.057 A 
ATOM     18  C   UNL     1      -2.494   3.542  -5.375  0.00  0.00    +0.042 A 
ATOM     19  C   UNL     1      -1.638   3.360  -4.302  0.00  0.00    +0.069 A 
ATOM     20 CL   UNL     1      -0.863   1.825  -4.066  0.00  0.00    -0.081 Cl
ATOM     21 CL   UNL     1      -4.187   4.988  -6.913  0.00  0.00    -0.083 Cl
BRANCH  16  22
ATOM     22  C   UNL     1      -3.534   7.117  -4.876  0.00  0.00    +0.388 C 
ATOM     23  O   UNL     1      -4.285   7.280  -5.816  0.00  0.00    -0.241 OA
ATOM     24  O   UNL     1      -3.301   8.127  -4.015  0.00  0.00    -0.241 OA
ENDBRANCH  16  22
ENDBRANCH  11  14
ENDBRANCH   8  11
BRANCH   1  25
ATOM     25  O   UNL     1      -0.768   0.597   4.776  0.00  0.00    -0.489 OA
BRANCH  25  27
ATOM     26  C   UNL     1       0.304  -1.140   6.070  0.00  0.00    +0.048 C 
ATOM     27  C   UNL     1       0.132  -0.510   4.687  0.00  0.00    +0.226 C 
ENDBRANCH  25  27
ENDBRANCH   1  25
BRANCH   6  28
ATOM     28  O   UNL     1      -2.483   2.758   4.799  0.00  0.00    -0.489 OA
BRANCH  28  29
ATOM     29  C   UNL     1      -3.361   3.884   4.732  0.00  0.00    +0.226 C 
ATOM     30  C   UNL     1      -3.919   4.179   6.126  0.00  0.00    +0.048 C 
ENDBRANCH  28  29
ENDBRANCH   6  28
TORSDOF 7
