REMARK  Name = ZINC63140730
REMARK  7 active torsions:
REMARK  status: ('A' for Active; 'I' for Inactive)
REMARK    1  A    between atoms: C_1  and  C_2
REMARK    2  A    between atoms: C_2  and  O_3
REMARK    3  A    between atoms: O_3  and  C_4
REMARK    4  A    between atoms: C_9  and  C_10
REMARK    5  A    between atoms: N_29  and  C_32
REMARK    6  A    between atoms: C_32  and  C_33
REMARK    7  A    between atoms: C_33  and  C_34
REMARK                            x       y       z     vdW  Elec       q    Type
REMARK                         _______ _______ _______ _____ _____    ______ ____
ROOT
ATOM      1  C   UNL     1       1.990  -1.397  -3.491  0.00  0.00    +0.137 C 
ATOM      2  C   UNL     1       3.383  -0.955  -3.043  0.00  0.00    +0.131 C 
ATOM      3  C   UNL     1       4.301  -2.149  -3.296  0.00  0.00    -0.034 C 
ATOM      4  C   UNL     1       4.799  -2.504  -2.120  0.00  0.00    -0.001 A 
ATOM      5  C   UNL     1       5.754  -3.558  -1.739  0.00  0.00    +0.010 A 
ATOM      6  C   UNL     1       6.049  -3.649  -0.415  0.00  0.00    +0.001 A 
ATOM      7  C   UNL     1       5.497  -2.807   0.555  0.00  0.00    +0.002 A 
ATOM      8  C   UNL     1       4.613  -1.812   0.295  0.00  0.00    +0.026 A 
ATOM      9  C   UNL     1       4.226  -1.616  -1.063  0.00  0.00    +0.043 A 
ATOM     10  N   UNL     1       3.409  -0.728  -1.592  0.00  0.00    -0.375 N 
ATOM     11  C   UNL     1       4.477  -2.717  -4.678  0.00  0.00    +0.065 C 
ATOM     12  C   UNL     1       3.148  -2.756  -5.388  0.00  0.00    +0.167 C 
ATOM     13  N   UNL     1       2.025  -2.082  -4.775  0.00  0.00    -0.279 N 
ATOM     14  C   UNL     1       0.847  -2.147  -5.479  0.00  0.00    +0.234 C 
ATOM     15  O   UNL     1      -0.149  -1.565  -5.105  0.00  0.00    -0.274 OA
ATOM     16  C   UNL     1       0.851  -2.977  -6.745  0.00  0.00    +0.203 C 
ATOM     17  N   UNL     1       1.559  -4.242  -6.472  0.00  0.00    -0.291 N 
ATOM     18  C   UNL     1       2.740  -4.147  -5.801  0.00  0.00    +0.237 C 
ATOM     19  O   UNL     1       3.420  -5.120  -5.554  0.00  0.00    -0.274 OA
ATOM     20  H   UNL     1       2.907  -0.046  -1.118  0.00  0.00    +0.160 HD
ENDROOT
BRANCH   1  26
ATOM     21  C   UNL     1       0.777  -1.810  -1.336  0.00  0.00    +0.125 A 
ATOM     22  C   UNL     1       0.243  -2.669  -0.386  0.00  0.00    +0.046 A 
ATOM     23  C   UNL     1       0.351  -4.036  -0.554  0.00  0.00    +0.004 A 
ATOM     24  C   UNL     1       0.991  -4.548  -1.667  0.00  0.00    +0.001 A 
ATOM     25  C   UNL     1       1.525  -3.695  -2.615  0.00  0.00    +0.009 A 
ATOM     26  C   UNL     1       1.414  -2.327  -2.455  0.00  0.00    +0.017 A 
BRANCH  21  27
ATOM     27  O   UNL     1       0.671  -0.465  -1.174  0.00  0.00    -0.492 OA
BRANCH  27  29
ATOM     28  C   UNL     1      -0.019   1.526   0.010  0.00  0.00    +0.048 C 
ATOM     29  C   UNL     1       0.002  -0.004   0.002  0.00  0.00    +0.225 C 
ENDBRANCH  27  29
ENDBRANCH  21  27
ENDBRANCH   1  26
BRANCH  17  30
ATOM     30  C   UNL     1       1.019  -5.534  -6.900  0.00  0.00    +0.113 C 
BRANCH  30  31
ATOM     31  C   UNL     1       1.532  -5.862  -8.304  0.00  0.00    +0.054 C 
BRANCH  31  32
ATOM     32  C   UNL     1       0.976  -7.191  -8.745  0.00  0.00    -0.043 A 
ATOM     33  C   UNL     1       1.667  -8.356  -8.465  0.00  0.00    +0.004 A 
ATOM     34  C   UNL     1       1.158  -9.576  -8.869  0.00  0.00    +0.003 A 
ATOM     35  C   UNL     1      -0.042  -9.633  -9.553  0.00  0.00    +0.038 A 
ATOM     36  C   UNL     1      -0.734  -8.467  -9.833  0.00  0.00    +0.124 A 
ATOM     37  C   UNL     1      -0.226  -7.246  -9.423  0.00  0.00    +0.042 A 
ATOM     38  F   UNL     1      -1.907  -8.521 -10.502  0.00  0.00    -0.205 F 
ENDBRANCH  31  32
ENDBRANCH  30  31
ENDBRANCH  17  30
TORSDOF 6
