REMARK  Name = ZINC34779132
REMARK  13 active torsions:
REMARK  status: ('A' for Active; 'I' for Inactive)
REMARK    1  A    between atoms: C_1  and  C_2
REMARK    2  A    between atoms: C_2  and  N_3
REMARK    3  A    between atoms: N_3  and  C_4
REMARK    4  A    between atoms: C_4  and  C_5
REMARK    5  A    between atoms: C_6  and  C_8
REMARK    6  A    between atoms: C_8  and  N_9
REMARK    7  A    between atoms: C_13  and  C_35
REMARK    8  A    between atoms: C_14  and  C_32
REMARK    9  A    between atoms: N_17  and  C_20
REMARK   10  A    between atoms: C_20  and  C_21
REMARK   11  A    between atoms: N_23  and  C_24
REMARK   12  A    between atoms: C_29  and  O_30
REMARK   13  A    between atoms: O_30  and  C_31
REMARK                            x       y       z     vdW  Elec       q    Type
REMARK                         _______ _______ _______ _____ _____    ______ ____
ROOT
ATOM      1  N   UNL     1      -2.141  -0.847   3.575  0.00  0.00    -0.251 N 
ATOM      2  C   UNL     1      -2.938   0.110   4.082  0.00  0.00    +0.266 A 
ATOM      3  O   UNL     1      -2.930   1.232   3.612  0.00  0.00    -0.267 OA
ATOM      4  C   UNL     1      -3.827  -0.220   5.224  0.00  0.00    +0.074 A 
ATOM      5  C   UNL     1      -4.726   0.613   5.896  0.00  0.00    -0.015 A 
ATOM      6  C   UNL     1      -5.439   0.052   6.933  0.00  0.00    +0.106 A 
ATOM      7  S   UNL     1      -4.845  -1.627   6.951  0.00  0.00    -0.063 S 
ATOM      8  C   UNL     1      -3.756  -1.543   5.686  0.00  0.00    +0.098 A 
ATOM      9  N   UNL     1      -2.913  -2.448   5.106  0.00  0.00    -0.278 N 
ATOM     10  C   UNL     1      -2.131  -2.096   4.069  0.00  0.00    +0.334 A 
ATOM     11  O   UNL     1      -1.396  -2.926   3.571  0.00  0.00    -0.246 OA
ATOM     12  C   UNL     1      -4.906   2.058   5.506  0.00  0.00    +0.046 C 
ENDROOT
BRANCH   6  13
ATOM     13  C   UNL     1      -6.404   0.658   7.774  0.00  0.00    +0.393 C 
ATOM     14  O   UNL     1      -6.696   1.838   7.620  0.00  0.00    -0.240 OA
ATOM     15  O   UNL     1      -6.947   0.003   8.656  0.00  0.00    -0.240 OA
ENDBRANCH   6  13
BRANCH   1  16
ATOM     16  C   UNL     1      -1.263  -0.520   2.449  0.00  0.00    +0.225 C 
BRANCH  16  18
ATOM     17  N   UNL     1      -1.376  -0.543  -0.022  0.00  0.00    -0.301 N 
ATOM     18  C   UNL     1      -1.991  -0.775   1.154  0.00  0.00    +0.236 C 
ATOM     19  O   UNL     1      -3.131  -1.189   1.171  0.00  0.00    -0.274 OA
BRANCH  17  21
ATOM     20  C   UNL     1      -0.012   1.488  -0.040  0.00  0.00    +0.024 C 
ATOM     21  C   UNL     1       0.001  -0.042  -0.043  0.00  0.00    +0.104 C 
ENDBRANCH  17  21
BRANCH  17  22
ATOM     22  C   UNL     1      -2.083  -0.790  -1.281  0.00  0.00    +0.104 C 
ATOM     23  C   UNL     1      -1.837  -2.233  -1.729  0.00  0.00    +0.024 C 
ENDBRANCH  17  22
ENDBRANCH  16  18
ENDBRANCH   1  16
BRANCH   9  24
ATOM     24  C   UNL     1      -2.864  -3.821   5.615  0.00  0.00    +0.223 C 
BRANCH  24  25
ATOM     25  C   UNL     1      -3.874  -4.665   4.882  0.00  0.00    +0.237 C 
ATOM     26  O   UNL     1      -4.567  -4.169   4.019  0.00  0.00    -0.274 OA
ATOM     27  N   UNL     1      -4.007  -5.972   5.185  0.00  0.00    -0.281 N 
ATOM     28  H   UNL     1      -3.410  -6.384   5.829  0.00  0.00    +0.155 HD
BRANCH  27  29
ATOM     29  C   UNL     1      -5.009  -6.735   4.571  0.00  0.00    +0.076 A 
ATOM     30  C   UNL     1      -5.369  -6.480   3.256  0.00  0.00    +0.027 A 
ATOM     31  C   UNL     1      -6.357  -7.234   2.651  0.00  0.00    +0.002 A 
ATOM     32  C   UNL     1      -6.989  -8.243   3.355  0.00  0.00    +0.004 A 
ATOM     33  C   UNL     1      -6.635  -8.503   4.665  0.00  0.00    +0.047 A 
ATOM     34  C   UNL     1      -5.642  -7.755   5.277  0.00  0.00    +0.141 A 
BRANCH  34  35
ATOM     35  O   UNL     1      -5.289  -8.014   6.564  0.00  0.00    -0.493 OA
ATOM     36  C   UNL     1      -5.980  -9.075   7.226  0.00  0.00    +0.277 C 
ENDBRANCH  34  35
ENDBRANCH  27  29
ENDBRANCH  24  25
ENDBRANCH   9  24
TORSDOF 9
