REMARK  Name = ZINC12417452
REMARK  6 active torsions:
REMARK  status: ('A' for Active; 'I' for Inactive)
REMARK    1  A    between atoms: C_1  and  C_2
REMARK    2  A    between atoms: N_10  and  C_13
REMARK    3  A    between atoms: C_18  and  O_19
REMARK    4  A    between atoms: O_19  and  C_20
REMARK    5  A    between atoms: N_29  and  C_32
REMARK    6  A    between atoms: C_32  and  C_33
REMARK                            x       y       z     vdW  Elec       q    Type
REMARK                         _______ _______ _______ _____ _____    ______ ____
ROOT
ATOM      1  C   UNL     1      -0.019   1.526   0.010  0.00  0.00    +0.025 C 
ATOM      2  C   UNL     1       0.002  -0.004   0.002  0.00  0.00    +0.064 C 
ATOM      3  C   UNL     1       0.754  -0.524  -1.242  0.00  0.00    +0.107 C 
ATOM      4  C   UNL     1       1.539  -1.769  -0.742  0.00  0.00    +0.123 C 
ATOM      5  C   UNL     1       2.985  -1.352  -0.898  0.00  0.00    +0.233 C 
ATOM      6  O   UNL     1       3.945  -2.041  -0.625  0.00  0.00    -0.274 OA
ATOM      7  N   UNL     1       3.040  -0.107  -1.383  0.00  0.00    -0.206 N 
ATOM      8  C   UNL     1       1.835   0.462  -1.620  0.00  0.00    +0.232 C 
ATOM      9  O   UNL     1       1.645   1.576  -2.059  0.00  0.00    -0.274 OA
ATOM     10  C   UNL     1       1.179  -1.881   0.744  0.00  0.00    +0.136 C 
ATOM     11  N   UNL     1       0.778  -0.517   1.163  0.00  0.00    -0.296 NA
ATOM     12  C   UNL     1       0.089  -2.891   0.970  0.00  0.00    +0.004 A 
ATOM     13  C   UNL     1      -1.205  -3.007   0.515  0.00  0.00    +0.008 A 
ATOM     14  C   UNL     1      -1.985  -4.079   0.911  0.00  0.00    +0.000 A 
ATOM     15  C   UNL     1      -1.460  -5.033   1.765  0.00  0.00    +0.002 A 
ATOM     16  C   UNL     1      -0.165  -4.920   2.224  0.00  0.00    +0.024 A 
ATOM     17  C   UNL     1       0.627  -3.843   1.831  0.00  0.00    +0.042 A 
ATOM     18  N   UNL     1       1.944  -3.513   2.155  0.00  0.00    -0.265 N 
ATOM     19  C   UNL     1       2.344  -2.373   1.558  0.00  0.00    +0.246 C 
ATOM     20  O   UNL     1       3.432  -1.847   1.657  0.00  0.00    -0.273 OA
ATOM     21  H   UNL     1       1.581   0.065   1.347  0.00  0.00    +0.123 HD
ENDROOT
BRANCH   7  22
ATOM     22  C   UNL     1       4.250   0.557  -1.635  0.00  0.00    +0.085 A 
ATOM     23  C   UNL     1       4.854   0.455  -2.879  0.00  0.00    +0.027 A 
ATOM     24  C   UNL     1       6.046   1.110  -3.124  0.00  0.00    +0.002 A 
ATOM     25  C   UNL     1       6.639   1.868  -2.132  0.00  0.00    +0.004 A 
ATOM     26  C   UNL     1       6.043   1.975  -0.889  0.00  0.00    +0.047 A 
ATOM     27  C   UNL     1       4.845   1.326  -0.637  0.00  0.00    +0.142 A 
BRANCH  27  28
ATOM     28  O   UNL     1       4.254   1.434   0.583  0.00  0.00    -0.493 OA
ATOM     29  C   UNL     1       4.921   2.239   1.557  0.00  0.00    +0.277 C 
ENDBRANCH  27  28
ENDBRANCH   7  22
BRANCH  18  30
ATOM     30  C   UNL     1       2.793  -4.312   3.041  0.00  0.00    +0.148 C 
BRANCH  30  31
ATOM     31  C   UNL     1       3.547  -5.333   2.229  0.00  0.00    -0.030 A 
ATOM     32  C   UNL     1       2.996  -6.580   2.003  0.00  0.00    +0.008 A 
ATOM     33  C   UNL     1       3.686  -7.517   1.258  0.00  0.00    +0.038 A 
ATOM     34  C   UNL     1       4.931  -7.206   0.736  0.00  0.00    +0.123 A 
ATOM     35  C   UNL     1       5.482  -5.956   0.963  0.00  0.00    +0.038 A 
ATOM     36  C   UNL     1       4.787  -5.019   1.704  0.00  0.00    +0.008 A 
ATOM     37  F   UNL     1       5.607  -8.121   0.008  0.00  0.00    -0.205 F 
ENDBRANCH  30  31
ENDBRANCH  18  30
TORSDOF 4
