REMARK  Name = ZINC13655207
REMARK  10 active torsions:
REMARK  status: ('A' for Active; 'I' for Inactive)
REMARK    1  A    between atoms: C_1  and  C_2
REMARK    2  A    between atoms: N_7  and  N_8
REMARK    3  A    between atoms: C_9  and  C_11
REMARK    4  A    between atoms: C_14  and  C_18
REMARK    5  A    between atoms: C_18  and  N_19
REMARK    6  A    between atoms: C_20  and  O_22
REMARK    7  A    between atoms: O_22  and  C_23
REMARK    8  A    between atoms: C_23  and  C_24
REMARK    9  A    between atoms: C_23  and  C_25
REMARK   10  A    between atoms: C_23  and  C_26
REMARK                            x       y       z     vdW  Elec       q    Type
REMARK                         _______ _______ _______ _____ _____    ______ ____
ROOT
ATOM      1  C   UNL     1      -0.018   1.503   0.010  0.00  0.00    +0.044 C 
ATOM      2  C   UNL     1       0.002  -0.004   0.002  0.00  0.00    -0.035 A 
ATOM      3  C   UNL     1      -1.247  -0.782   0.004  0.00  0.00    +0.021 A 
ATOM      4  C   UNL     1      -1.197  -2.162   0.267  0.00  0.00    +0.141 A 
ATOM      5  O   UNL     1      -0.001  -2.751   0.525  0.00  0.00    -0.438 OA
ATOM      6  C   UNL     1       1.101  -2.159  -0.016  0.00  0.00    +0.212 A 
ATOM      7  N   UNL     1       2.067  -2.878  -0.528  0.00  0.00    -0.274 N 
ATOM      8  C   UNL     1       1.174  -0.691  -0.013  0.00  0.00    +0.071 A 
ATOM      9  C   UNL     1      -2.364  -2.901   0.261  0.00  0.00    +0.092 A 
ATOM     10  C   UNL     1      -3.584  -2.282   0.002  0.00  0.00    +0.128 A 
ATOM     11  C   UNL     1      -3.635  -0.917  -0.249  0.00  0.00    -0.005 A 
ATOM     12  C   UNL     1      -2.473  -0.169  -0.251  0.00  0.00    +0.019 A 
ATOM     13  C   UNL     1      -4.943  -0.216  -0.516  0.00  0.00    +0.043 C 
ATOM     14  C   UNL     1      -6.010  -1.244  -0.902  0.00  0.00    +0.053 C 
ATOM     15  C   UNL     1      -5.965  -2.390   0.114  0.00  0.00    +0.111 C 
ATOM     16  O   UNL     1      -4.705  -3.050   0.001  0.00  0.00    -0.485 OA
ATOM     17  C   UNL     1      -6.129  -1.828   1.527  0.00  0.00    +0.048 C 
ATOM     18  C   UNL     1      -6.081  -2.974   2.540  0.00  0.00    +0.004 C 
ATOM     19  C   UNL     1      -7.212  -3.962   2.247  0.00  0.00    +0.000 C 
ATOM     20  C   UNL     1      -7.045  -4.524   0.833  0.00  0.00    +0.004 C 
ATOM     21  C   UNL     1      -7.094  -3.379  -0.180  0.00  0.00    +0.048 C 
ATOM     22  H   UNL     1       2.005  -3.846  -0.527  0.00  0.00    +0.187 HD
ENDROOT
BRANCH   7  23
ATOM     23  N   UNL     1       3.192  -2.249  -1.079  0.00  0.00    -0.227 N 
ATOM     24  C   UNL     1       4.187  -2.989  -1.606  0.00  0.00    +0.234 C 
ATOM     25  O   UNL     1       4.109  -4.200  -1.605  0.00  0.00    -0.274 OA
ATOM     26  H   UNL     1       3.254  -1.281  -1.080  0.00  0.00    +0.175 HD
BRANCH  24  27
ATOM     27  C   UNL     1       5.396  -2.312  -2.199  0.00  0.00    +0.077 C 
ATOM     28  C   UNL     1       4.960  -1.404  -3.350  0.00  0.00    +0.013 C 
ATOM     29  C   UNL     1       4.267  -2.243  -4.426  0.00  0.00    +0.006 C 
ATOM     30  C   UNL     1       5.238  -3.302  -4.952  0.00  0.00    +0.006 C 
ATOM     31  C   UNL     1       5.674  -4.210  -3.800  0.00  0.00    +0.006 C 
ATOM     32  C   UNL     1       6.367  -3.372  -2.724  0.00  0.00    +0.013 C 
BRANCH  30  33
ATOM     33  C   UNL     1       4.544  -4.141  -6.027  0.00  0.00    +0.111 C 
BRANCH  33  34
ATOM     34  N   UNL     1       5.508  -5.075  -6.614  0.00  0.00    -0.281 N 
ATOM     35  C   UNL     1       5.118  -5.920  -7.589  0.00  0.00    +0.401 C 
ATOM     36  O   UNL     1       3.968  -5.907  -7.982  0.00  0.00    -0.226 OA
ATOM     37  H   UNL     1       6.426  -5.086  -6.301  0.00  0.00    +0.152 HD
BRANCH  35  38
ATOM     38  O   UNL     1       6.003  -6.779  -8.129  0.00  0.00    -0.445 OA
BRANCH  38  39
ATOM     39  C   UNL     1       5.522  -7.646  -9.158  0.00  0.00    +0.107 C 
ATOM     40  C   UNL     1       4.998  -6.809 -10.326  0.00  0.00    +0.055 C 
ATOM     41  C   UNL     1       6.662  -8.543  -9.645  0.00  0.00    +0.055 C 
ATOM     42  C   UNL     1       4.391  -8.515  -8.605  0.00  0.00    +0.055 C 
ENDBRANCH  38  39
ENDBRANCH  35  38
ENDBRANCH  33  34
ENDBRANCH  30  33
ENDBRANCH  24  27
ENDBRANCH   7  23
TORSDOF 6
