REMARK  Name = ZINC02708663
REMARK  8 active torsions:
REMARK  status: ('A' for Active; 'I' for Inactive)
REMARK    1  A    between atoms: C_1  and  C_2
REMARK    2  A    between atoms: N_13  and  C_18
REMARK    3  A    between atoms: C_15  and  C_16
REMARK    4  A    between atoms: C_18  and  C_19
REMARK    5  A    between atoms: C_19  and  C_21
REMARK    6  A    between atoms: C_19  and  O_33
REMARK    7  A    between atoms: C_21  and  N_60
REMARK    8  A    between atoms: N_24  and  C_27
REMARK                            x       y       z     vdW  Elec       q    Type
REMARK                         _______ _______ _______ _____ _____    ______ ____
ROOT
ATOM      1  C   UNL     1       3.598   3.857  -0.013  0.00  0.00    +0.153 C 
ENDROOT
BRANCH   1  14
ATOM      2  C   UNL     1       1.789   9.130  -0.035  0.00  0.00    +0.045 C 
ATOM      3  C   UNL     1       1.230   7.731  -0.017  0.00  0.00    -0.024 A 
ATOM      4  C   UNL     1      -0.119   7.525   0.001  0.00  0.00    +0.075 A 
ATOM      5  C   UNL     1      -0.625   6.220   0.018  0.00  0.00    +0.258 A 
ATOM      6  O   UNL     1      -1.833   6.044   0.035  0.00  0.00    -0.267 OA
ATOM      7  N   UNL     1       0.201   5.156   0.017  0.00  0.00    -0.260 N 
ATOM      8  C   UNL     1      -0.065   3.787   0.033  0.00  0.00    +0.075 A 
ATOM      9  C   UNL     1      -1.243   3.054   0.053  0.00  0.00    +0.028 A 
ATOM     10  C   UNL     1      -1.194   1.675   0.058  0.00  0.00    +0.002 A 
ATOM     11  C   UNL     1       0.025   1.019   0.055  0.00  0.00    +0.002 A 
ATOM     12  C   UNL     1       1.203   1.738   0.035  0.00  0.00    +0.028 A 
ATOM     13  C   UNL     1       1.165   3.126   0.024  0.00  0.00    +0.068 A 
ATOM     14  N   UNL     1       2.154   4.101   0.003  0.00  0.00    -0.322 N 
ATOM     15  C   UNL     1       1.550   5.326  -0.000  0.00  0.00    +0.140 A 
ATOM     16  C   UNL     1       2.093   6.618  -0.018  0.00  0.00    +0.096 A 
BRANCH  16  17
ATOM     17  C   UNL     1       3.513   6.805  -0.036  0.00  0.00    +0.103 C 
ATOM     18  N   UNL     1       4.639   6.954  -0.051  0.00  0.00    -0.191 NA
ENDBRANCH  16  17
ENDBRANCH   1  14
BRANCH   1  19
ATOM     19  C   UNL     1       4.083   3.759  -1.461  0.00  0.00    +0.118 C 
BRANCH  19  20
ATOM     20  O   UNL     1       3.410   2.682  -2.117  0.00  0.00    -0.392 OA
ATOM     21  H   UNL     1       3.558   1.819  -1.708  0.00  0.00    +0.210 HD
ENDBRANCH  19  20
BRANCH  19  22
ATOM     22  C   UNL     1       5.591   3.504  -1.478  0.00  0.00    -0.045 C 
BRANCH  22  28
ATOM     23  C   UNL     1       7.356   2.736  -2.948  0.00  0.00    -0.060 C 
ATOM     24  C   UNL     1       7.769   2.602  -4.416  0.00  0.00    +0.086 C 
ATOM     25  N   UNL     1       7.845   3.937  -5.025  0.00  0.00    -0.333 N 
ATOM     26  C   UNL     1       6.548   4.624  -4.944  0.00  0.00    +0.086 C 
ATOM     27  C   UNL     1       6.135   4.758  -3.477  0.00  0.00    -0.060 C 
ATOM     28  N   UNL     1       6.041   3.408  -2.883  0.00  0.00    +0.383 N 
ATOM     29  H   UNL     1       5.357   2.856  -3.415  0.00  0.00    -0.082 HD
BRANCH  25  30
ATOM     30  C   UNL     1       8.289   3.860  -6.347  0.00  0.00    +0.030 A 
ATOM     31  C   UNL     1       7.519   4.392  -7.372  0.00  0.00    +0.023 A 
ATOM     32  C   UNL     1       7.963   4.319  -8.678  0.00  0.00    +0.002 A 
ATOM     33  C   UNL     1       9.169   3.706  -8.966  0.00  0.00    +0.000 A 
ATOM     34  C   UNL     1       9.936   3.170  -7.947  0.00  0.00    +0.002 A 
ATOM     35  C   UNL     1       9.500   3.245  -6.639  0.00  0.00    +0.023 A 
ENDBRANCH  25  30
ENDBRANCH  22  28
ENDBRANCH  19  22
ENDBRANCH   1  19
TORSDOF 7
