REMARK  Name = ZINC13562042
REMARK  4 active torsions:
REMARK  status: ('A' for Active; 'I' for Inactive)
REMARK    1  A    between atoms: C_1  and  C_2
REMARK    2  A    between atoms: N_13  and  C_14
REMARK    3  A    between atoms: C_22  and  C_24
REMARK    4  A    between atoms: C_22  and  C_25
REMARK                            x       y       z     vdW  Elec       q    Type
REMARK                         _______ _______ _______ _____ _____    ______ ____
ROOT
ATOM      1  C   UNL     1       3.886  -5.046  -0.484  0.00  0.00    +0.044 C 
ATOM      2  C   UNL     1       5.117  -4.184  -0.368  0.00  0.00    -0.050 A 
ATOM      3  C   UNL     1       6.364  -4.773  -0.264  0.00  0.00    +0.005 A 
ATOM      4  C   UNL     1       7.505  -3.999  -0.145  0.00  0.00    +0.024 A 
ATOM      5  C   UNL     1       7.397  -2.616  -0.135  0.00  0.00    +0.036 A 
ATOM      6  C   UNL     1       6.138  -2.027  -0.268  0.00  0.00    +0.007 A 
ATOM      7  C   UNL     1       4.997  -2.805  -0.367  0.00  0.00    +0.013 A 
ATOM      8  C   UNL     1       6.034  -0.517  -0.274  0.00  0.00    +0.029 A 
ATOM      9  C   UNL     1       7.211   0.171  -0.414  0.00  0.00    +0.030 A 
ATOM     10  S   UNL     1       6.964   1.887  -0.374  0.00  0.00    -0.052 S 
ATOM     11  S   UNL     1       4.884   1.834  -0.159  0.00  0.00    -0.032 S 
ATOM     12  C   UNL     1       4.735   0.053  -0.145  0.00  0.00    +0.117 A 
ATOM     13  N   UNL     1       3.599  -0.627  -0.037  0.00  0.00    -0.240 NA
ATOM     14  C   UNL     1       8.564  -0.483  -0.589  0.00  0.00    +0.059 C 
ATOM     15  N   UNL     1       8.530  -1.814   0.031  0.00  0.00    -0.334 N 
ATOM     16  C   UNL     1       9.638   0.370   0.089  0.00  0.00    +0.037 C 
ATOM     17  C   UNL     1       8.882  -0.620  -2.079  0.00  0.00    +0.037 C 
ATOM     18  H   UNL     1       9.285  -2.133   0.550  0.00  0.00    +0.147 HD
ENDROOT
BRANCH  13  19
ATOM     19  C   UNL     1       2.405   0.035  -0.028  0.00  0.00    +0.067 A 
ATOM     20  C   UNL     1       1.805   0.384   1.186  0.00  0.00    +0.030 A 
ATOM     21  C   UNL     1       0.599   1.053   1.189  0.00  0.00    +0.042 A 
ATOM     22  C   UNL     1      -0.018   1.381  -0.008  0.00  0.00    +0.142 A 
ATOM     23  C   UNL     1       0.571   1.038  -1.215  0.00  0.00    +0.078 A 
ATOM     24  C   UNL     1       1.778   0.368  -1.232  0.00  0.00    +0.050 A 
ATOM     25 CL   UNL     1      -0.210   1.453  -2.709  0.00  0.00    -0.081 Cl
ATOM     26  F   UNL     1      -1.196   2.042   0.002  0.00  0.00    -0.204 F 
ENDBRANCH  13  19
TORSDOF 1
