REMARK  Name = ZINC40899942
REMARK  7 active torsions:
REMARK  status: ('A' for Active; 'I' for Inactive)
REMARK    1  A    between atoms: C_3  and  C_8
REMARK    2  A    between atoms: C_10  and  C_13
REMARK    3  A    between atoms: C_16  and  N_20
REMARK    4  A    between atoms: C_24  and  C_27
REMARK    5  A    between atoms: N_29  and  C_30
REMARK    6  A    between atoms: C_30  and  C_31
REMARK    7  A    between atoms: C_31  and  C_32
REMARK                            x       y       z     vdW  Elec       q    Type
REMARK                         _______ _______ _______ _____ _____    ______ ____
ROOT
ATOM      1  C   UNL     1       7.252   2.415  -0.063  0.00  0.00    +0.025 A 
ATOM      2  C   UNL     1       7.780   1.125  -0.087  0.00  0.00    +0.013 A 
ATOM      3  C   UNL     1       9.146   0.939  -0.105  0.00  0.00    +0.027 A 
ATOM      4  C   UNL     1       9.998   2.037  -0.100  0.00  0.00    +0.065 A 
ATOM      5  C   UNL     1       9.474   3.327  -0.076  0.00  0.00    +0.145 A 
ATOM      6  C   UNL     1       8.107   3.516  -0.064  0.00  0.00    +0.052 A 
ATOM      7  F   UNL     1      10.304   4.393  -0.071  0.00  0.00    -0.204 F 
ENDROOT
BRANCH   4   8
ATOM      8  N   UNL     1      11.380   1.846  -0.118  0.00  0.00    -0.327 N 
ATOM      9  C   UNL     1      12.136   1.721   1.136  0.00  0.00    +0.105 C 
ATOM     10  C   UNL     1      13.278   2.742   1.128  0.00  0.00    +0.020 C 
ATOM     11  C   UNL     1      14.120   2.549  -0.135  0.00  0.00    +0.016 C 
ATOM     12  C   UNL     1      13.251   2.787  -1.372  0.00  0.00    +0.092 C 
ATOM     13  C   UNL     1      12.108   1.761  -1.392  0.00  0.00    +0.118 C 
BRANCH  12  14
ATOM     14  C   UNL     1      14.089   2.629  -2.614  0.00  0.00    +0.218 C 
ATOM     15  O   UNL     1      13.801   1.786  -3.437  0.00  0.00    -0.275 OA
ATOM     16  N   UNL     1      15.159   3.424  -2.811  0.00  0.00    -0.315 N 
ATOM     17  H   UNL     1      15.390   4.099  -2.152  0.00  0.00    +0.149 HD
BRANCH  16  18
ATOM     18  C   UNL     1      15.975   3.271  -4.018  0.00  0.00    +0.108 C 
BRANCH  18  19
ATOM     19  C   UNL     1      17.117   4.288  -3.995  0.00  0.00    +0.049 C 
BRANCH  19  20
ATOM     20  C   UNL     1      17.956   4.130  -5.237  0.00  0.00    -0.072 C 
ATOM     21  C   UNL     1      17.696   4.897  -6.246  0.00  0.00    -0.028 C 
ATOM     22  C   UNL     1      18.436   4.850  -7.551  0.00  0.00    +0.027 C 
ATOM     23  C   UNL     1      19.762   4.107  -7.378  0.00  0.00    +0.004 C 
ATOM     24  C   UNL     1      19.485   2.781  -6.657  0.00  0.00    +0.005 C 
ATOM     25  C   UNL     1      19.044   3.096  -5.225  0.00  0.00    +0.030 C 
ENDBRANCH  19  20
ENDBRANCH  18  19
ENDBRANCH  16  18
ENDBRANCH  12  14
ENDBRANCH   4   8
BRANCH   1  28
ATOM     26  C   UNL     1       3.657   2.162  -0.022  0.00  0.00    +0.259 A 
ATOM     27  N   UNL     1       4.861   1.640  -0.041  0.00  0.00    -0.187 NA
ATOM     28  C   UNL     1       5.783   2.616  -0.044  0.00  0.00    +0.202 A 
ATOM     29  N   UNL     1       5.171   3.776  -0.026  0.00  0.00    -0.056 NA
ATOM     30  O   UNL     1       3.778   3.501  -0.017  0.00  0.00    -0.332 OA
BRANCH  26  33
ATOM     31  C   UNL     1      -0.017   1.379   0.010  0.00  0.00    +0.002 A 
ATOM     32  C   UNL     1       1.167   2.088   0.002  0.00  0.00    +0.013 A 
ATOM     33  C   UNL     1       2.385   1.408  -0.013  0.00  0.00    +0.041 A 
ATOM     34  C   UNL     1       2.398   0.012  -0.021  0.00  0.00    +0.033 A 
ATOM     35  C   UNL     1       1.207  -0.686  -0.013  0.00  0.00    +0.042 A 
ATOM     36  C   UNL     1       0.002  -0.004   0.002  0.00  0.00    +0.020 A 
ATOM     37 CL   UNL     1       1.221  -2.422  -0.023  0.00  0.00    -0.084 Cl
ENDBRANCH  26  33
ENDBRANCH   1  28
TORSDOF 7
