REMARK  Name = ZINC14471768
REMARK  7 active torsions:
REMARK  status: ('A' for Active; 'I' for Inactive)
REMARK    1  A    between atoms: C_1  and  C_2
REMARK    2  A    between atoms: C_5  and  N_9
REMARK    3  A    between atoms: C_6  and  C_8
REMARK    4  A    between atoms: N_9  and  S_10
REMARK    5  A    between atoms: S_10  and  C_13
REMARK    6  A    between atoms: C_26  and  C_29
REMARK    7  A    between atoms: C_33  and  N_35
REMARK                            x       y       z     vdW  Elec       q    Type
REMARK                         _______ _______ _______ _____ _____    ______ ____
ROOT
ATOM      1  C   UNL     1      -2.365  -0.209   2.469  0.00  0.00    +0.109 A 
ATOM      2  C   UNL     1      -3.502  -0.017   3.232  0.00  0.00    +0.030 A 
ATOM      3  C   UNL     1      -3.399   0.166   4.596  0.00  0.00    +0.025 A 
ATOM      4  C   UNL     1      -2.154   0.158   5.213  0.00  0.00    +0.031 A 
ATOM      5  C   UNL     1      -1.006  -0.023   4.433  0.00  0.00    -0.018 A 
ATOM      6  C   UNL     1      -1.121  -0.218   3.073  0.00  0.00    +0.034 A 
ATOM      7  C   UNL     1       0.301   0.021   5.122  0.00  0.00    +0.049 C 
ATOM      8  C   UNL     1       1.498  -0.673   4.582  0.00  0.00    -0.023 C 
ATOM      9  C   UNL     1       2.264  -1.051   5.599  0.00  0.00    -0.030 C 
ATOM     10  C   UNL     1       1.605  -0.660   6.923  0.00  0.00    +0.033 C 
ATOM     11  C   UNL     1       0.122  -0.621   6.531  0.00  0.00    +0.029 C 
ATOM     12  C   UNL     1      -0.772   0.335   7.300  0.00  0.00    +0.105 C 
ATOM     13  N   UNL     1      -2.077   0.311   6.603  0.00  0.00    -0.336 N 
ATOM     14  H   UNL     1      -2.894   0.403   7.118  0.00  0.00    +0.147 HD
ENDROOT
BRANCH  12  15
ATOM     15  C   UNL     1      -0.934  -0.136   8.723  0.00  0.00    -0.025 A 
ATOM     16  C   UNL     1      -1.831  -1.145   9.019  0.00  0.00    +0.005 A 
ATOM     17  C   UNL     1      -1.980  -1.576  10.324  0.00  0.00    +0.003 A 
ATOM     18  C   UNL     1      -1.231  -0.999  11.332  0.00  0.00    +0.033 A 
ATOM     19  C   UNL     1      -0.334   0.010  11.036  0.00  0.00    +0.127 A 
ATOM     20  C   UNL     1      -0.182   0.438   9.730  0.00  0.00    +0.038 A 
BRANCH  19  21
ATOM     21  N   UNL     1       0.468   0.629  12.116  0.00  0.00    +0.056 N 
ATOM     22  O   UNL     1       0.336   0.249  13.265  0.00  0.00    -0.126 OA
ATOM     23  O   UNL     1       1.258   1.517  11.854  0.00  0.00    -0.126 OA
ENDBRANCH  19  21
ENDBRANCH  12  15
BRANCH   1  24
ATOM     24  S   UNL     1      -2.501  -0.452   0.730  0.00  0.00    +0.072 S 
ATOM     25  O   UNL     1      -3.811  -0.950   0.490  0.00  0.00    -0.150 OA
ATOM     26  O   UNL     1      -1.334  -1.153   0.324  0.00  0.00    -0.150 OA
BRANCH  24  27
ATOM     27  N   UNL     1      -2.426   1.042   0.020  0.00  0.00    -0.216 N 
ATOM     28  H   UNL     1      -3.170   1.365  -0.513  0.00  0.00    +0.174 HD
BRANCH  27  33
ATOM     29  C   UNL     1       2.183   4.277   0.689  0.00  0.00    +0.044 C 
ATOM     30  C   UNL     1       0.958   3.417   0.514  0.00  0.00    -0.050 A 
ATOM     31  C   UNL     1       1.088   2.044   0.413  0.00  0.00    +0.005 A 
ATOM     32  C   UNL     1      -0.033   1.253   0.253  0.00  0.00    +0.025 A 
ATOM     33  C   UNL     1      -1.291   1.839   0.187  0.00  0.00    +0.051 A 
ATOM     34  C   UNL     1      -1.418   3.218   0.294  0.00  0.00    -0.028 A 
ATOM     35  C   UNL     1      -0.293   4.003   0.454  0.00  0.00    +0.008 A 
ATOM     36  C   UNL     1      -2.781   3.857   0.229  0.00  0.00    +0.046 C 
ENDBRANCH  27  33
ENDBRANCH  24  27
ENDBRANCH   1  24
TORSDOF 5
