REMARK  Name = ZINC21319731
REMARK  13 active torsions:
REMARK  status: ('A' for Active; 'I' for Inactive)
REMARK    1  A    between atoms: C_1  and  C_2
REMARK    2  A    between atoms: C_2  and  C_3
REMARK    3  A    between atoms: C_3  and  C_5
REMARK    4  A    between atoms: C_3  and  C_6
REMARK    5  A    between atoms: C_9  and  N_12
REMARK    6  A    between atoms: C_13  and  C_15
REMARK    7  A    between atoms: C_15  and  S_16
REMARK    8  A    between atoms: S_16  and  C_17
REMARK    9  A    between atoms: N_21  and  N_22
REMARK   10  A    between atoms: N_23  and  N_24
REMARK   11  A    between atoms: C_25  and  C_26
REMARK   12  A    between atoms: C_31  and  O_32
REMARK   13  A    between atoms: O_32  and  C_33
REMARK                            x       y       z     vdW  Elec       q    Type
REMARK                         _______ _______ _______ _____ _____    ______ ____
ROOT
ATOM      1  C   UNL     1      -1.838  -4.220  -0.016  0.00  0.00    +0.210 A 
ATOM      2  N   UNL     1      -0.526  -4.202  -0.038  0.00  0.00    -0.119 NA
ATOM      3  N   UNL     1      -0.112  -2.864  -0.046  0.00  0.00    -0.109 NA
ATOM      4  C   UNL     1      -1.182  -2.108  -0.021  0.00  0.00    +0.254 A 
ATOM      5  N   UNL     1      -2.277  -2.927  -0.005  0.00  0.00    -0.211 N 
ATOM      6  N   UNL     1      -1.201  -0.721  -0.017  0.00  0.00    -0.204 N 
ATOM      7  H   UNL     1      -2.161  -0.184   0.001  0.00  0.00    +0.177 HD
ENDROOT
BRANCH   5   8
ATOM      8  N   UNL     1      -3.582  -2.522   0.018  0.00  0.00    -0.294 N 
ATOM      9  H   UNL     1      -3.825  -1.449   0.025  0.00  0.00    +0.163 HD
ATOM     10  H   UNL     1      -4.389  -3.269   0.029  0.00  0.00    +0.163 HD
ENDBRANCH   5   8
BRANCH   6  11
ATOM     11  N   UNL     1       0.003  -0.004  -0.035  0.00  0.00    -0.187 NA
ATOM     12  C   UNL     1      -0.015   1.294  -0.031  0.00  0.00    +0.142 C 
BRANCH  12  13
ATOM     13  C   UNL     1       1.251   2.049  -0.049  0.00  0.00    +0.036 A 
ATOM     14  C   UNL     1       1.237   3.445  -0.051  0.00  0.00    +0.013 A 
ATOM     15  C   UNL     1       2.425   4.145  -0.063  0.00  0.00    +0.001 A 
ATOM     16  C   UNL     1       3.633   3.469  -0.085  0.00  0.00    +0.004 A 
ATOM     17  C   UNL     1       3.660   2.086  -0.089  0.00  0.00    +0.046 A 
ATOM     18  C   UNL     1       2.476   1.368  -0.072  0.00  0.00    +0.129 A 
BRANCH  18  19
ATOM     19  O   UNL     1       2.502   0.010  -0.075  0.00  0.00    -0.494 OA
ATOM     20  C   UNL     1       3.788  -0.614  -0.098  0.00  0.00    +0.277 C 
ENDBRANCH  18  19
ENDBRANCH  12  13
ENDBRANCH   6  11
BRANCH   1  21
ATOM     21  S   UNL     1      -2.854  -5.659  -0.003  0.00  0.00    -0.075 S 
BRANCH  21  22
ATOM     22  C   UNL     1      -1.670  -7.033  -0.028  0.00  0.00    +0.173 C 
BRANCH  22  24
ATOM     23  N   UNL     1      -1.739  -9.506  -0.034  0.00  0.00    -0.285 N 
ATOM     24  C   UNL     1      -2.418  -8.341  -0.019  0.00  0.00    +0.227 C 
ATOM     25  O   UNL     1      -3.630  -8.347   0.002  0.00  0.00    -0.275 OA
ATOM     26  H   UNL     1      -0.643  -9.502  -0.129  0.00  0.00    +0.155 HD
BRANCH  23  30
ATOM     27  C   UNL     1      -3.792 -13.117   0.281  0.00  0.00    -0.044 A 
ATOM     28  C   UNL     1      -4.361 -12.058  -0.401  0.00  0.00    +0.006 A 
ATOM     29  C   UNL     1      -3.683 -10.859  -0.507  0.00  0.00    +0.023 A 
ATOM     30  C   UNL     1      -2.429 -10.719   0.072  0.00  0.00    +0.033 A 
ATOM     31  C   UNL     1      -1.857 -11.787   0.752  0.00  0.00    +0.023 A 
ATOM     32  C   UNL     1      -2.543 -12.981   0.860  0.00  0.00    +0.006 A 
BRANCH  27  33
ATOM     33  C   UNL     1      -4.534 -14.424   0.395  0.00  0.00    +0.016 C 
ATOM     34  C   UNL     1      -3.705 -15.539  -0.245  0.00  0.00    +0.012 C 
BRANCH  33  36
ATOM     35  C   UNL     1      -5.632 -16.008   1.985  0.00  0.00    +0.004 C 
ATOM     36  C   UNL     1      -4.772 -14.748   1.872  0.00  0.00    +0.004 C 
ENDBRANCH  33  36
ENDBRANCH  27  33
ENDBRANCH  23  30
ENDBRANCH  22  24
ENDBRANCH  21  22
ENDBRANCH   1  21
TORSDOF 10
