REMARK  Name = ZINC44658320
REMARK  7 active torsions:
REMARK  status: ('A' for Active; 'I' for Inactive)
REMARK    1  A    between atoms: C_1  and  C_2
REMARK    2  A    between atoms: C_2  and  C_4
REMARK    3  A    between atoms: C_2  and  S_12
REMARK    4  A    between atoms: N_6  and  C_7
REMARK    5  A    between atoms: S_12  and  C_13
REMARK    6  A    between atoms: C_17  and  C_26
REMARK    7  A    between atoms: N_18  and  C_19
REMARK                            x       y       z     vdW  Elec       q    Type
REMARK                         _______ _______ _______ _____ _____    ______ ____
ROOT
ATOM      1  C   UNL     1       2.163  -0.038   0.913  0.00  0.00    +0.242 C 
ATOM      2  N   UNL     1       2.236   1.425   0.763  0.00  0.00    -0.237 N 
ATOM      3  N   UNL     1       3.331   1.685  -0.070  0.00  0.00    -0.169 NA
ATOM      4  C   UNL     1       3.921   0.579  -0.437  0.00  0.00    +0.151 C 
ATOM      5  N   UNL     1       3.288  -0.544   0.110  0.00  0.00    -0.254 N 
ATOM      6  H   UNL     1       1.642   2.079   1.162  0.00  0.00    +0.171 HD
ENDROOT
BRANCH   4   7
ATOM      7  C   UNL     1       5.048   0.522  -1.273  0.00  0.00    +0.022 C 
ATOM      8  C   UNL     1       5.787   1.598  -1.766  0.00  0.00    +0.006 A 
ATOM      9  C   UNL     1       5.661   2.995  -1.604  0.00  0.00    +0.010 A 
ATOM     10  C   UNL     1       6.545   3.825  -2.215  0.00  0.00    +0.001 A 
ATOM     11  C   UNL     1       7.584   3.333  -3.007  0.00  0.00    +0.002 A 
ATOM     12  C   UNL     1       7.764   2.004  -3.206  0.00  0.00    +0.026 A 
ATOM     13  C   UNL     1       6.881   1.074  -2.599  0.00  0.00    +0.043 A 
ATOM     14  N   UNL     1       6.842  -0.244  -2.635  0.00  0.00    -0.380 N 
ATOM     15  C   UNL     1       5.719  -0.717  -1.822  0.00  0.00    +0.152 C 
ATOM     16  H   UNL     1       7.462  -0.810  -3.121  0.00  0.00    +0.160 HD
ENDBRANCH   4   7
BRANCH   5  17
ATOM     17  C   UNL     1       3.651  -1.882  -0.070  0.00  0.00    +0.038 A 
ATOM     18  C   UNL     1       4.512  -2.497   0.830  0.00  0.00    +0.025 A 
ATOM     19  C   UNL     1       4.869  -3.819   0.650  0.00  0.00    +0.022 A 
ATOM     20  C   UNL     1       4.370  -4.531  -0.426  0.00  0.00    +0.041 A 
ATOM     21  C   UNL     1       3.512  -3.921  -1.325  0.00  0.00    +0.022 A 
ATOM     22  C   UNL     1       3.147  -2.601  -1.146  0.00  0.00    +0.025 A 
ATOM     23 CL   UNL     1       4.821  -6.192  -0.650  0.00  0.00    -0.084 Cl
ENDBRANCH   5  17
BRANCH   1  24
ATOM     24  S   UNL     1       0.589  -0.665   0.265  0.00  0.00    -0.105 S 
BRANCH  24  26
ATOM     25  C   UNL     1       0.499   1.443  -1.475  0.00  0.00    +0.029 C 
ATOM     26  C   UNL     1       0.559  -0.086  -1.453  0.00  0.00    +0.132 C 
BRANCH  26  27
ATOM     27  C   UNL     1      -0.652  -0.646  -2.152  0.00  0.00    +0.226 C 
ATOM     28  O   UNL     1      -1.630  -0.964  -1.508  0.00  0.00    -0.275 OA
ATOM     29  N   UNL     1      -0.650  -0.794  -3.491  0.00  0.00    -0.312 N 
ATOM     30  H   UNL     1       0.132  -0.540  -4.006  0.00  0.00    +0.149 HD
BRANCH  29  31
ATOM     31  C   UNL     1      -1.828  -1.339  -4.170  0.00  0.00    +0.073 C 
ATOM     32  C   UNL     1      -1.746  -2.879  -4.218  0.00  0.00    +0.022 C 
ATOM     33  C   UNL     1      -2.339  -3.248  -5.600  0.00  0.00    +0.002 C 
ATOM     34  C   UNL     1      -1.805  -2.118  -6.515  0.00  0.00    +0.002 C 
ATOM     35  C   UNL     1      -1.866  -0.855  -5.630  0.00  0.00    +0.022 C 
ENDBRANCH  29  31
ENDBRANCH  26  27
ENDBRANCH  24  26
ENDBRANCH   1  24
TORSDOF 6
