REMARK  Name = ZINC04551351
REMARK  8 active torsions:
REMARK  status: ('A' for Active; 'I' for Inactive)
REMARK    1  A    between atoms: C_1  and  O_2
REMARK    2  A    between atoms: O_2  and  C_3
REMARK    3  A    between atoms: C_3  and  C_5
REMARK    4  A    between atoms: C_5  and  C_7
REMARK    5  A    between atoms: C_5  and  N_15
REMARK    6  A    between atoms: C_7  and  C_8
REMARK    7  A    between atoms: C_11  and  O_14
REMARK    8  A    between atoms: N_15  and  C_16
REMARK                            x       y       z     vdW  Elec       q    Type
REMARK                         _______ _______ _______ _____ _____    ______ ____
ROOT
ATOM      1  N   UNL     1      -2.647  -2.571   0.013  0.00  0.00    -0.330 N 
ATOM      2  H   UNL     1      -2.752  -3.463  -0.446  0.00  0.00    +0.147 HD
ENDROOT
BRANCH   1   3
ATOM      3  C   UNL     1      -3.139  -2.617   1.300  0.00  0.00    +0.046 A 
ATOM      4  C   UNL     1      -2.560  -3.457   2.272  0.00  0.00    +0.020 A 
ATOM      5  C   UNL     1      -1.453  -4.264   1.961  0.00  0.00    +0.012 A 
ATOM      6  C   UNL     1      -0.909  -5.061   2.921  0.00  0.00    +0.001 A 
ATOM      7  C   UNL     1      -1.432  -5.082   4.213  0.00  0.00    +0.002 A 
ATOM      8  C   UNL     1      -2.499  -4.311   4.553  0.00  0.00    +0.026 A 
ATOM      9  C   UNL     1      -3.092  -3.471   3.588  0.00  0.00    +0.049 A 
ATOM     10  C   UNL     1      -4.721  -1.907   3.020  0.00  0.00    +0.049 A 
ATOM     11  C   UNL     1      -4.243  -1.831   1.685  0.00  0.00    +0.020 A 
ATOM     12  C   UNL     1      -4.876  -0.975   0.768  0.00  0.00    +0.012 A 
ATOM     13  C   UNL     1      -5.940  -0.227   1.167  0.00  0.00    +0.001 A 
ATOM     14  C   UNL     1      -6.413  -0.299   2.478  0.00  0.00    +0.002 A 
ATOM     15  C   UNL     1      -5.827  -1.115   3.393  0.00  0.00    +0.026 A 
ATOM     16  N   UNL     1      -4.167  -2.713   3.984  0.00  0.00    -0.354 N 
ATOM     17  H   UNL     1      -4.534  -2.748   4.942  0.00  0.00    +0.166 HD
ENDBRANCH   1   3
BRANCH   1  18
ATOM     18  C   UNL     1      -1.244  -2.135   0.003  0.00  0.00    +0.184 C 
BRANCH  18  19
ATOM     19  C   UNL     1      -1.185  -0.630   0.010  0.00  0.00    +0.328 C 
ATOM     20  O   UNL     1      -2.208   0.015   0.023  0.00  0.00    -0.249 OA
BRANCH  19  22
ATOM     21  C   UNL     1      -0.018   1.448   0.010  0.00  0.00    +0.280 C 
ATOM     22  O   UNL     1       0.002  -0.004   0.002  0.00  0.00    -0.467 OA
ENDBRANCH  19  22
ENDBRANCH  18  19
BRANCH  18  23
ATOM     23  C   UNL     1      -0.555  -2.666  -1.256  0.00  0.00    +0.068 C 
BRANCH  23  24
ATOM     24  C   UNL     1      -0.505  -4.172  -1.204  0.00  0.00    -0.045 A 
ATOM     25  C   UNL     1       0.581  -4.806  -0.629  0.00  0.00    +0.007 A 
ATOM     26  C   UNL     1       0.626  -6.186  -0.575  0.00  0.00    +0.045 A 
ATOM     27  C   UNL     1      -0.412  -6.935  -1.109  0.00  0.00    +0.117 A 
ATOM     28  C   UNL     1      -1.497  -6.296  -1.691  0.00  0.00    +0.045 A 
ATOM     29  C   UNL     1      -1.541  -4.916  -1.738  0.00  0.00    +0.007 A 
BRANCH  27  30
ATOM     30  O   UNL     1      -0.367  -8.292  -1.062  0.00  0.00    -0.507 OA
ATOM     31  H   UNL     1       0.058  -8.699  -1.830  0.00  0.00    +0.292 HD
ENDBRANCH  27  30
ENDBRANCH  23  24
ENDBRANCH  18  23
ENDBRANCH   1  18
TORSDOF 7
