REMARK  Name = ZINC47274282
REMARK  5 active torsions:
REMARK  status: ('A' for Active; 'I' for Inactive)
REMARK    1  A    between atoms: C_12  and  C_14
REMARK    2  A    between atoms: C_14  and  N_15
REMARK    3  A    between atoms: N_15  and  C_16
REMARK    4  A    between atoms: N_15  and  C_20
REMARK    5  A    between atoms: C_16  and  C_17
REMARK                            x       y       z     vdW  Elec       q    Type
REMARK                         _______ _______ _______ _____ _____    ______ ____
ROOT
ATOM      1  C   UNL     1      -0.107   0.624  -0.527  0.00  0.00    +0.002 A 
ATOM      2  C   UNL     1       0.976   1.431  -0.228  0.00  0.00    +0.002 A 
ATOM      3  C   UNL     1       2.251   0.895  -0.185  0.00  0.00    +0.025 A 
ATOM      4  C   UNL     1       2.438  -0.451  -0.443  0.00  0.00    +0.058 A 
ATOM      5  C   UNL     1       1.347  -1.268  -0.745  0.00  0.00    +0.055 A 
ATOM      6  C   UNL     1       0.074  -0.722  -0.785  0.00  0.00    +0.025 A 
ATOM      7  N   UNL     1       1.549  -2.627  -1.010  0.00  0.00    -0.282 N 
ATOM      8  C   UNL     1       2.723  -3.219  -0.715  0.00  0.00    +0.241 C 
ATOM      9  O   UNL     1       2.888  -4.390  -0.984  0.00  0.00    -0.273 OA
ATOM     10  C   UNL     1       3.830  -2.443  -0.057  0.00  0.00    +0.118 C 
ATOM     11  N   UNL     1       3.721  -1.023  -0.404  0.00  0.00    -0.256 N 
ATOM     12  C   UNL     1       4.817  -0.288  -0.678  0.00  0.00    +0.204 C 
ATOM     13  O   UNL     1       5.921  -0.743  -0.464  0.00  0.00    -0.277 OA
ATOM     14  C   UNL     1       3.757  -2.612   1.470  0.00  0.00    +0.036 C 
ATOM     15  C   UNL     1       4.766  -3.749   1.774  0.00  0.00    +0.003 C 
ATOM     16  C   UNL     1       5.915  -3.464   0.775  0.00  0.00    +0.003 C 
ATOM     17  C   UNL     1       5.195  -2.986  -0.504  0.00  0.00    +0.036 C 
ATOM     18  H   UNL     1       0.836  -3.148  -1.410  0.00  0.00    +0.155 HD
ENDROOT
BRANCH  12  19
ATOM     19  C   UNL     1       4.672   1.098  -1.251  0.00  0.00    +0.020 C 
BRANCH  19  20
ATOM     20  N   UNL     1       5.934   1.501  -1.885  0.00  0.00    +0.393 N 
ATOM     21  H   UNL     1       6.686   1.425  -1.217  0.00  0.00    -0.080 HD
BRANCH  20  22
ATOM     22  C   UNL     1       5.828   2.891  -2.348  0.00  0.00    -0.067 C 
ATOM     23  C   UNL     1       7.120   3.303  -3.084  0.00  0.00    -0.015 C 
ATOM     24  C   UNL     1       7.335   4.782  -2.675  0.00  0.00    -0.002 C 
ATOM     25  C   UNL     1       6.899   4.792  -1.189  0.00  0.00    -0.002 C 
ATOM     26  C   UNL     1       5.688   3.838  -1.143  0.00  0.00    -0.015 C 
ENDBRANCH  20  22
BRANCH  20  27
ATOM     27  C   UNL     1       6.208   0.623  -3.031  0.00  0.00    +0.019 C 
BRANCH  27  28
ATOM     28  C   UNL     1       5.072   0.717  -4.018  0.00  0.00    +0.194 C 
ATOM     29  O   UNL     1       4.186   1.526  -3.847  0.00  0.00    -0.278 OA
ATOM     30  N   UNL     1       5.043  -0.100  -5.090  0.00  0.00    -0.331 N 
ATOM     31  H   UNL     1       5.752  -0.747  -5.227  0.00  0.00    +0.145 HD
ATOM     32  H   UNL     1       4.312  -0.039  -5.725  0.00  0.00    +0.145 HD
ENDBRANCH  27  28
ENDBRANCH  20  27
ENDBRANCH  19  20
ENDBRANCH  12  19
TORSDOF 5
