REMARK  Name = ZINC35026617
REMARK  8 active torsions:
REMARK  status: ('A' for Active; 'I' for Inactive)
REMARK    1  A    between atoms: C_1  and  C_2
REMARK    2  A    between atoms: C_2  and  N_3
REMARK    3  A    between atoms: C_13  and  C_14
REMARK    4  A    between atoms: C_14  and  C_16
REMARK    5  A    between atoms: C_14  and  N_17
REMARK    6  A    between atoms: N_17  and  C_18
REMARK    7  A    between atoms: C_18  and  C_19
REMARK    8  A    between atoms: N_26  and  C_27
REMARK                            x       y       z     vdW  Elec       q    Type
REMARK                         _______ _______ _______ _____ _____    ______ ____
ROOT
ATOM      1  N   UNL     1       4.379  -0.421  -0.380  0.00  0.00    -0.268 N 
ATOM      2  C   UNL     1       4.903  -1.612  -0.732  0.00  0.00    +0.307 C 
ATOM      3  O   UNL     1       4.185  -2.589  -0.819  0.00  0.00    -0.252 OA
ATOM      4  N   UNL     1       6.222  -1.719  -0.987  0.00  0.00    -0.268 N 
ATOM      5  H   UNL     1       6.805  -0.955  -0.853  0.00  0.00    +0.156 HD
ENDROOT
BRANCH   4   6
ATOM      6  C   UNL     1       6.750  -2.931  -1.445  0.00  0.00    +0.049 A 
ATOM      7  C   UNL     1       6.125  -4.129  -1.122  0.00  0.00    +0.024 A 
ATOM      8  C   UNL     1       6.648  -5.324  -1.576  0.00  0.00    +0.002 A 
ATOM      9  C   UNL     1       7.793  -5.329  -2.352  0.00  0.00    +0.001 A 
ATOM     10  C   UNL     1       8.418  -4.139  -2.676  0.00  0.00    +0.017 A 
ATOM     11  C   UNL     1       7.897  -2.939  -2.229  0.00  0.00    +0.039 A 
ATOM     12 BR   UNL     1       8.748  -1.311  -2.678  0.00  0.00    -0.048 Br
ENDBRANCH   4   6
BRANCH   1  13
ATOM     13  C   UNL     1       2.945  -0.304  -0.102  0.00  0.00    +0.141 C 
ATOM     14  C   UNL     1       2.544  -1.336   0.954  0.00  0.00    +0.036 C 
BRANCH  13  25
ATOM     15  N   UNL     1       1.010   0.132  -1.559  0.00  0.00    -0.295 N 
ATOM     16  C   UNL     1       0.277  -0.051  -2.683  0.00  0.00    +0.262 A 
ATOM     17  O   UNL     1      -0.759   0.561  -2.869  0.00  0.00    -0.267 OA
ATOM     18  C   UNL     1       0.781  -1.018  -3.669  0.00  0.00    +0.065 A 
ATOM     19  C   UNL     1       0.103  -1.279  -4.858  0.00  0.00    +0.015 A 
ATOM     20  C   UNL     1       0.621  -2.195  -5.747  0.00  0.00    +0.001 A 
ATOM     21  C   UNL     1       1.810  -2.856  -5.468  0.00  0.00    +0.002 A 
ATOM     22  C   UNL     1       2.495  -2.612  -4.300  0.00  0.00    +0.028 A 
ATOM     23  C   UNL     1       1.991  -1.688  -3.382  0.00  0.00    +0.078 A 
ATOM     24  N   UNL     1       2.633  -1.417  -2.219  0.00  0.00    -0.232 NA
ATOM     25  C   UNL     1       2.167  -0.554  -1.369  0.00  0.00    +0.133 A 
BRANCH  15  27
ATOM     26  C   UNL     1       1.207   2.445  -0.789  0.00  0.00    +0.027 C 
ATOM     27  C   UNL     1       0.554   1.084  -0.543  0.00  0.00    +0.123 C 
ENDBRANCH  15  27
ENDBRANCH  13  25
ENDBRANCH   1  13
BRANCH   1  28
ATOM     28  C   UNL     1       5.243   0.757  -0.274  0.00  0.00    +0.184 C 
BRANCH  28  29
ATOM     29  C   UNL     1       5.859   0.807   1.100  0.00  0.00    +0.122 A 
ATOM     30  C   UNL     1       7.073   0.334   1.436  0.00  0.00    +0.046 A 
ATOM     31  C   UNL     1       7.244   0.588   2.816  0.00  0.00    +0.041 A 
ATOM     32  C   UNL     1       6.125   1.201   3.241  0.00  0.00    +0.195 A 
ATOM     33  O   UNL     1       5.292   1.336   2.196  0.00  0.00    -0.466 OA
ENDBRANCH  28  29
ENDBRANCH   1  28
TORSDOF 6
