REMARK  Name = ZINC66394711
REMARK  6 active torsions:
REMARK  status: ('A' for Active; 'I' for Inactive)
REMARK    1  A    between atoms: C_3  and  C_9
REMARK    2  A    between atoms: C_9  and  C_11
REMARK    3  A    between atoms: C_9  and  N_13
REMARK    4  A    between atoms: C_14  and  C_16
REMARK    5  A    between atoms: C_16  and  S_17
REMARK    6  A    between atoms: S_17  and  C_18
REMARK                            x       y       z     vdW  Elec       q    Type
REMARK                         _______ _______ _______ _____ _____    ______ ____
ROOT
ATOM      1  N   UNL     1       3.443   3.514  -0.598  0.00  0.00    -0.296 N 
ATOM      2  C   UNL     1       4.435   4.142  -1.259  0.00  0.00    +0.224 C 
ATOM      3  O   UNL     1       5.517   3.607  -1.379  0.00  0.00    -0.275 OA
ATOM      4  H   UNL     1       2.577   3.942  -0.502  0.00  0.00    +0.150 HD
ENDROOT
BRANCH   1   5
ATOM      5  C   UNL     1       3.671   2.186  -0.023  0.00  0.00    +0.208 C 
BRANCH   5   8
ATOM      6  C   UNL     1      -0.024   1.453   0.234  0.00  0.00    +0.002 A 
ATOM      7  C   UNL     1       1.176   2.137   0.165  0.00  0.00    +0.008 A 
ATOM      8  C   UNL     1       2.364   1.440   0.053  0.00  0.00    +0.006 A 
ATOM      9  C   UNL     1       2.354   0.057   0.011  0.00  0.00    +0.065 A 
ATOM     10  C   UNL     1       1.153  -0.628   0.081  0.00  0.00    +0.060 A 
ATOM     11  C   UNL     1      -0.036   0.072   0.192  0.00  0.00    +0.021 A 
ATOM     12 CL   UNL     1       1.138  -2.363   0.027  0.00  0.00    -0.082 Cl
ATOM     13 CL   UNL     1       3.846  -0.819  -0.130  0.00  0.00    -0.082 Cl
ENDBRANCH   5   8
BRANCH   5  14
ATOM     14  C   UNL     1       4.235   2.327   1.330  0.00  0.00    +0.090 C 
ATOM     15  N   UNL     1       4.670   2.436   2.373  0.00  0.00    -0.194 NA
ENDBRANCH   5  14
ENDBRANCH   1   5
BRANCH   2  16
ATOM     16  C   UNL     1       4.200   5.508  -1.851  0.00  0.00    +0.165 C 
BRANCH  16  17
ATOM     17  S   UNL     1       5.713   6.081  -2.671  0.00  0.00    -0.146 S 
BRANCH  17  18
ATOM     18  C   UNL     1       5.269   7.715  -3.320  0.00  0.00    +0.069 C 
ATOM     19  C   UNL     1       4.990   8.671  -2.149  0.00  0.00    +0.038 C 
ATOM     20  C   UNL     1       4.923  10.120  -2.712  0.00  0.00    +0.167 C 
ATOM     21  S   UNL     1       6.313  10.077  -3.920  0.00  0.00    -0.030 S 
ATOM     22  O   UNL     1       5.892  10.691  -5.130  0.00  0.00    -0.174 OA
ATOM     23  O   UNL     1       7.496  10.533  -3.279  0.00  0.00    -0.174 OA
ATOM     24  C   UNL     1       6.435   8.261  -4.179  0.00  0.00    +0.180 C 
ENDBRANCH  17  18
ENDBRANCH  16  17
ENDBRANCH   2  16
TORSDOF 6
