REMARK  Name = ZINC36309471
REMARK  14 active torsions:
REMARK  status: ('A' for Active; 'I' for Inactive)
REMARK    1  A    between atoms: C_1  and  C_2
REMARK    2  A    between atoms: C_6  and  O_8
REMARK    3  A    between atoms: O_8  and  C_9
REMARK    4  A    between atoms: C_9  and  C_10
REMARK    5  A    between atoms: C_20  and  C_22
REMARK    6  A    between atoms: C_22  and  N_23
REMARK    7  A    between atoms: N_23  and  C_24
REMARK    8  A    between atoms: N_23  and  C_37
REMARK    9  A    between atoms: C_24  and  C_25
REMARK   10  A    between atoms: C_25  and  C_27
REMARK   11  A    between atoms: C_25  and  O_36
REMARK   12  A    between atoms: C_27  and  O_28
REMARK   13  A    between atoms: O_28  and  C_29
REMARK   14  A    between atoms: C_29  and  C_30
REMARK                            x       y       z     vdW  Elec       q    Type
REMARK                         _______ _______ _______ _____ _____    ______ ____
ROOT
ATOM      1  C   UNL     1       0.672  -3.610   3.290  0.00  0.00    +0.144 C 
ATOM      2  C   UNL     1      -0.357  -2.692   3.947  0.00  0.00    -0.014 A 
ATOM      3  C   UNL     1      -1.711  -2.702   3.615  0.00  0.00    +0.013 A 
ATOM      4  C   UNL     1      -2.566  -1.857   4.236  0.00  0.00    +0.046 A 
ATOM      5  S   UNL     1      -1.476  -0.983   5.349  0.00  0.00    -0.101 S 
ATOM      6  C   UNL     1       0.030  -1.808   4.906  0.00  0.00    -0.004 A 
ATOM      7  C   UNL     1       1.402  -1.593   5.456  0.00  0.00    +0.061 C 
ATOM      8  C   UNL     1       2.421  -2.235   4.503  0.00  0.00    +0.113 C 
ATOM      9  N   UNL     1       1.904  -3.549   4.089  0.00  0.00    -0.292 N 
ATOM     10  C   UNL     1       2.548  -4.680   4.438  0.00  0.00    +0.200 C 
ATOM     11  O   UNL     1       2.112  -5.758   4.093  0.00  0.00    -0.278 OA
ENDROOT
BRANCH   1  12
ATOM     12  C   UNL     1       0.955  -3.134   1.864  0.00  0.00    +0.256 C 
BRANCH  12  13
ATOM     13  O   UNL     1       1.337  -1.757   1.888  0.00  0.00    -0.490 OA
BRANCH  13  19
ATOM     14  C   UNL     1       2.706   2.196  -0.626  0.00  0.00    +0.044 C 
ATOM     15  C   UNL     1       2.296   0.747  -0.571  0.00  0.00    -0.047 A 
ATOM     16  C   UNL     1       2.212   0.008  -1.736  0.00  0.00    +0.003 A 
ATOM     17  C   UNL     1       1.836  -1.321  -1.689  0.00  0.00    +0.004 A 
ATOM     18  C   UNL     1       1.543  -1.915  -0.477  0.00  0.00    +0.045 A 
ATOM     19  C   UNL     1       1.626  -1.176   0.694  0.00  0.00    +0.121 A 
ATOM     20  C   UNL     1       2.009   0.157   0.645  0.00  0.00    +0.049 A 
ENDBRANCH  13  19
ENDBRANCH  12  13
ENDBRANCH   1  12
BRANCH  10  21
ATOM     21  C   UNL     1       3.811  -4.605   5.257  0.00  0.00    +0.019 C 
BRANCH  21  22
ATOM     22  N   UNL     1       4.316  -5.963   5.503  0.00  0.00    +0.389 N 
ATOM     23  H   UNL     1       3.591  -6.519   5.931  0.00  0.00    -0.081 HD
BRANCH  22  24
ATOM     24  C   UNL     1       4.715  -6.575   4.229  0.00  0.00    -0.068 C 
ATOM     25  C   UNL     1       3.919  -7.790   3.749  0.00  0.00    -0.017 C 
ATOM     26  C   UNL     1       5.343  -7.969   4.281  0.00  0.00    -0.017 C 
ENDBRANCH  22  24
BRANCH  22  27
ATOM     27  C   UNL     1       5.477  -5.898   6.401  0.00  0.00    -0.044 C 
BRANCH  27  28
ATOM     28  C   UNL     1       6.522  -4.946   5.815  0.00  0.00    +0.124 C 
BRANCH  28  29
ATOM     29  O   UNL     1       7.010  -5.475   4.580  0.00  0.00    -0.391 OA
ATOM     30  H   UNL     1       7.428  -6.342   4.662  0.00  0.00    +0.210 HD
ENDBRANCH  28  29
BRANCH  28  31
ATOM     31  C   UNL     1       7.683  -4.795   6.799  0.00  0.00    +0.189 C 
BRANCH  31  32
ATOM     32  O   UNL     1       8.602  -3.818   6.306  0.00  0.00    -0.373 OA
BRANCH  32  33
ATOM     33  C   UNL     1       9.730  -3.599   7.156  0.00  0.00    +0.195 C 
BRANCH  33  34
ATOM     34  C   UNL     1      10.627  -2.556   6.541  0.00  0.00    -0.022 A 
ATOM     35  C   UNL     1      11.637  -2.935   5.676  0.00  0.00    +0.006 A 
ATOM     36  C   UNL     1      12.460  -1.978   5.113  0.00  0.00    +0.000 A 
ATOM     37  C   UNL     1      12.273  -0.641   5.414  0.00  0.00    +0.000 A 
ATOM     38  C   UNL     1      11.262  -0.262   6.278  0.00  0.00    +0.000 A 
ATOM     39  C   UNL     1      10.437  -1.219   6.838  0.00  0.00    +0.006 A 
ENDBRANCH  33  34
ENDBRANCH  32  33
ENDBRANCH  31  32
ENDBRANCH  28  31
ENDBRANCH  27  28
ENDBRANCH  22  27
ENDBRANCH  21  22
ENDBRANCH  10  21
TORSDOF 13
