REMARK  Name = ZINC23914114
REMARK  7 active torsions:
REMARK  status: ('A' for Active; 'I' for Inactive)
REMARK    1  A    between atoms: C_1  and  C_2
REMARK    2  A    between atoms: C_5  and  O_9
REMARK    3  A    between atoms: C_7  and  C_8
REMARK    4  A    between atoms: O_9  and  C_10
REMARK    5  A    between atoms: C_10  and  C_11
REMARK    6  A    between atoms: N_13  and  N_14
REMARK    7  A    between atoms: C_15  and  C_17
REMARK                            x       y       z     vdW  Elec       q    Type
REMARK                         _______ _______ _______ _____ _____    ______ ____
ROOT
ATOM      1  C   UNL     1       0.079  -6.266  -1.108  0.00  0.00    +0.267 C 
ATOM      2  O   UNL     1       0.090  -6.735   0.010  0.00  0.00    -0.271 OA
ATOM      3  N   UNL     1       0.084  -7.081  -2.182  0.00  0.00    -0.231 N 
ATOM      4  H   UNL     1       0.074  -6.705  -3.076  0.00  0.00    +0.173 HD
ENDROOT
BRANCH   3   5
ATOM      5  N   UNL     1       0.103  -8.471  -2.006  0.00  0.00    -0.229 N 
ATOM      6  C   UNL     1       0.108  -9.286  -3.079  0.00  0.00    +0.276 C 
ATOM      7  O   UNL     1       0.096  -8.815  -4.201  0.00  0.00    -0.267 OA
ATOM      8  H   UNL     1       0.112  -8.846  -1.111  0.00  0.00    +0.173 HD
BRANCH   6   9
ATOM      9  C   UNL     1       0.128 -10.741  -2.895  0.00  0.00    +0.104 A 
ATOM     10  C   UNL     1       0.141 -11.689  -3.896  0.00  0.00    +0.047 A 
ATOM     11  C   UNL     1       0.158 -12.942  -3.275  0.00  0.00    +0.036 A 
ATOM     12  C   UNL     1       0.155 -12.742  -1.935  0.00  0.00    +0.098 A 
ATOM     13  N   UNL     1       0.142 -11.408  -1.691  0.00  0.00    -0.356 N 
ATOM     14  H   UNL     1       0.142 -10.993  -0.814  0.00  0.00    +0.166 HD
ATOM     15 BR   UNL     1       0.181 -14.618  -4.151  0.00  0.00    -0.049 Br
ENDBRANCH   6   9
ENDBRANCH   3   5
BRANCH   1  16
ATOM     16  C   UNL     1       0.058  -4.771  -1.298  0.00  0.00    +0.326 C 
BRANCH  16  17
ATOM     17  O   UNL     1       0.057  -4.129  -0.021  0.00  0.00    -0.483 OA
BRANCH  17  22
ATOM     18  C   UNL     1      -0.018   1.503   0.010  0.00  0.00    +0.044 C 
ATOM     19  C   UNL     1       0.002  -0.004   0.002  0.00  0.00    -0.047 A 
ATOM     20  C   UNL     1       0.006  -0.688  -1.200  0.00  0.00    +0.007 A 
ATOM     21  C   UNL     1       0.024  -2.069  -1.210  0.00  0.00    +0.046 A 
ATOM     22  C   UNL     1       0.039  -2.770  -0.013  0.00  0.00    +0.121 A 
ATOM     23  C   UNL     1       0.036  -2.082   1.191  0.00  0.00    +0.049 A 
ATOM     24  C   UNL     1       0.023  -0.701   1.196  0.00  0.00    -0.044 A 
ATOM     25  C   UNL     1       0.025   0.048   2.504  0.00  0.00    +0.044 C 
ENDBRANCH  17  22
ENDBRANCH  16  17
ENDBRANCH   1  16
TORSDOF 5
