REMARK  Name = ZINC14531080
REMARK  14 active torsions:
REMARK  status: ('A' for Active; 'I' for Inactive)
REMARK    1  A    between atoms: C_1  and  C_2
REMARK    2  A    between atoms: C_2  and  C_3
REMARK    3  A    between atoms: C_2  and  C_4
REMARK    4  A    between atoms: C_4  and  C_5
REMARK    5  A    between atoms: C_5  and  N_6
REMARK    6  A    between atoms: N_9  and  C_27
REMARK    7  A    between atoms: C_17  and  C_18
REMARK    8  A    between atoms: C_17  and  N_74
REMARK    9  A    between atoms: C_21  and  O_26
REMARK   10  A    between atoms: C_22  and  O_24
REMARK   11  A    between atoms: O_24  and  C_25
REMARK   12  A    between atoms: C_27  and  C_28
REMARK   13  A    between atoms: C_28  and  C_29
REMARK   14  A    between atoms: C_29  and  C_30
REMARK                            x       y       z     vdW  Elec       q    Type
REMARK                         _______ _______ _______ _____ _____    ______ ____
ROOT
ATOM      1  N   UNL     1      -2.053   0.963   1.371  0.00  0.00    -0.271 N 
ATOM      2  C   UNL     1      -2.056   0.281   2.533  0.00  0.00    +0.312 C 
ATOM      3  O   UNL     1      -3.016  -0.334   2.954  0.00  0.00    -0.252 OA
ATOM      4  N   UNL     1      -0.883   0.358   3.173  0.00  0.00    -0.224 N 
ATOM      5  C   UNL     1       0.009   1.103   2.487  0.00  0.00    +0.247 C 
ATOM      6  O   UNL     1       1.152   1.357   2.804  0.00  0.00    -0.273 OA
ATOM      7  C   UNL     1      -0.716   1.554   1.241  0.00  0.00    +0.112 C 
ATOM      8  C   UNL     1      -0.015   1.023  -0.006  0.00  0.00    +0.017 C 
ATOM      9  C   UNL     1      -0.754   1.518  -1.252  0.00  0.00    -0.076 C 
ATOM     10  C   UNL     1      -1.519   3.504  -0.090  0.00  0.00    -0.076 C 
ATOM     11  C   UNL     1      -0.806   3.076   1.195  0.00  0.00    +0.017 C 
ATOM     12  N   UNL     1      -0.757   2.997  -1.252  0.00  0.00    +0.382 N 
ATOM     13  H   UNL     1       0.212   3.331  -1.185  0.00  0.00    -0.081 HD
ENDROOT
BRANCH   1  14
ATOM     14  C   UNL     1      -3.165   1.089   0.426  0.00  0.00    +0.110 C 
BRANCH  14  15
ATOM     15  C   UNL     1      -3.461  -0.276  -0.199  0.00  0.00    +0.022 C 
BRANCH  15  17
ATOM     16  C   UNL     1      -4.742  -1.460  -1.987  0.00  0.00    +0.007 C 
ATOM     17  C   UNL     1      -4.534  -0.121  -1.278  0.00  0.00    -0.016 C 
ATOM     18  C   UNL     1      -5.848   0.323  -0.632  0.00  0.00    +0.007 C 
ENDBRANCH  15  17
ENDBRANCH  14  15
ENDBRANCH   1  14
BRANCH  12  19
ATOM     19  C   UNL     1      -1.353   3.501  -2.506  0.00  0.00    -0.043 C 
BRANCH  19  20
ATOM     20  C   UNL     1      -1.597   4.982  -2.376  0.00  0.00    -0.060 A 
ATOM     21  C   UNL     1      -2.815   5.443  -1.911  0.00  0.00    +0.005 A 
ATOM     22  C   UNL     1      -3.041   6.801  -1.784  0.00  0.00    +0.049 A 
ATOM     23  C   UNL     1      -2.050   7.704  -2.135  0.00  0.00    +0.158 A 
ATOM     24  C   UNL     1      -0.827   7.240  -2.609  0.00  0.00    +0.161 A 
ATOM     25  C   UNL     1      -0.604   5.878  -2.727  0.00  0.00    +0.051 A 
BRANCH  24  26
ATOM     26  O   UNL     1       0.149   8.123  -2.954  0.00  0.00    -0.491 OA
ATOM     27  C   UNL     1       1.379   7.575  -3.432  0.00  0.00    +0.277 C 
ENDBRANCH  24  26
BRANCH  23  28
ATOM     28  O   UNL     1      -2.273   9.040  -2.016  0.00  0.00    -0.503 OA
ATOM     29  H   UNL     1      -2.650   9.448  -2.808  0.00  0.00    +0.292 HD
ENDBRANCH  23  28
ENDBRANCH  19  20
ENDBRANCH  12  19
BRANCH   4  30
ATOM     30  C   UNL     1      -0.602  -0.286   4.458  0.00  0.00    +0.118 C 
BRANCH  30  31
ATOM     31  C   UNL     1      -0.050  -1.692   4.214  0.00  0.00    +0.024 C 
BRANCH  31  32
ATOM     32  C   UNL     1       0.243  -2.366   5.556  0.00  0.00    +0.037 C 
BRANCH  32  33
ATOM     33  C   UNL     1       0.787  -3.750   5.315  0.00  0.00    -0.044 A 
ATOM     34  C   UNL     1      -0.064  -4.842   5.229  0.00  0.00    +0.023 A 
ATOM     35  C   UNL     1       0.471  -6.096   5.003  0.00  0.00    +0.111 A 
ATOM     36  N   UNL     1       1.773  -6.262   4.879  0.00  0.00    -0.263 NA
ATOM     37  C   UNL     1       2.612  -5.248   4.960  0.00  0.00    +0.111 A 
ATOM     38  C   UNL     1       2.150  -3.964   5.180  0.00  0.00    +0.023 A 
ENDBRANCH  32  33
ENDBRANCH  31  32
ENDBRANCH  30  31
ENDBRANCH   4  30
TORSDOF 11
