REMARK  Name = ZINC17886947
REMARK  9 active torsions:
REMARK  status: ('A' for Active; 'I' for Inactive)
REMARK    1  A    between atoms: C_1  and  C_2
REMARK    2  A    between atoms: C_5  and  S_8
REMARK    3  A    between atoms: S_8  and  N_11
REMARK    4  A    between atoms: N_11  and  C_12
REMARK    5  A    between atoms: N_11  and  C_27
REMARK    6  A    between atoms: C_12  and  C_13
REMARK    7  A    between atoms: N_15  and  N_16
REMARK    8  A    between atoms: C_30  and  C_34
REMARK    9  A    between atoms: C_31  and  C_33
REMARK                            x       y       z     vdW  Elec       q    Type
REMARK                         _______ _______ _______ _____ _____    ______ ____
ROOT
ATOM      1  N   UNL     1       1.651  -4.999  -0.034  0.00  0.00    -0.194 N 
ENDROOT
BRANCH   1   2
ATOM      2  C   UNL     1       2.284  -5.292  -1.244  0.00  0.00    +0.052 A 
ATOM      3  C   UNL     1       3.515  -4.721  -1.542  0.00  0.00    +0.025 A 
ATOM      4  C   UNL     1       4.139  -5.013  -2.739  0.00  0.00    +0.005 A 
ATOM      5  C   UNL     1       3.539  -5.872  -3.642  0.00  0.00    -0.047 A 
ATOM      6  C   UNL     1       2.313  -6.441  -3.349  0.00  0.00    -0.046 A 
ATOM      7  C   UNL     1       1.687  -6.158  -2.151  0.00  0.00    +0.028 A 
ATOM      8  C   UNL     1       1.663  -7.375  -4.337  0.00  0.00    +0.044 C 
ATOM      9  C   UNL     1       4.222  -6.187  -4.947  0.00  0.00    +0.044 C 
ENDBRANCH   1   2
BRANCH   1  10
ATOM     10  S   UNL     1       0.149  -4.301  -0.033  0.00  0.00    +0.075 S 
ATOM     11  O   UNL     1      -0.501  -4.738   1.152  0.00  0.00    -0.150 OA
ATOM     12  O   UNL     1      -0.399  -4.515  -1.326  0.00  0.00    -0.150 OA
BRANCH  10  17
ATOM     13  C   UNL     1       0.949   1.653   0.535  0.00  0.00    +0.044 C 
ATOM     14  C   UNL     1       0.750   0.166   0.394  0.00  0.00    -0.050 A 
ATOM     15  C   UNL     1       0.708  -0.409  -0.863  0.00  0.00    +0.005 A 
ATOM     16  C   UNL     1       0.525  -1.773  -0.993  0.00  0.00    +0.029 A 
ATOM     17  C   UNL     1       0.384  -2.562   0.133  0.00  0.00    +0.109 A 
ATOM     18  C   UNL     1       0.427  -1.988   1.389  0.00  0.00    +0.029 A 
ATOM     19  C   UNL     1       0.614  -0.624   1.520  0.00  0.00    +0.005 A 
ENDBRANCH  10  17
ENDBRANCH   1  10
BRANCH   1  20
ATOM     20  C   UNL     1       2.315  -5.311   1.234  0.00  0.00    +0.228 C 
BRANCH  20  21
ATOM     21  C   UNL     1       2.043  -6.746   1.604  0.00  0.00    +0.251 C 
ATOM     22  O   UNL     1       1.361  -7.440   0.881  0.00  0.00    -0.272 OA
ATOM     23  N   UNL     1       2.557  -7.258   2.740  0.00  0.00    -0.205 N 
ATOM     24  H   UNL     1       3.102  -6.703   3.319  0.00  0.00    +0.177 HD
BRANCH  23  25
ATOM     25  N   UNL     1       2.304  -8.592   3.085  0.00  0.00    -0.174 NA
ATOM     26  C   UNL     1       2.804  -9.090   4.189  0.00  0.00    +0.152 C 
ATOM     27  C   UNL     1       2.649 -10.469   4.709  0.00  0.00    +0.028 A 
ATOM     28  C   UNL     1       1.981 -11.594   4.238  0.00  0.00    +0.012 A 
ATOM     29  C   UNL     1       2.021 -12.768   4.964  0.00  0.00    +0.001 A 
ATOM     30  C   UNL     1       2.724 -12.823   6.156  0.00  0.00    +0.002 A 
ATOM     31  C   UNL     1       3.390 -11.711   6.631  0.00  0.00    +0.024 A 
ATOM     32  C   UNL     1       3.361 -10.520   5.913  0.00  0.00    +0.043 A 
ATOM     33  N   UNL     1       3.935  -9.278   6.162  0.00  0.00    -0.280 N 
ATOM     34  C   UNL     1       3.649  -8.400   5.185  0.00  0.00    +0.269 C 
ATOM     35  O   UNL     1       4.019  -7.242   5.131  0.00  0.00    -0.268 OA
ATOM     36  H   UNL     1       4.476  -9.072   6.940  0.00  0.00    +0.155 HD
ENDBRANCH  23  25
ENDBRANCH  20  21
ENDBRANCH   1  20
TORSDOF 6
