REMARK  Name = ZINC11307243
REMARK  9 active torsions:
REMARK  status: ('A' for Active; 'I' for Inactive)
REMARK    1  A    between atoms: C_1  and  C_2
REMARK    2  A    between atoms: C_2  and  C_4
REMARK    3  A    between atoms: C_2  and  O_17
REMARK    4  A    between atoms: N_6  and  C_7
REMARK    5  A    between atoms: C_10  and  N_14
REMARK    6  A    between atoms: O_17  and  C_18
REMARK    7  A    between atoms: C_18  and  C_20
REMARK    8  A    between atoms: C_22  and  C_31
REMARK    9  A    between atoms: N_23  and  C_25
REMARK                            x       y       z     vdW  Elec       q    Type
REMARK                         _______ _______ _______ _____ _____    ______ ____
ROOT
ATOM      1  C   UNL     1       4.738   1.240  -0.434  0.00  0.00    +0.379 C 
ATOM      2  O   UNL     1       4.789   0.106  -0.868  0.00  0.00    -0.241 OA
ENDROOT
BRANCH   1   3
ATOM      3  C   UNL     1       5.936   2.104  -0.486  0.00  0.00    +0.260 A 
ATOM      4  N   UNL     1       6.000   3.368  -0.046  0.00  0.00    -0.200 NA
ATOM      5  C   UNL     1       7.212   3.845  -0.240  0.00  0.00    +0.171 A 
ATOM      6  N   UNL     1       7.958   2.864  -0.832  0.00  0.00    -0.211 N 
ATOM      7  N   UNL     1       7.108   1.756  -0.976  0.00  0.00    -0.137 NA
BRANCH   6   8
ATOM      8  C   UNL     1       9.302   2.948  -1.216  0.00  0.00    +0.068 A 
ATOM      9  C   UNL     1       9.813   4.143  -1.705  0.00  0.00    +0.028 A 
ATOM     10  C   UNL     1      11.140   4.224  -2.079  0.00  0.00    +0.002 A 
ATOM     11  C   UNL     1      11.957   3.113  -1.978  0.00  0.00    +0.000 A 
ATOM     12  C   UNL     1      11.450   1.920  -1.496  0.00  0.00    +0.002 A 
ATOM     13  C   UNL     1      10.125   1.834  -1.115  0.00  0.00    +0.028 A 
ENDBRANCH   6   8
BRANCH   5  14
ATOM     14  C   UNL     1       7.679   5.196   0.111  0.00  0.00    +0.056 A 
ATOM     15  C   UNL     1       6.943   6.306   0.441  0.00  0.00    +0.019 A 
ATOM     16  C   UNL     1       7.607   7.474   0.737  0.00  0.00    +0.008 A 
ATOM     17  C   UNL     1       8.965   7.494   0.694  0.00  0.00    +0.046 A 
ATOM     18  S   UNL     1       9.350   5.814   0.228  0.00  0.00    -0.094 S 
ENDBRANCH   5  14
ENDBRANCH   1   3
BRANCH   1  19
ATOM     19  O   UNL     1       3.591   1.709   0.093  0.00  0.00    -0.446 OA
BRANCH  19  21
ATOM     20  C   UNL     1       2.458   0.008   1.417  0.00  0.00    +0.062 C 
ATOM     21  C   UNL     1       2.455   0.805   0.111  0.00  0.00    +0.259 C 
BRANCH  21  22
ATOM     22  C   UNL     1       1.179   1.599   0.010  0.00  0.00    +0.258 C 
ATOM     23  O   UNL     1       1.222   2.809  -0.069  0.00  0.00    -0.271 OA
ATOM     24  N   UNL     1      -0.011   0.966   0.007  0.00  0.00    -0.281 N 
ATOM     25  H   UNL     1      -0.044  -0.003  -0.013  0.00  0.00    +0.155 HD
BRANCH  24  26
ATOM     26  C   UNL     1      -1.198   1.707   0.028  0.00  0.00    +0.052 A 
ATOM     27  C   UNL     1      -1.208   2.992   0.553  0.00  0.00    +0.027 A 
ATOM     28  C   UNL     1      -2.381   3.720   0.572  0.00  0.00    +0.034 A 
ATOM     29  C   UNL     1      -3.546   3.172   0.069  0.00  0.00    +0.128 A 
ATOM     30  C   UNL     1      -3.541   1.892  -0.455  0.00  0.00    +0.054 A 
ATOM     31  C   UNL     1      -2.369   1.160  -0.483  0.00  0.00    +0.064 A 
ATOM     32 CL   UNL     1      -2.362  -0.444  -1.147  0.00  0.00    -0.082 Cl
BRANCH  29  33
ATOM     33  N   UNL     1      -4.801   3.956   0.090  0.00  0.00    +0.056 N 
ATOM     34  O   UNL     1      -4.807   5.083   0.551  0.00  0.00    -0.126 OA
ATOM     35  O   UNL     1      -5.828   3.474  -0.353  0.00  0.00    -0.126 OA
ENDBRANCH  29  33
ENDBRANCH  24  26
ENDBRANCH  21  22
ENDBRANCH  19  21
ENDBRANCH   1  19
TORSDOF 8
