REMARK  Name = ZINC39771832
REMARK  12 active torsions:
REMARK  status: ('A' for Active; 'I' for Inactive)
REMARK    1  A    between atoms: C_1  and  C_2
REMARK    2  A    between atoms: C_2  and  N_3
REMARK    3  A    between atoms: N_3  and  C_4
REMARK    4  A    between atoms: C_4  and  C_5
REMARK    5  A    between atoms: C_6  and  C_8
REMARK    6  A    between atoms: C_8  and  S_9
REMARK    7  A    between atoms: S_9  and  C_10
REMARK    8  A    between atoms: C_14  and  S_16
REMARK    9  A    between atoms: S_16  and  C_17
REMARK   10  A    between atoms: C_17  and  C_19
REMARK   11  A    between atoms: C_17  and  C_25
REMARK   12  A    between atoms: C_25  and  C_27
REMARK                            x       y       z     vdW  Elec       q    Type
REMARK                         _______ _______ _______ _____ _____    ______ ____
ROOT
ATOM      1  C   UNL     1       5.852  -2.281  -6.289  0.00  0.00    +0.154 C 
ENDROOT
BRANCH   1   2
ATOM      2  C   UNL     1       5.722  -1.917  -7.746  0.00  0.00    -0.027 A 
ATOM      3  C   UNL     1       5.912  -2.881  -8.718  0.00  0.00    +0.005 A 
ATOM      4  C   UNL     1       5.793  -2.548 -10.054  0.00  0.00    +0.000 A 
ATOM      5  C   UNL     1       5.483  -1.250 -10.418  0.00  0.00    +0.000 A 
ATOM      6  C   UNL     1       5.292  -0.287  -9.446  0.00  0.00    +0.000 A 
ATOM      7  C   UNL     1       5.407  -0.621  -8.109  0.00  0.00    +0.005 A 
ENDBRANCH   1   2
BRANCH   1   8
ATOM      8  C   UNL     1       7.245  -2.791  -6.021  0.00  0.00    +0.179 C 
ATOM      9  O   UNL     1       7.468  -3.985  -6.040  0.00  0.00    -0.291 OA
BRANCH   8  10
ATOM     10  C   UNL     1       8.289  -1.883  -5.748  0.00  0.00    +0.025 C 
ATOM     11  C   UNL     1       9.614  -2.184  -5.489  0.00  0.00    +0.006 A 
ATOM     12  C   UNL     1      10.326  -3.405  -5.412  0.00  0.00    +0.010 A 
ATOM     13  C   UNL     1      11.649  -3.405  -5.134  0.00  0.00    +0.001 A 
ATOM     14  C   UNL     1      12.373  -2.223  -4.913  0.00  0.00    +0.002 A 
ATOM     15  C   UNL     1      11.788  -1.006  -4.963  0.00  0.00    +0.026 A 
ATOM     16  C   UNL     1      10.349  -0.916  -5.260  0.00  0.00    +0.043 A 
ATOM     17  N   UNL     1       9.546   0.103  -5.367  0.00  0.00    -0.380 N 
ATOM     18  C   UNL     1       8.196  -0.374  -5.685  0.00  0.00    +0.152 C 
ATOM     19  H   UNL     1       9.801   1.033  -5.259  0.00  0.00    +0.160 HD
ENDBRANCH   8  10
ENDBRANCH   1   8
BRANCH   1  20
ATOM     20  S   UNL     1       4.646  -3.571  -5.878  0.00  0.00    -0.081 S 
BRANCH  20  24
ATOM     21  C   UNL     1       0.482  -1.982  -6.311  0.00  0.00    +0.211 C 
ATOM     22  N   UNL     1       1.585  -1.042  -6.614  0.00  0.00    -0.244 N 
ATOM     23  N   UNL     1       2.853  -1.561  -6.471  0.00  0.00    -0.172 NA
ATOM     24  C   UNL     1       3.086  -2.782  -6.099  0.00  0.00    +0.152 C 
ATOM     25  S   UNL     1       1.456  -3.478  -5.865  0.00  0.00    -0.063 S 
ATOM     26  H   UNL     1       1.427  -0.127  -6.893  0.00  0.00    +0.170 HD
BRANCH  21  27
ATOM     27  S   UNL     1      -0.514  -1.401  -4.910  0.00  0.00    -0.117 S 
BRANCH  27  28
ATOM     28  C   UNL     1       0.692  -1.190  -3.572  0.00  0.00    +0.167 C 
BRANCH  28  30
ATOM     29  N   UNL     1       0.688  -0.476  -1.203  0.00  0.00    -0.301 N 
ATOM     30  C   UNL     1      -0.013  -0.705  -2.332  0.00  0.00    +0.225 C 
ATOM     31  O   UNL     1      -1.211  -0.518  -2.349  0.00  0.00    -0.275 OA
BRANCH  29  33
ATOM     32  C   UNL     1      -0.019   1.526   0.010  0.00  0.00    +0.024 C 
ATOM     33  C   UNL     1       0.002  -0.004   0.002  0.00  0.00    +0.104 C 
ENDBRANCH  29  33
BRANCH  29  34
ATOM     34  C   UNL     1       2.135  -0.701  -1.182  0.00  0.00    +0.104 C 
ATOM     35  C   UNL     1       2.421  -2.145  -0.763  0.00  0.00    +0.024 C 
ENDBRANCH  29  34
ENDBRANCH  28  30
ENDBRANCH  27  28
ENDBRANCH  21  27
ENDBRANCH  20  24
ENDBRANCH   1  20
TORSDOF 10
