REMARK  Name = ZINC01823382
REMARK  14 active torsions:
REMARK  status: ('A' for Active; 'I' for Inactive)
REMARK    1  A    between atoms: C_1  and  C_2
REMARK    2  A    between atoms: C_2  and  N_3
REMARK    3  A    between atoms: C_4  and  C_27
REMARK    4  A    between atoms: C_7  and  S_8
REMARK    5  A    between atoms: S_8  and  C_9
REMARK    6  A    between atoms: C_9  and  C_10
REMARK    7  A    between atoms: N_12  and  N_13
REMARK    8  A    between atoms: C_14  and  C_15
REMARK    9  A    between atoms: C_24  and  O_25
REMARK   10  A    between atoms: O_25  and  C_26
REMARK   11  A    between atoms: C_30  and  C_33
REMARK   12  A    between atoms: C_33  and  C_34
REMARK   13  A    between atoms: C_33  and  C_35
REMARK   14  A    between atoms: C_33  and  C_36
REMARK                            x       y       z     vdW  Elec       q    Type
REMARK                         _______ _______ _______ _____ _____    ______ ____
ROOT
ATOM      1  C   UNL     1      -0.180  -4.812  -0.051  0.00  0.00    +0.174 C 
ENDROOT
BRANCH   1   2
ATOM      2  C   UNL     1      -0.751  -6.203  -0.151  0.00  0.00    +0.242 C 
ATOM      3  O   UNL     1      -1.938  -6.359  -0.348  0.00  0.00    -0.273 OA
ATOM      4  N   UNL     1       0.057  -7.274  -0.021  0.00  0.00    -0.206 N 
ATOM      5  H   UNL     1       1.006  -7.149   0.136  0.00  0.00    +0.177 HD
BRANCH   4   6
ATOM      6  N   UNL     1      -0.474  -8.567  -0.114  0.00  0.00    -0.188 NA
ATOM      7  C   UNL     1       0.305  -9.600   0.011  0.00  0.00    +0.142 C 
BRANCH   7   8
ATOM      8  C   UNL     1      -0.251 -10.957  -0.087  0.00  0.00    +0.044 A 
ATOM      9  C   UNL     1       0.611 -12.129   0.045  0.00  0.00    -0.006 A 
ATOM     10  C   UNL     1       1.986 -12.002   0.279  0.00  0.00    +0.009 A 
ATOM     11  C   UNL     1       2.755 -13.121   0.402  0.00  0.00    +0.001 A 
ATOM     12  C   UNL     1       2.191 -14.391   0.303  0.00  0.00    +0.001 A 
ATOM     13  C   UNL     1       0.857 -14.550   0.081  0.00  0.00    +0.008 A 
ATOM     14  C   UNL     1       0.034 -13.419  -0.050  0.00  0.00    -0.017 A 
ATOM     15  C   UNL     1      -1.348 -13.544  -0.279  0.00  0.00    +0.012 A 
ATOM     16  C   UNL     1      -2.135 -12.443  -0.405  0.00  0.00    +0.047 A 
ATOM     17  C   UNL     1      -1.613 -11.153  -0.313  0.00  0.00    +0.129 A 
BRANCH  17  18
ATOM     18  O   UNL     1      -2.437 -10.082  -0.444  0.00  0.00    -0.494 OA
ATOM     19  C   UNL     1      -3.821 -10.352  -0.674  0.00  0.00    +0.277 C 
ENDBRANCH  17  18
ENDBRANCH   7   8
ENDBRANCH   4   6
ENDBRANCH   1   2
BRANCH   1  20
ATOM     20  S   UNL     1      -1.506  -3.599  -0.266  0.00  0.00    -0.077 S 
BRANCH  20  25
ATOM     21  N   UNL     1      -1.079  -0.836  -0.179  0.00  0.00    -0.302 N 
ATOM     22  C   UNL     1       0.003  -0.004  -0.002  0.00  0.00    +0.165 A 
ATOM     23  N   UNL     1       1.054  -0.771   0.169  0.00  0.00    -0.128 NA
ATOM     24  N   UNL     1       0.710  -2.007   0.107  0.00  0.00    -0.122 NA
ATOM     25  C   UNL     1      -0.583  -2.106  -0.107  0.00  0.00    +0.192 A 
BRANCH  22  26
ATOM     26  C   UNL     1      -0.017   1.474   0.001  0.00  0.00    +0.019 A 
ATOM     27  C   UNL     1      -1.082   2.163  -0.582  0.00  0.00    +0.012 A 
ATOM     28  C   UNL     1      -1.096   3.542  -0.570  0.00  0.00    +0.005 A 
ATOM     29  C   UNL     1      -0.053   4.243   0.008  0.00  0.00    -0.042 A 
ATOM     30  C   UNL     1       1.009   3.567   0.582  0.00  0.00    +0.005 A 
ATOM     31  C   UNL     1       1.033   2.188   0.582  0.00  0.00    +0.012 A 
BRANCH  29  32
ATOM     32  C   UNL     1      -0.073   5.750   0.012  0.00  0.00    -0.013 C 
ATOM     33  C   UNL     1       1.153   6.278  -0.737  0.00  0.00    +0.015 C 
ATOM     34  C   UNL     1      -1.345   6.245  -0.679  0.00  0.00    +0.015 C 
ATOM     35  C   UNL     1      -0.046   6.257   1.455  0.00  0.00    +0.015 C 
ENDBRANCH  29  32
ENDBRANCH  22  26
BRANCH  21  37
ATOM     36  C   UNL     1      -2.761  -0.413  -1.903  0.00  0.00    +0.027 C 
ATOM     37  C   UNL     1      -2.472  -0.441  -0.401  0.00  0.00    +0.122 C 
ENDBRANCH  21  37
ENDBRANCH  20  25
ENDBRANCH   1  20
TORSDOF 9
