REMARK  Name = ZINC40055783
REMARK  10 active torsions:
REMARK  status: ('A' for Active; 'I' for Inactive)
REMARK    1  A    between atoms: C_1  and  C_2
REMARK    2  A    between atoms: N_16  and  C_26
REMARK    3  A    between atoms: C_17  and  C_19
REMARK    4  A    between atoms: C_22  and  O_25
REMARK    5  A    between atoms: C_26  and  C_27
REMARK    6  A    between atoms: C_27  and  C_28
REMARK    7  A    between atoms: C_31  and  O_36
REMARK    8  A    between atoms: C_32  and  O_34
REMARK    9  A    between atoms: O_34  and  C_35
REMARK   10  A    between atoms: O_36  and  C_37
REMARK                            x       y       z     vdW  Elec       q    Type
REMARK                         _______ _______ _______ _____ _____    ______ ____
ROOT
ATOM      1  C   UNL     1      -0.018   1.503   0.010  0.00  0.00    +0.045 C 
ATOM      2  C   UNL     1       0.002  -0.004   0.002  0.00  0.00    -0.029 A 
ATOM      3  C   UNL     1       0.006  -0.677  -1.199  0.00  0.00    +0.051 A 
ATOM      4  C   UNL     1       0.026  -2.071  -1.222  0.00  0.00    +0.140 A 
ATOM      5  C   UNL     1       0.047  -2.767  -0.001  0.00  0.00    +0.066 A 
ATOM      6  C   UNL     1       0.040  -2.075   1.209  0.00  0.00    +0.035 A 
ATOM      7  C   UNL     1       0.023  -0.696   1.206  0.00  0.00    +0.045 A 
ATOM      8 CL   UNL     1       0.021   0.175   2.707  0.00  0.00    -0.083 Cl
ATOM      9  C   UNL     1       0.085  -4.251  -0.018  0.00  0.00    +0.199 A 
ATOM     10  O   UNL     1      -0.063  -4.933   0.980  0.00  0.00    -0.287 OA
ATOM     11  C   UNL     1       0.317  -4.817  -1.351  0.00  0.00    +0.072 A 
ATOM     12  C   UNL     1       0.278  -4.030  -2.467  0.00  0.00    +0.199 A 
ATOM     13  O   UNL     1       0.021  -2.708  -2.416  0.00  0.00    -0.450 OA
ATOM     14  C   UNL     1       0.555  -4.877  -3.640  0.00  0.00    +0.283 C 
ATOM     15  O   UNL     1       0.599  -4.483  -4.788  0.00  0.00    -0.267 OA
ATOM     16  N   UNL     1       0.754  -6.154  -3.253  0.00  0.00    -0.283 N 
ATOM     17  C   UNL     1       0.617  -6.213  -1.789  0.00  0.00    +0.144 C 
ENDROOT
BRANCH  17  18
ATOM     18  C   UNL     1       1.905  -6.687  -1.165  0.00  0.00    -0.022 A 
ATOM     19  C   UNL     1       3.117  -6.273  -1.685  0.00  0.00    +0.009 A 
ATOM     20  C   UNL     1       4.298  -6.707  -1.116  0.00  0.00    +0.046 A 
ATOM     21  C   UNL     1       4.268  -7.558  -0.021  0.00  0.00    +0.117 A 
ATOM     22  C   UNL     1       3.050  -7.972   0.499  0.00  0.00    +0.046 A 
ATOM     23  C   UNL     1       1.871  -7.531  -0.070  0.00  0.00    +0.009 A 
BRANCH  21  24
ATOM     24  O   UNL     1       5.429  -7.987   0.541  0.00  0.00    -0.507 OA
ATOM     25  H   UNL     1       5.760  -7.413   1.246  0.00  0.00    +0.292 HD
ENDBRANCH  21  24
ENDBRANCH  17  18
BRANCH  16  26
ATOM     26  C   UNL     1       1.053  -7.284  -4.136  0.00  0.00    +0.114 C 
BRANCH  26  27
ATOM     27  C   UNL     1       2.568  -7.415  -4.302  0.00  0.00    +0.054 C 
BRANCH  27  28
ATOM     28  C   UNL     1       2.876  -8.578  -5.210  0.00  0.00    -0.042 A 
ATOM     29  C   UNL     1       3.051  -9.841  -4.677  0.00  0.00    +0.007 A 
ATOM     30  C   UNL     1       3.333 -10.911  -5.506  0.00  0.00    +0.049 A 
ATOM     31  C   UNL     1       3.441 -10.718  -6.874  0.00  0.00    +0.161 A 
ATOM     32  C   UNL     1       3.264  -9.446  -7.410  0.00  0.00    +0.162 A 
ATOM     33  C   UNL     1       2.976  -8.379  -6.574  0.00  0.00    +0.053 A 
BRANCH  32  34
ATOM     34  O   UNL     1       3.368  -9.252  -8.752  0.00  0.00    -0.491 OA
ATOM     35  C   UNL     1       3.174  -7.920  -9.232  0.00  0.00    +0.277 C 
ENDBRANCH  32  34
BRANCH  31  36
ATOM     36  O   UNL     1       3.719 -11.769  -7.691  0.00  0.00    -0.491 OA
ATOM     37  C   UNL     1       3.888 -13.046  -7.071  0.00  0.00    +0.277 C 
ENDBRANCH  31  36
ENDBRANCH  27  28
ENDBRANCH  26  27
ENDBRANCH  16  26
TORSDOF 7
