REMARK  Name = ZINC02126845
REMARK  10 active torsions:
REMARK  status: ('A' for Active; 'I' for Inactive)
REMARK    1  A    between atoms: C_1  and  O_2
REMARK    2  A    between atoms: O_2  and  C_3
REMARK    3  A    between atoms: C_6  and  C_13
REMARK    4  A    between atoms: C_7  and  O_11
REMARK    5  A    between atoms: C_8  and  O_9
REMARK    6  A    between atoms: O_9  and  C_10
REMARK    7  A    between atoms: O_11  and  C_12
REMARK    8  A    between atoms: C_20  and  O_31
REMARK    9  A    between atoms: C_21  and  C_24
REMARK   10  A    between atoms: C_24  and  N_61
REMARK                            x       y       z     vdW  Elec       q    Type
REMARK                         _______ _______ _______ _____ _____    ______ ____
ROOT
ATOM      1  C   UNL     1       1.216  -2.164   0.009  0.00  0.00    +0.062 C 
ATOM      2  C   UNL     1       0.044  -2.845   0.114  0.00  0.00    +0.176 C 
ATOM      3  C   UNL     1      -0.105  -4.300   0.237  0.00  0.00    +0.231 C 
ATOM      4  O   UNL     1       0.777  -5.141   0.266  0.00  0.00    -0.283 OA
ATOM      5  C   UNL     1      -1.561  -4.517   0.317  0.00  0.00    +0.068 A 
ATOM      6  C   UNL     1      -2.350  -5.662   0.443  0.00  0.00    +0.019 A 
ATOM      7  C   UNL     1      -3.711  -5.548   0.493  0.00  0.00    +0.046 A 
ATOM      8  C   UNL     1      -4.311  -4.294   0.418  0.00  0.00    +0.122 A 
ATOM      9  C   UNL     1      -3.541  -3.150   0.294  0.00  0.00    +0.020 A 
ATOM     10  C   UNL     1      -2.156  -3.248   0.241  0.00  0.00    +0.144 A 
ATOM     11  O   UNL     1      -1.197  -2.303   0.130  0.00  0.00    -0.451 OA
ENDROOT
BRANCH   1  15
ATOM     12  C   UNL     1       1.226   2.076   0.193  0.00  0.00    +0.165 A 
ATOM     13  C   UNL     1       0.039   1.391  -0.045  0.00  0.00    +0.050 A 
ATOM     14  C   UNL     1       0.030   0.017  -0.106  0.00  0.00    +0.015 A 
ATOM     15  C   UNL     1       1.222  -0.700   0.074  0.00  0.00    +0.024 A 
ATOM     16  C   UNL     1       2.421  -0.009   0.315  0.00  0.00    +0.172 A 
ATOM     17  C   UNL     1       2.415   1.377   0.373  0.00  0.00    +0.204 A 
BRANCH  12  19
ATOM     18  C   UNL     1      -0.031   4.088   0.058  0.00  0.00    +0.277 C 
ATOM     19  O   UNL     1       1.224   3.433   0.251  0.00  0.00    -0.491 OA
ENDBRANCH  12  19
BRANCH  17  20
ATOM     20  O   UNL     1       3.574   2.053   0.605  0.00  0.00    -0.488 OA
ATOM     21  C   UNL     1       3.862   2.399   1.962  0.00  0.00    +0.277 C 
ENDBRANCH  17  20
BRANCH  16  22
ATOM     22  O   UNL     1       3.580  -0.694   0.490  0.00  0.00    -0.491 OA
ATOM     23  C   UNL     1       4.405  -0.879  -0.662  0.00  0.00    +0.277 C 
ENDBRANCH  16  22
ENDBRANCH   1  15
BRANCH   8  24
ATOM     24  O   UNL     1      -5.664  -4.192   0.469  0.00  0.00    -0.506 OA
ATOM     25  H   UNL     1      -6.094  -4.233  -0.396  0.00  0.00    +0.292 HD
ENDBRANCH   8  24
BRANCH   9  26
ATOM     26  C   UNL     1      -4.205  -1.800   0.214  0.00  0.00    -0.036 C 
BRANCH  26  33
ATOM     27  C   UNL     1      -3.227  -1.403  -1.976  0.00  0.00    -0.078 C 
ATOM     28  C   UNL     1      -3.426  -0.809  -3.343  0.00  0.00    -0.019 C 
ATOM     29  C   UNL     1      -3.134   0.704  -3.268  0.00  0.00    -0.002 C 
ATOM     30  C   UNL     1      -4.246   1.452  -2.693  0.00  0.00    -0.002 C 
ATOM     31  C   UNL     1      -4.559   1.013  -1.247  0.00  0.00    -0.019 C 
ATOM     32  C   UNL     1      -5.340  -0.272  -1.297  0.00  0.00    -0.078 C 
ATOM     33  N   UNL     1      -4.508  -1.519  -1.198  0.00  0.00    +0.383 N 
ATOM     34  H   UNL     1      -5.050  -2.301  -1.583  0.00  0.00    -0.081 HD
ENDBRANCH  26  33
ENDBRANCH   9  26
TORSDOF 7
