REMARK  Name = ZINC38902820
REMARK  8 active torsions:
REMARK  status: ('A' for Active; 'I' for Inactive)
REMARK    1  A    between atoms: C_1  and  C_2
REMARK    2  A    between atoms: C_2  and  C_3
REMARK    3  A    between atoms: C_2  and  C_4
REMARK    4  A    between atoms: C_2  and  C_5
REMARK    5  A    between atoms: C_8  and  C_11
REMARK    6  A    between atoms: C_13  and  C_16
REMARK    7  A    between atoms: C_16  and  N_17
REMARK    8  A    between atoms: C_21  and  C_24
REMARK                            x       y       z     vdW  Elec       q    Type
REMARK                         _______ _______ _______ _____ _____    ______ ____
ROOT
ATOM      1  N   UNL     1       6.442  -3.218  -6.463  0.00  0.00    +0.386 N 
ATOM      2  C   UNL     1       6.726  -3.064  -5.031  0.00  0.00    -0.078 C 
ATOM      3  C   UNL     1       7.533  -4.266  -4.535  0.00  0.00    -0.018 C 
ATOM      4  C   UNL     1       8.850  -4.345  -5.312  0.00  0.00    +0.009 C 
ATOM      5  C   UNL     1       8.543  -4.431  -6.810  0.00  0.00    +0.059 C 
ATOM      6  C   UNL     1       7.699  -3.223  -7.222  0.00  0.00    -0.065 C 
ATOM      7  H   UNL     1       5.955  -4.089  -6.616  0.00  0.00    -0.081 HD
ENDROOT
BRANCH   5   8
ATOM      8  C   UNL     1       9.834  -4.432  -7.588  0.00  0.00    +0.222 C 
ATOM      9  O   UNL     1      10.275  -3.394  -8.034  0.00  0.00    -0.275 OA
ATOM     10  N   UNL     1      10.497  -5.588  -7.790  0.00  0.00    -0.261 N 
ATOM     11  C   UNL     1       9.932  -6.874  -7.354  0.00  0.00    +0.209 C 
ATOM     12  C   UNL     1      11.027  -7.707  -6.738  0.00  0.00    +0.235 C 
ATOM     13  O   UNL     1      10.751  -8.515  -5.876  0.00  0.00    -0.274 OA
ATOM     14  N   UNL     1      12.306  -7.567  -7.133  0.00  0.00    -0.283 N 
ATOM     15  C   UNL     1      12.658  -6.609  -8.090  0.00  0.00    +0.055 A 
ATOM     16  C   UNL     1      11.747  -5.604  -8.429  0.00  0.00    +0.058 A 
ATOM     17  C   UNL     1      12.079  -4.648  -9.372  0.00  0.00    +0.025 A 
ATOM     18  C   UNL     1      13.318  -4.693  -9.987  0.00  0.00    +0.002 A 
ATOM     19  C   UNL     1      14.220  -5.688  -9.662  0.00  0.00    +0.002 A 
ATOM     20  C   UNL     1      13.897  -6.647  -8.709  0.00  0.00    +0.025 A 
ATOM     21  H   UNL     1      12.991  -8.137  -6.751  0.00  0.00    +0.155 HD
ENDBRANCH   5   8
BRANCH   1  22
ATOM     22  C   UNL     1       5.601  -2.103  -6.917  0.00  0.00    +0.022 C 
BRANCH  22  25
ATOM     23  C   UNL     1       2.682  -1.865  -4.774  0.00  0.00    +0.202 A 
ATOM     24  N   UNL     1       3.962  -1.601  -5.095  0.00  0.00    -0.193 NA
ATOM     25  C   UNL     1       4.263  -2.169  -6.228  0.00  0.00    +0.211 A 
ATOM     26  O   UNL     1       3.183  -2.821  -6.677  0.00  0.00    -0.340 OA
ATOM     27  N   UNL     1       2.161  -2.616  -5.712  0.00  0.00    -0.056 NA
BRANCH  23  31
ATOM     28  C   UNL     1       0.670  -0.503  -1.283  0.00  0.00    -0.042 A 
ATOM     29  C   UNL     1       0.001  -1.294  -2.200  0.00  0.00    +0.005 A 
ATOM     30  C   UNL     1       0.649  -1.738  -3.335  0.00  0.00    +0.012 A 
ATOM     31  C   UNL     1       1.980  -1.389  -3.556  0.00  0.00    +0.022 A 
ATOM     32  C   UNL     1       2.649  -0.593  -2.629  0.00  0.00    +0.012 A 
ATOM     33  C   UNL     1       1.990  -0.149  -1.500  0.00  0.00    +0.005 A 
BRANCH  28  35
ATOM     34  C   UNL     1      -0.062   1.509  -0.032  0.00  0.00    +0.015 C 
ATOM     35  C   UNL     1      -0.043  -0.021  -0.046  0.00  0.00    -0.013 C 
ATOM     36  C   UNL     1       0.689  -0.533   1.196  0.00  0.00    +0.015 C 
ATOM     37  C   UNL     1      -1.479  -0.549  -0.047  0.00  0.00    +0.015 C 
ENDBRANCH  28  35
ENDBRANCH  23  31
ENDBRANCH  22  25
ENDBRANCH   1  22
TORSDOF 5
