REMARK  Name = ZINC08710450
REMARK  9 active torsions:
REMARK  status: ('A' for Active; 'I' for Inactive)
REMARK    1  A    between atoms: C_1  and  C_2
REMARK    2  A    between atoms: C_2  and  C_4
REMARK    3  A    between atoms: C_2  and  N_61
REMARK    4  A    between atoms: C_9  and  C_10
REMARK    5  A    between atoms: C_9  and  N_61
REMARK    6  A    between atoms: N_12  and  C_13
REMARK    7  A    between atoms: C_15  and  S_24
REMARK    8  A    between atoms: C_18  and  N_19
REMARK    9  A    between atoms: S_24  and  N_27
REMARK                            x       y       z     vdW  Elec       q    Type
REMARK                         _______ _______ _______ _____ _____    ______ ____
ROOT
ATOM      1  C   UNL     1      -1.224  -0.676   0.107  0.00  0.00    +0.056 A 
ATOM      2  C   UNL     1      -2.411   0.041   0.114  0.00  0.00    +0.053 A 
ATOM      3  C   UNL     1      -3.619  -0.624   0.209  0.00  0.00    +0.107 A 
ATOM      4  C   UNL     1      -3.648  -2.004   0.297  0.00  0.00    +0.030 A 
ATOM      5  C   UNL     1      -2.470  -2.726   0.291  0.00  0.00    +0.027 A 
ATOM      6  C   UNL     1      -1.253  -2.067   0.190  0.00  0.00    +0.051 A 
ENDROOT
BRANCH   6   7
ATOM      7  N   UNL     1      -0.060  -2.797   0.178  0.00  0.00    -0.328 N 
ATOM      8  C   UNL     1      -0.328  -4.256   0.103  0.00  0.00    +0.105 C 
ATOM      9  C   UNL     1       1.009  -4.835  -0.423  0.00  0.00    +0.020 C 
ATOM     10  C   UNL     1       1.477  -3.764  -1.435  0.00  0.00    +0.020 C 
ATOM     11  C   UNL     1       0.747  -2.473  -1.019  0.00  0.00    +0.105 C 
ENDBRANCH   6   7
BRANCH   1  14
ATOM     12  C   UNL     1       0.059   1.215  -0.562  0.00  0.00    +0.200 C 
ATOM     13  O   UNL     1      -0.928   1.686  -1.085  0.00  0.00    -0.278 OA
ATOM     14  N   UNL     1       0.003  -0.004   0.010  0.00  0.00    -0.286 N 
ATOM     15  H   UNL     1       0.810  -0.415   0.355  0.00  0.00    +0.155 HD
BRANCH  12  16
ATOM     16  C   UNL     1       1.352   1.990  -0.559  0.00  0.00    +0.016 C 
BRANCH  16  17
ATOM     17  N   UNL     1       1.144   3.280  -1.243  0.00  0.00    +0.389 N 
ATOM     18  H   UNL     1       0.845   3.106  -2.210  0.00  0.00    -0.084 HD
ATOM     19  H   UNL     1       0.418   3.812  -0.750  0.00  0.00    -0.084 HD
BRANCH  17  21
ATOM     20  C   UNL     1       2.520   4.846   0.053  0.00  0.00    -0.008 C 
ATOM     21  C   UNL     1       2.396   4.061  -1.254  0.00  0.00    -0.037 C 
BRANCH  21  22
ATOM     22  C   UNL     1       2.369   5.021  -2.416  0.00  0.00    -0.024 A 
ATOM     23  C   UNL     1       3.375   5.376  -3.253  0.00  0.00    +0.009 A 
ATOM     24  C   UNL     1       3.117   6.283  -4.263  0.00  0.00    +0.008 A 
ATOM     25  C   UNL     1       1.869   6.799  -4.381  0.00  0.00    +0.045 A 
ATOM     26  S   UNL     1       1.008   5.992  -3.041  0.00  0.00    -0.103 S 
ENDBRANCH  21  22
ENDBRANCH  17  21
ENDBRANCH  16  17
ENDBRANCH  12  16
ENDBRANCH   1  14
BRANCH   3  27
ATOM     27  S   UNL     1      -5.126   0.289   0.220  0.00  0.00    +0.061 S 
ATOM     28  O   UNL     1      -6.092  -0.528   0.866  0.00  0.00    -0.153 OA
ATOM     29  O   UNL     1      -4.806   1.596   0.676  0.00  0.00    -0.153 OA
BRANCH  27  30
ATOM     30  N   UNL     1      -5.614   0.444  -1.355  0.00  0.00    -0.172 NA
ATOM     31  C   UNL     1      -5.192   1.595  -2.170  0.00  0.00    +0.137 C 
ATOM     32  C   UNL     1      -4.624   1.061  -3.494  0.00  0.00    +0.177 C 
ATOM     33  O   UNL     1      -5.576   0.177  -4.091  0.00  0.00    -0.377 OA
ATOM     34  C   UNL     1      -5.863  -0.987  -3.312  0.00  0.00    +0.177 C 
ATOM     35  C   UNL     1      -6.490  -0.561  -1.979  0.00  0.00    +0.137 C 
ENDBRANCH  27  30
ENDBRANCH   3  27
TORSDOF 8
