REMARK  Name = ZINC40993899
REMARK  8 active torsions:
REMARK  status: ('A' for Active; 'I' for Inactive)
REMARK    1  A    between atoms: C_1  and  C_2
REMARK    2  A    between atoms: C_5  and  C_8
REMARK    3  A    between atoms: C_10  and  C_13
REMARK    4  A    between atoms: C_17  and  N_18
REMARK    5  A    between atoms: C_19  and  C_21
REMARK    6  A    between atoms: C_21  and  C_23
REMARK    7  A    between atoms: C_21  and  O_24
REMARK    8  A    between atoms: O_24  and  C_25
REMARK                            x       y       z     vdW  Elec       q    Type
REMARK                         _______ _______ _______ _____ _____    ______ ____
ROOT
ATOM      1  C   UNL     1      -0.494  -7.498   1.665  0.00  0.00    +0.071 A 
ATOM      2  C   UNL     1      -0.728  -8.845   1.176  0.00  0.00    -0.023 A 
ATOM      3  C   UNL     1      -0.858  -9.808   2.117  0.00  0.00    -0.004 A 
ATOM      4  S   UNL     1      -0.674  -8.961   3.662  0.00  0.00    -0.077 S 
ATOM      5  C   UNL     1      -0.418  -7.309   3.037  0.00  0.00    +0.085 A 
ATOM      6  C   UNL     1      -1.103 -11.268   1.892  0.00  0.00    +0.043 C 
ATOM      7  C   UNL     1      -1.559 -11.465   0.439  0.00  0.00    +0.005 C 
ATOM      8  C   UNL     1      -0.611 -10.692  -0.482  0.00  0.00    +0.005 C 
ATOM      9  C   UNL     1      -0.827  -9.188  -0.307  0.00  0.00    +0.037 C 
ENDROOT
BRANCH   1  12
ATOM     10  C   UNL     1      -0.029  -4.357  -0.031  0.00  0.00    +0.202 A 
ATOM     11  N   UNL     1      -0.119  -5.116   1.071  0.00  0.00    -0.187 NA
ATOM     12  C   UNL     1      -0.338  -6.370   0.735  0.00  0.00    +0.261 A 
ATOM     13  O   UNL     1      -0.393  -6.441  -0.608  0.00  0.00    -0.332 OA
ATOM     14  N   UNL     1      -0.195  -5.119  -1.086  0.00  0.00    -0.056 NA
BRANCH  10  19
ATOM     15  C   UNL     1       0.909   1.325  -0.118  0.00  0.00    +0.044 C 
ATOM     16  C   UNL     1       0.664  -0.162  -0.095  0.00  0.00    -0.050 A 
ATOM     17  C   UNL     1       0.506  -0.852  -1.284  0.00  0.00    +0.004 A 
ATOM     18  C   UNL     1       0.281  -2.214  -1.268  0.00  0.00    +0.012 A 
ATOM     19  C   UNL     1       0.214  -2.893  -0.054  0.00  0.00    +0.022 A 
ATOM     20  C   UNL     1       0.374  -2.193   1.140  0.00  0.00    +0.012 A 
ATOM     21  C   UNL     1       0.604  -0.832   1.113  0.00  0.00    +0.004 A 
ENDBRANCH  10  19
ENDBRANCH   1  12
BRANCH   5  22
ATOM     22  N   UNL     1      -0.200  -6.134   3.744  0.00  0.00    -0.276 N 
ATOM     23  C   UNL     1      -0.159  -6.156   5.091  0.00  0.00    +0.258 C 
ATOM     24  O   UNL     1      -0.313  -7.202   5.686  0.00  0.00    -0.271 OA
ATOM     25  H   UNL     1      -0.077  -5.298   3.269  0.00  0.00    +0.155 HD
BRANCH  23  26
ATOM     26  C   UNL     1       0.077  -4.881   5.859  0.00  0.00    +0.256 C 
ATOM     27  C   UNL     1      -1.098  -3.926   5.637  0.00  0.00    +0.062 C 
BRANCH  26  28
ATOM     28  O   UNL     1       0.193  -5.178   7.252  0.00  0.00    -0.480 OA
BRANCH  28  29
ATOM     29  C   UNL     1       0.896  -4.299   8.014  0.00  0.00    +0.122 A 
ATOM     30  C   UNL     1       1.148  -4.583   9.348  0.00  0.00    +0.048 A 
ATOM     31  C   UNL     1       1.863  -3.689  10.121  0.00  0.00    +0.042 A 
ATOM     32  C   UNL     1       2.327  -2.509   9.565  0.00  0.00    +0.124 A 
ATOM     33  C   UNL     1       2.076  -2.224   8.234  0.00  0.00    +0.042 A 
ATOM     34  C   UNL     1       1.368  -3.119   7.457  0.00  0.00    +0.048 A 
ATOM     35  F   UNL     1       3.026  -1.635  10.323  0.00  0.00    -0.205 F 
ENDBRANCH  28  29
ENDBRANCH  26  28
ENDBRANCH  23  26
ENDBRANCH   5  22
TORSDOF 6
