REMARK  Name = ZINC01819892
REMARK  14 active torsions:
REMARK  status: ('A' for Active; 'I' for Inactive)
REMARK    1  A    between atoms: C_1  and  C_2
REMARK    2  A    between atoms: C_5  and  S_8
REMARK    3  A    between atoms: S_8  and  N_11
REMARK    4  A    between atoms: N_11  and  C_12
REMARK    5  A    between atoms: N_11  and  C_31
REMARK    6  A    between atoms: C_12  and  C_13
REMARK    7  A    between atoms: C_13  and  C_15
REMARK    8  A    between atoms: C_13  and  O_30
REMARK    9  A    between atoms: C_15  and  N_71
REMARK   10  A    between atoms: C_16  and  C_17
REMARK   11  A    between atoms: C_16  and  N_71
REMARK   12  A    between atoms: C_23  and  C_24
REMARK   13  A    between atoms: C_23  and  N_71
REMARK   14  A    between atoms: C_35  and  C_37
REMARK                            x       y       z     vdW  Elec       q    Type
REMARK                         _______ _______ _______ _____ _____    ______ ____
ROOT
ATOM      1  C   UNL     1       1.316   5.141  -2.052  0.00  0.00    +0.117 C 
ENDROOT
BRANCH   1   2
ATOM      2  O   UNL     1       0.004   5.706  -2.083  0.00  0.00    -0.392 OA
ATOM      3  H   UNL     1      -0.136   6.411  -1.435  0.00  0.00    +0.210 HD
ENDBRANCH   1   2
BRANCH   1   4
ATOM      4  C   UNL     1       1.582   4.543  -0.669  0.00  0.00    +0.161 C 
BRANCH   4   5
ATOM      5  N   UNL     1       0.670   3.419  -0.440  0.00  0.00    -0.201 N 
BRANCH   5   6
ATOM      6  C   UNL     1       1.001   2.145  -0.907  0.00  0.00    +0.052 A 
ATOM      7  C   UNL     1       0.184   1.510  -1.835  0.00  0.00    +0.025 A 
ATOM      8  C   UNL     1       0.514   0.250  -2.295  0.00  0.00    +0.002 A 
ATOM      9  C   UNL     1       1.655  -0.380  -1.832  0.00  0.00    +0.003 A 
ATOM     10  C   UNL     1       2.467   0.247  -0.905  0.00  0.00    -0.049 A 
ATOM     11  C   UNL     1       2.146   1.510  -0.445  0.00  0.00    +0.028 A 
ATOM     12  C   UNL     1       3.706  -0.445  -0.399  0.00  0.00    +0.044 C 
ENDBRANCH   5   6
BRANCH   5  13
ATOM     13  S   UNL     1      -0.753   3.659   0.372  0.00  0.00    +0.075 S 
ATOM     14  O   UNL     1      -1.125   5.012   0.148  0.00  0.00    -0.150 OA
ATOM     15  O   UNL     1      -1.601   2.570   0.037  0.00  0.00    -0.150 OA
BRANCH  13  20
ATOM     16  C   UNL     1       0.450   3.157   6.264  0.00  0.00    +0.044 C 
ATOM     17  C   UNL     1       0.149   3.282   4.792  0.00  0.00    -0.050 A 
ATOM     18  C   UNL     1       0.241   4.514   4.171  0.00  0.00    +0.005 A 
ATOM     19  C   UNL     1      -0.035   4.629   2.821  0.00  0.00    +0.029 A 
ATOM     20  C   UNL     1      -0.401   3.513   2.093  0.00  0.00    +0.109 A 
ATOM     21  C   UNL     1      -0.498   2.282   2.715  0.00  0.00    +0.029 A 
ATOM     22  C   UNL     1      -0.218   2.166   4.064  0.00  0.00    +0.005 A 
ENDBRANCH  13  20
ENDBRANCH   5  13
ENDBRANCH   4   5
ENDBRANCH   1   4
BRANCH   1  23
ATOM     23  C   UNL     1       2.349   6.232  -2.342  0.00  0.00    -0.045 C 
BRANCH  23  24
ATOM     24  N   UNL     1       2.185   6.678  -3.742  0.00  0.00    +0.387 N 
ATOM     25  H   UNL     1       1.988   5.860  -4.331  0.00  0.00    -0.081 HD
BRANCH  24  26
ATOM     26  C   UNL     1       1.056   7.626  -3.841  0.00  0.00    -0.042 C 
BRANCH  26  27
ATOM     27  C   UNL     1       0.679   7.779  -5.293  0.00  0.00    -0.064 A 
ATOM     28  C   UNL     1       1.262   8.773  -6.057  0.00  0.00    +0.002 A 
ATOM     29  C   UNL     1       0.920   8.910  -7.389  0.00  0.00    +0.000 A 
ATOM     30  C   UNL     1      -0.012   8.060  -7.955  0.00  0.00    +0.000 A 
ATOM     31  C   UNL     1      -0.599   7.070  -7.189  0.00  0.00    +0.000 A 
ATOM     32  C   UNL     1      -0.253   6.930  -5.858  0.00  0.00    +0.002 A 
ENDBRANCH  26  27
ENDBRANCH  24  26
BRANCH  24  33
ATOM     33  C   UNL     1       3.429   7.322  -4.215  0.00  0.00    -0.042 C 
BRANCH  33  34
ATOM     34  C   UNL     1       4.450   6.251  -4.499  0.00  0.00    -0.064 A 
ATOM     35  C   UNL     1       5.348   5.875  -3.518  0.00  0.00    +0.002 A 
ATOM     36  C   UNL     1       6.282   4.888  -3.777  0.00  0.00    +0.000 A 
ATOM     37  C   UNL     1       6.324   4.286  -5.021  0.00  0.00    +0.000 A 
ATOM     38  C   UNL     1       5.429   4.666  -6.003  0.00  0.00    +0.000 A 
ATOM     39  C   UNL     1       4.492   5.648  -5.743  0.00  0.00    +0.002 A 
ENDBRANCH  33  34
ENDBRANCH  24  33
ENDBRANCH  23  24
ENDBRANCH   1  23
TORSDOF 12
