REMARK  Name = ZINC39928847
REMARK  14 active torsions:
REMARK  status: ('A' for Active; 'I' for Inactive)
REMARK    1  A    between atoms: C_1  and  C_2
REMARK    2  A    between atoms: C_5  and  N_9
REMARK    3  A    between atoms: C_6  and  C_8
REMARK    4  A    between atoms: N_9  and  C_10
REMARK    5  A    between atoms: C_10  and  C_11
REMARK    6  A    between atoms: C_17  and  O_23
REMARK    7  A    between atoms: O_23  and  C_24
REMARK    8  A    between atoms: C_25  and  C_27
REMARK    9  A    between atoms: C_29  and  O_37
REMARK   10  A    between atoms: C_30  and  O_35
REMARK   11  A    between atoms: C_31  and  O_33
REMARK   12  A    between atoms: O_33  and  C_34
REMARK   13  A    between atoms: O_35  and  C_36
REMARK   14  A    between atoms: O_37  and  C_38
REMARK                            x       y       z     vdW  Elec       q    Type
REMARK                         _______ _______ _______ _____ _____    ______ ____
ROOT
ATOM      1  N   UNL     1      -0.127  -4.677   0.089  0.00  0.00    -0.266 N 
ATOM      2  C   UNL     1      -1.099  -5.597  -0.064  0.00  0.00    +0.251 C 
ATOM      3  O   UNL     1      -0.814  -6.739  -0.368  0.00  0.00    -0.270 OA
ENDROOT
BRANCH   1   8
ATOM      4  C   UNL     1      -1.475   0.731   1.143  0.00  0.00    +0.044 C 
ATOM      5  C   UNL     1      -1.117  -0.705   0.863  0.00  0.00    -0.050 A 
ATOM      6  C   UNL     1      -1.448  -1.690   1.776  0.00  0.00    +0.005 A 
ATOM      7  C   UNL     1      -1.121  -3.007   1.523  0.00  0.00    +0.024 A 
ATOM      8  C   UNL     1      -0.459  -3.344   0.349  0.00  0.00    +0.040 A 
ATOM      9  C   UNL     1      -0.129  -2.353  -0.567  0.00  0.00    -0.029 A 
ATOM     10  C   UNL     1      -0.463  -1.038  -0.309  0.00  0.00    +0.008 A 
ATOM     11  C   UNL     1       0.590  -2.713  -1.841  0.00  0.00    +0.045 C 
ENDBRANCH   1   8
BRANCH   2  12
ATOM     12  C   UNL     1      -2.512  -5.218   0.137  0.00  0.00    +0.044 A 
ATOM     13  C   UNL     1      -2.997  -4.021  -0.396  0.00  0.00    +0.062 A 
ATOM     14  C   UNL     1      -4.320  -3.668  -0.206  0.00  0.00    +0.166 A 
ATOM     15  C   UNL     1      -5.169  -4.504   0.514  0.00  0.00    +0.204 A 
ATOM     16  C   UNL     1      -4.687  -5.697   1.046  0.00  0.00    +0.166 A 
ATOM     17  C   UNL     1      -3.366  -6.058   0.855  0.00  0.00    +0.062 A 
BRANCH  16  18
ATOM     18  O   UNL     1      -5.518  -6.512   1.750  0.00  0.00    -0.491 OA
ATOM     19  C   UNL     1      -4.958  -7.720   2.267  0.00  0.00    +0.277 C 
ENDBRANCH  16  18
BRANCH  15  20
ATOM     20  O   UNL     1      -6.469  -4.155   0.699  0.00  0.00    -0.488 OA
ATOM     21  C   UNL     1      -7.405  -4.594  -0.287  0.00  0.00    +0.277 C 
ENDBRANCH  15  20
BRANCH  14  22
ATOM     22  O   UNL     1      -4.794  -2.503  -0.724  0.00  0.00    -0.491 OA
ATOM     23  C   UNL     1      -3.905  -1.754  -1.556  0.00  0.00    +0.277 C 
ENDBRANCH  14  22
ENDBRANCH   2  12
BRANCH   1  24
ATOM     24  C   UNL     1       1.280  -5.074  -0.017  0.00  0.00    +0.131 C 
BRANCH  24  25
ATOM     25  C   UNL     1       1.743  -5.669   1.315  0.00  0.00    +0.116 C 
ATOM     26  C   UNL     1       2.995  -6.481   1.050  0.00  0.00    -0.003 C 
ATOM     27  C   UNL     1       4.120  -6.137   1.734  0.00  0.00    -0.007 A 
ATOM     28  C   UNL     1       5.371  -6.872   1.534  0.00  0.00    +0.013 A 
ATOM     29  C   UNL     1       6.471  -6.500   2.232  0.00  0.00    +0.046 A 
ATOM     30  C   UNL     1       6.432  -5.430   3.138  0.00  0.00    +0.122 A 
ATOM     31  C   UNL     1       5.285  -4.702   3.368  0.00  0.00    +0.069 A 
ATOM     32  C   UNL     1       4.099  -5.015   2.690  0.00  0.00    +0.044 A 
ATOM     33  N   UNL     1       2.994  -4.303   2.921  0.00  0.00    -0.284 N 
ATOM     34  C   UNL     1       1.844  -4.542   2.317  0.00  0.00    +0.226 C 
ATOM     35  O   UNL     1       0.869  -3.858   2.567  0.00  0.00    -0.275 OA
ATOM     36  H   UNL     1       3.037  -3.576   3.562  0.00  0.00    +0.155 HD
BRANCH  30  37
ATOM     37  O   UNL     1       7.561  -5.101   3.810  0.00  0.00    -0.495 OA
ATOM     38  C   UNL     1       8.727  -5.882   3.542  0.00  0.00    +0.277 C 
ENDBRANCH  30  37
ENDBRANCH  24  25
ENDBRANCH   1  24
TORSDOF 8
