REMARK  Name = ZINC19723424
REMARK  12 active torsions:
REMARK  status: ('A' for Active; 'I' for Inactive)
REMARK    1  A    between atoms: C_1  and  C_2
REMARK    2  A    between atoms: C_2  and  O_3
REMARK    3  A    between atoms: O_3  and  C_4
REMARK    4  A    between atoms: C_4  and  O_24
REMARK    5  A    between atoms: C_5  and  C_22
REMARK    6  A    between atoms: C_6  and  C_20
REMARK    7  A    between atoms: C_10  and  C_13
REMARK    8  A    between atoms: C_13  and  C_14
REMARK    9  A    between atoms: C_13  and  C_15
REMARK   10  A    between atoms: C_13  and  C_16
REMARK   11  A    between atoms: O_24  and  C_25
REMARK   12  A    between atoms: C_25  and  C_26
REMARK                            x       y       z     vdW  Elec       q    Type
REMARK                         _______ _______ _______ _____ _____    ______ ____
ROOT
ATOM      1  C   UNL     1       0.847  -1.882  -1.229  0.00  0.00    +0.274 C 
ATOM      2  C   UNL     1       1.842  -2.332  -2.314  0.00  0.00    +0.164 C 
ATOM      3  C   UNL     1       2.967  -3.003  -1.501  0.00  0.00    +0.143 C 
ATOM      4  C   UNL     1       3.248  -1.734  -2.304  0.00  0.00    +0.025 C 
ATOM      5  C   UNL     1       4.091  -1.871  -3.576  0.00  0.00    +0.011 C 
ATOM      6  C   UNL     1       5.566  -1.669  -3.217  0.00  0.00    +0.005 C 
ATOM      7  C   UNL     1       5.744  -0.309  -2.541  0.00  0.00    -0.006 C 
ATOM      8  C   UNL     1       4.959  -0.275  -1.229  0.00  0.00    +0.005 C 
ATOM      9  C   UNL     1       3.464  -0.433  -1.525  0.00  0.00    +0.011 C 
ATOM     10  C   UNL     1       2.545  -2.880  -0.059  0.00  0.00    +0.092 C 
ATOM     11  N   UNL     1       1.418  -2.282   0.056  0.00  0.00    -0.324 N 
ATOM     12  N   UNL     1       3.278  -3.351   0.999  0.00  0.00    -0.347 N 
ATOM     13  H   UNL     1       4.125  -3.796   0.842  0.00  0.00    +0.143 HD
ATOM     14  H   UNL     1       2.949  -3.239   1.904  0.00  0.00    +0.143 HD
ATOM     15  H   UNL     1       0.988  -2.112   0.909  0.00  0.00    +0.166 HD
ENDROOT
BRANCH   7  16
ATOM     16  C   UNL     1       7.228  -0.076  -2.251  0.00  0.00    -0.035 C 
ATOM     17  C   UNL     1       8.014  -0.100  -3.563  0.00  0.00    +0.011 C 
ATOM     18  C   UNL     1       7.408   1.285  -1.574  0.00  0.00    +0.011 C 
ATOM     19  C   UNL     1       7.747  -1.178  -1.325  0.00  0.00    +0.011 C 
ENDBRANCH   7  16
BRANCH   3  20
ATOM     20  C   UNL     1       3.568  -4.275  -1.932  0.00  0.00    +0.079 C 
ATOM     21  N   UNL     1       4.032  -5.257  -2.265  0.00  0.00    -0.195 NA
ENDBRANCH   3  20
BRANCH   2  22
ATOM     22  C   UNL     1       1.295  -2.895  -3.559  0.00  0.00    +0.079 C 
ATOM     23  N   UNL     1       0.872  -3.329  -4.520  0.00  0.00    -0.196 NA
ENDBRANCH   2  22
BRANCH   1  24
ATOM     24  O   UNL     1       0.685  -0.463  -1.271  0.00  0.00    -0.331 OA
BRANCH  24  26
ATOM     25  C   UNL     1      -0.118   1.591  -0.284  0.00  0.00    +0.034 C 
ATOM     26  C   UNL     1      -0.113   0.063  -0.209  0.00  0.00    +0.162 C 
ENDBRANCH  24  26
ENDBRANCH   1  24
BRANCH   1  27
ATOM     27  O   UNL     1      -0.414  -2.524  -1.425  0.00  0.00    -0.331 OA
BRANCH  27  28
ATOM     28  C   UNL     1      -0.375  -3.944  -1.267  0.00  0.00    +0.162 C 
ATOM     29  C   UNL     1      -1.793  -4.509  -1.376  0.00  0.00    +0.034 C 
ENDBRANCH  27  28
ENDBRANCH   1  27
TORSDOF 7
