REMARK  Name = ZINC03114178
REMARK  6 active torsions:
REMARK  status: ('A' for Active; 'I' for Inactive)
REMARK    1  A    between atoms: C_1  and  C_2
REMARK    2  A    between atoms: C_3  and  C_12
REMARK    3  A    between atoms: C_4  and  O_11
REMARK    4  A    between atoms: C_6  and  C_9
REMARK    5  A    between atoms: N_13  and  C_14
REMARK    6  A    between atoms: C_21  and  C_23
REMARK                            x       y       z     vdW  Elec       q    Type
REMARK                         _______ _______ _______ _____ _____    ______ ____
ROOT
ATOM      1  C   UNL     1      -0.023   0.074  -4.800  0.00  0.00    +0.066 A 
ATOM      2  C   UNL     1      -0.894   1.158  -4.969  0.00  0.00    +0.031 A 
ATOM      3  C   UNL     1      -0.916   1.853  -6.156  0.00  0.00    +0.050 A 
ATOM      4  C   UNL     1      -0.075   1.482  -7.196  0.00  0.00    +0.156 A 
ATOM      5  C   UNL     1       0.803   0.396  -7.038  0.00  0.00    +0.112 A 
ATOM      6  C   UNL     1       0.830  -0.304  -5.832  0.00  0.00    +0.059 A 
ATOM      7  N   UNL     1       1.487   0.275  -8.206  0.00  0.00    -0.209 NA
ATOM      8  C   UNL     1       1.078   1.204  -9.031  0.00  0.00    +0.228 A 
ATOM      9  O   UNL     1       0.127   1.956  -8.446  0.00  0.00    -0.435 OA
ENDROOT
BRANCH   8  10
ATOM     10  C   UNL     1       1.586   1.400 -10.406  0.00  0.00    +0.040 A 
ATOM     11  C   UNL     1       2.573   0.554 -10.915  0.00  0.00    +0.013 A 
ATOM     12  C   UNL     1       3.044   0.741 -12.198  0.00  0.00    +0.004 A 
ATOM     13  C   UNL     1       2.540   1.764 -12.981  0.00  0.00    +0.038 A 
ATOM     14  C   UNL     1       1.560   2.607 -12.484  0.00  0.00    +0.124 A 
ATOM     15  C   UNL     1       1.076   2.426 -11.202  0.00  0.00    +0.051 A 
ATOM     16  F   UNL     1       1.073   3.604 -13.254  0.00  0.00    -0.205 F 
ENDBRANCH   8  10
BRANCH   1  18
ATOM     17  C   UNL     1      -0.011   0.039  -2.485  0.00  0.00    +0.123 C 
ATOM     18  N   UNL     1      -0.007  -0.612  -3.615  0.00  0.00    -0.255 NA
BRANCH  17  21
ATOM     19  C   UNL     1      -0.018   1.503   0.010  0.00  0.00    +0.046 C 
ATOM     20  C   UNL     1       0.002  -0.004   0.002  0.00  0.00    -0.020 A 
ATOM     21  C   UNL     1       0.006  -0.698  -1.212  0.00  0.00    +0.040 A 
ATOM     22  C   UNL     1       0.025  -2.100  -1.209  0.00  0.00    +0.140 A 
ATOM     23  C   UNL     1       0.041  -2.785  -0.003  0.00  0.00    +0.064 A 
ATOM     24  C   UNL     1       0.037  -2.087   1.190  0.00  0.00    -0.014 A 
ATOM     25  C   UNL     1       0.023  -0.701   1.192  0.00  0.00    +0.049 A 
ATOM     26 CL   UNL     1       0.025   0.161   2.698  0.00  0.00    -0.083 Cl
ATOM     27  C   UNL     1       0.054  -2.838   2.496  0.00  0.00    +0.046 C 
ATOM     28 BR   UNL     1       0.067  -4.676   0.009  0.00  0.00    -0.046 Br
BRANCH  22  29
ATOM     29  O   UNL     1       0.029  -2.785  -2.382  0.00  0.00    -0.505 OA
ATOM     30  H   UNL     1       0.913  -2.971  -2.726  0.00  0.00    +0.292 HD
ENDBRANCH  22  29
ENDBRANCH  17  21
ENDBRANCH   1  18
TORSDOF 4
