REMARK  Name = ZINC22503299
REMARK  8 active torsions:
REMARK  status: ('A' for Active; 'I' for Inactive)
REMARK    1  A    between atoms: C_4  and  C_7
REMARK    2  A    between atoms: C_9  and  C_13
REMARK    3  A    between atoms: C_19  and  C_21
REMARK    4  A    between atoms: C_21  and  C_22
REMARK    5  A    between atoms: C_22  and  C_23
REMARK    6  A    between atoms: C_23  and  C_24
REMARK    7  A    between atoms: C_24  and  C_25
REMARK    8  A    between atoms: C_25  and  N_26
REMARK                            x       y       z     vdW  Elec       q    Type
REMARK                         _______ _______ _______ _____ _____    ______ ____
ROOT
ATOM      1  C   UNL     1      -3.186   1.353   4.016  0.00  0.00    +0.203 A 
ATOM      2  N   UNL     1      -3.184   2.371   4.849  0.00  0.00    -0.125 NA
ATOM      3  N   UNL     1      -2.295   3.229   4.491  0.00  0.00    -0.120 NA
ATOM      4  C   UNL     1      -1.688   2.808   3.420  0.00  0.00    +0.218 A 
ATOM      5  N   UNL     1      -2.214   1.594   3.053  0.00  0.00    -0.184 N 
ATOM      6  N   UNL     1      -1.673   1.002   1.921  0.00  0.00    -0.160 NA
ATOM      7  C   UNL     1      -0.718   1.572   1.248  0.00  0.00    +0.102 A 
ATOM      8  S   UNL     1      -0.451   3.075   2.174  0.00  0.00    -0.031 S 
ENDROOT
BRANCH   1  11
ATOM      9  C   UNL     1      -5.493  -1.396   4.819  0.00  0.00    +0.093 A 
ATOM     10  C   UNL     1      -4.813  -0.221   5.176  0.00  0.00    +0.061 A 
ATOM     11  C   UNL     1      -4.060   0.170   4.091  0.00  0.00    +0.105 A 
ATOM     12  N   UNL     1      -4.278  -0.739   3.096  0.00  0.00    -0.273 N 
ATOM     13  H   UNL     1      -3.777  -0.621   2.124  0.00  0.00    +0.189 HD
ATOM     14  N   UNL     1      -5.170  -1.704   3.580  0.00  0.00    -0.173 NA
BRANCH   9  18
ATOM     15  C   UNL     1      -8.147  -3.591   7.314  0.00  0.00    +0.000 A 
ATOM     16  C   UNL     1      -7.894  -4.026   6.027  0.00  0.00    +0.001 A 
ATOM     17  C   UNL     1      -7.033  -3.318   5.212  0.00  0.00    +0.010 A 
ATOM     18  C   UNL     1      -6.420  -2.162   5.690  0.00  0.00    +0.002 A 
ATOM     19  C   UNL     1      -6.674  -1.731   6.990  0.00  0.00    +0.010 A 
ATOM     20  C   UNL     1      -7.541  -2.443   7.794  0.00  0.00    +0.001 A 
ENDBRANCH   9  18
ENDBRANCH   1  11
BRANCH   7  21
ATOM     21  C   UNL     1      -0.013   1.086   0.008  0.00  0.00    +0.065 C 
BRANCH  21  22
ATOM     22  C   UNL     1      -0.753   1.593  -1.232  0.00  0.00    +0.007 C 
BRANCH  22  23
ATOM     23  C   UNL     1      -0.037   1.099  -2.490  0.00  0.00    +0.002 C 
BRANCH  23  24
ATOM     24  C   UNL     1      -0.777   1.606  -3.730  0.00  0.00    +0.019 C 
BRANCH  24  25
ATOM     25  C   UNL     1      -0.060   1.113  -4.989  0.00  0.00    +0.117 C 
BRANCH  25  26
ATOM     26  N   UNL     1      -0.769   1.598  -6.176  0.00  0.00    -0.234 N 
ATOM     27  C   UNL     1      -1.761   0.933  -6.795  0.00  0.00    +0.254 C 
ATOM     28  O   UNL     1      -2.205  -0.147  -6.463  0.00  0.00    -0.270 OA
ATOM     29  C   UNL     1      -2.223   1.740  -7.944  0.00  0.00    +0.049 A 
ATOM     30  C   UNL     1      -3.194   1.569  -8.918  0.00  0.00    +0.014 A 
ATOM     31  C   UNL     1      -3.374   2.544  -9.887  0.00  0.00    +0.001 A 
ATOM     32  C   UNL     1      -2.591   3.684  -9.888  0.00  0.00    +0.001 A 
ATOM     33  C   UNL     1      -1.616   3.868  -8.920  0.00  0.00    +0.014 A 
ATOM     34  C   UNL     1      -1.425   2.902  -7.945  0.00  0.00    +0.049 A 
ATOM     35  C   UNL     1      -0.509   2.764  -6.793  0.00  0.00    +0.254 C 
ATOM     36  O   UNL     1       0.337   3.570  -6.460  0.00  0.00    -0.270 OA
ENDBRANCH  25  26
ENDBRANCH  24  25
ENDBRANCH  23  24
ENDBRANCH  22  23
ENDBRANCH  21  22
ENDBRANCH   7  21
TORSDOF 8
