REMARK  Name = ZINC64480139
REMARK  7 active torsions:
REMARK  status: ('A' for Active; 'I' for Inactive)
REMARK    1  A    between atoms: C_4  and  C_7
REMARK    2  A    between atoms: C_11  and  C_17
REMARK    3  A    between atoms: N_19  and  C_20
REMARK    4  A    between atoms: C_20  and  C_21
REMARK    5  A    between atoms: N_23  and  C_24
REMARK    6  A    between atoms: C_24  and  C_25
REMARK    7  A    between atoms: C_25  and  C_26
REMARK                            x       y       z     vdW  Elec       q    Type
REMARK                         _______ _______ _______ _____ _____    ______ ____
ROOT
ATOM      1  C   UNL     1       4.902  -0.184  -4.996  0.00  0.00    +0.244 C 
ATOM      2  O   UNL     1       4.831   1.029  -4.955  0.00  0.00    -0.270 OA
ATOM      3  N   UNL     1       5.215  -0.802  -6.152  0.00  0.00    -0.303 N 
ATOM      4  H   UNL     1       5.271  -1.770  -6.184  0.00  0.00    +0.150 HD
ENDROOT
BRANCH   1   8
ATOM      5  C   UNL     1       3.711  -0.707  -0.038  0.00  0.00    +0.211 C 
ATOM      6  C   UNL     1       4.077  -1.088  -1.452  0.00  0.00    +0.014 A 
ATOM      7  C   UNL     1       4.317  -0.341  -2.580  0.00  0.00    +0.021 A 
ATOM      8  C   UNL     1       4.643  -0.979  -3.781  0.00  0.00    +0.037 A 
ATOM      9  C   UNL     1       4.722  -2.374  -3.824  0.00  0.00    +0.015 A 
ATOM     10  C   UNL     1       4.481  -3.114  -2.691  0.00  0.00    +0.028 A 
ATOM     11  C   UNL     1       4.155  -2.478  -1.492  0.00  0.00    +0.067 A 
ATOM     12  N   UNL     1       3.871  -2.990  -0.233  0.00  0.00    -0.265 N 
ATOM     13  O   UNL     1       3.597  -1.943   0.678  0.00  0.00    -0.261 OA
ATOM     14  H   UNL     1       3.862  -3.934  -0.010  0.00  0.00    +0.194 HD
BRANCH   5  18
ATOM     15  C   UNL     1      -0.017   1.378   0.010  0.00  0.00    +0.000 A 
ATOM     16  C   UNL     1       1.171   2.086   0.002  0.00  0.00    +0.000 A 
ATOM     17  C   UNL     1       2.377   1.411  -0.013  0.00  0.00    +0.006 A 
ATOM     18  C   UNL     1       2.396   0.029  -0.020  0.00  0.00    -0.012 A 
ATOM     19  C   UNL     1       1.208  -0.679  -0.012  0.00  0.00    +0.006 A 
ATOM     20  C   UNL     1       0.002  -0.004   0.002  0.00  0.00    +0.000 A 
ENDBRANCH   5  18
ENDBRANCH   1   8
BRANCH   3  21
ATOM     21  C   UNL     1       5.472  -0.012  -7.359  0.00  0.00    +0.200 C 
BRANCH  21  22
ATOM     22  C   UNL     1       5.798  -0.936  -8.504  0.00  0.00    +0.230 C 
ATOM     23  O   UNL     1       5.814  -2.136  -8.329  0.00  0.00    -0.274 OA
ATOM     24  N   UNL     1       6.071  -0.429  -9.722  0.00  0.00    -0.314 N 
ATOM     25  H   UNL     1       6.058   0.531  -9.862  0.00  0.00    +0.149 HD
BRANCH  24  26
ATOM     26  C   UNL     1       6.388  -1.327 -10.835  0.00  0.00    +0.108 C 
BRANCH  26  27
ATOM     27  C   UNL     1       6.656  -0.503 -12.096  0.00  0.00    +0.052 C 
BRANCH  27  28
ATOM     28  C   UNL     1       6.983  -1.427 -13.241  0.00  0.00    -0.040 C 
ATOM     29  C   UNL     1       6.125  -1.898 -14.174  0.00  0.00    +0.002 A 
ATOM     30  C   UNL     1       4.688  -1.700 -14.395  0.00  0.00    +0.048 A 
ATOM     31  C   UNL     1       4.092  -2.320 -15.440  0.00  0.00    +0.124 A 
ATOM     32  C   UNL     1       4.814  -3.146 -16.317  0.00  0.00    +0.040 A 
ATOM     33  C   UNL     1       6.137  -3.375 -16.177  0.00  0.00    +0.029 A 
ATOM     34  C   UNL     1       6.863  -2.774 -15.113  0.00  0.00    +0.043 A 
ATOM     35  N   UNL     1       8.127  -2.841 -14.772  0.00  0.00    -0.380 N 
ATOM     36  C   UNL     1       8.336  -2.009 -13.582  0.00  0.00    +0.144 C 
ATOM     37  F   UNL     1       2.769  -2.140 -15.646  0.00  0.00    -0.205 F 
ATOM     38  H   UNL     1       8.812  -3.352 -15.233  0.00  0.00    +0.160 HD
ENDBRANCH  27  28
ENDBRANCH  26  27
ENDBRANCH  24  26
ENDBRANCH  21  22
ENDBRANCH   3  21
TORSDOF 7
