REMARK  Name = ZINC35790321
REMARK  5 active torsions:
REMARK  status: ('A' for Active; 'I' for Inactive)
REMARK    1  A    between atoms: C_1  and  C_2
REMARK    2  A    between atoms: C_5  and  C_9
REMARK    3  A    between atoms: C_6  and  C_8
REMARK    4  A    between atoms: C_9  and  N_10
REMARK    5  A    between atoms: C_19  and  C_21
REMARK                            x       y       z     vdW  Elec       q    Type
REMARK                         _______ _______ _______ _____ _____    ______ ____
ROOT
ATOM      1  N   UNL     1      -0.311  -4.840   0.072  0.00  0.00    +0.391 N 
ATOM      2  C   UNL     1      -1.310  -5.103  -0.967  0.00  0.00    -0.075 C 
ATOM      3  C   UNL     1      -2.683  -5.353  -0.356  0.00  0.00    +0.003 C 
ATOM      4  C   UNL     1      -2.853  -4.500   0.904  0.00  0.00    +0.119 C 
ATOM      5  N   UNL     1      -2.338  -5.247   2.058  0.00  0.00    -0.352 N 
ATOM      6  C   UNL     1      -2.950  -5.393   3.265  0.00  0.00    +0.086 A 
ATOM      7  C   UNL     1      -2.147  -6.131   4.059  0.00  0.00    +0.019 A 
ATOM      8  C   UNL     1      -0.999  -6.457   3.311  0.00  0.00    +0.021 A 
ATOM      9  C   UNL     1      -1.144  -5.910   2.088  0.00  0.00    +0.009 A 
ATOM     10  C   UNL     1      -0.168  -6.016   0.942  0.00  0.00    +0.011 C 
ATOM     11  H   UNL     1      -0.606  -4.049   0.625  0.00  0.00    -0.080 HD
ENDROOT
BRANCH  10  12
ATOM     12  C   UNL     1       1.238  -6.074   1.482  0.00  0.00    -0.054 A 
ATOM     13  C   UNL     1       1.729  -5.029   2.243  0.00  0.00    +0.004 A 
ATOM     14  C   UNL     1       3.019  -5.080   2.738  0.00  0.00    +0.021 A 
ATOM     15  C   UNL     1       3.818  -6.178   2.473  0.00  0.00    +0.059 A 
ATOM     16  C   UNL     1       3.326  -7.224   1.712  0.00  0.00    +0.059 A 
ATOM     17  C   UNL     1       2.033  -7.173   1.221  0.00  0.00    +0.023 A 
ATOM     18 CL   UNL     1       4.328  -8.602   1.378  0.00  0.00    -0.082 Cl
ATOM     19 CL   UNL     1       5.438  -6.243   3.094  0.00  0.00    -0.082 Cl
ENDBRANCH  10  12
BRANCH   1  20
ATOM     20  C   UNL     1       0.981  -4.540  -0.558  0.00  0.00    -0.041 C 
BRANCH  20  25
ATOM     21  C   UNL     1       0.432   0.107  -3.949  0.00  0.00    +0.044 C 
ATOM     22  C   UNL     1       0.575  -1.105  -3.065  0.00  0.00    -0.050 A 
ATOM     23  C   UNL     1       0.621  -2.368  -3.625  0.00  0.00    +0.003 A 
ATOM     24  C   UNL     1       0.752  -3.479  -2.814  0.00  0.00    +0.002 A 
ATOM     25  C   UNL     1       0.838  -3.328  -1.443  0.00  0.00    -0.061 A 
ATOM     26  C   UNL     1       0.794  -2.065  -0.883  0.00  0.00    -0.049 A 
ATOM     27  C   UNL     1       0.667  -0.953  -1.694  0.00  0.00    +0.007 A 
ATOM     28  C   UNL     1       0.888  -1.900   0.612  0.00  0.00    +0.044 C 
ENDBRANCH  20  25
ENDBRANCH   1  20
TORSDOF 3
