REMARK  Name = ZINC08741215
REMARK  9 active torsions:
REMARK  status: ('A' for Active; 'I' for Inactive)
REMARK    1  A    between atoms: C_1  and  C_2
REMARK    2  A    between atoms: C_2  and  N_3
REMARK    3  A    between atoms: N_3  and  C_4
REMARK    4  A    between atoms: C_4  and  C_5
REMARK    5  A    between atoms: C_6  and  C_8
REMARK    6  A    between atoms: C_19  and  S_24
REMARK    7  A    between atoms: S_24  and  C_25
REMARK    8  A    between atoms: C_30  and  N_31
REMARK    9  A    between atoms: CA_34  and  C_37
REMARK                            x       y       z     vdW  Elec       q    Type
REMARK                         _______ _______ _______ _____ _____    ______ ____
ROOT
ATOM      1  C   UNL     1      -2.056  -1.219  -1.991  0.00  0.00    +0.037 A 
ATOM      2  C   UNL     1      -2.572  -0.692  -0.803  0.00  0.00    +0.015 A 
ATOM      3  C   UNL     1      -3.900  -0.880  -0.496  0.00  0.00    +0.024 A 
ATOM      4  C   UNL     1      -4.727  -1.591  -1.365  0.00  0.00    +0.031 A 
ATOM      5  C   UNL     1      -4.223  -2.117  -2.546  0.00  0.00    -0.021 A 
ATOM      6  C   UNL     1      -2.890  -1.925  -2.859  0.00  0.00    +0.018 A 
ATOM      7  C   UNL     1      -5.076  -2.891  -3.515  0.00  0.00    +0.045 C 
ATOM      8  C   UNL     1      -6.572  -2.759  -3.185  0.00  0.00    +0.030 C 
ATOM      9  C   UNL     1      -6.974  -1.369  -3.707  0.00  0.00    +0.022 C 
ATOM     10  C   UNL     1      -5.948  -1.003  -4.796  0.00  0.00    +0.070 C 
ATOM     11  C   UNL     1      -4.954  -2.206  -4.903  0.00  0.00    +0.101 C 
ATOM     12 CL   UNL     1      -5.463  -3.337  -6.212  0.00  0.00    -0.120 Cl
ATOM     13  CA  UNL     1      -6.811  -2.872  -1.685  0.00  0.00    +0.188 C 
ATOM     14  N   UNL     1      -6.067  -1.764  -1.027  0.00  0.00    -0.331 N 
ATOM     15  H   UNL     1      -6.490  -1.196  -0.364  0.00  0.00    +0.147 HD
ENDROOT
BRANCH   1  17
ATOM     16  N   UNL     1       0.315  -1.214  -1.391  0.00  0.00    -0.298 N 
ATOM     17  C   UNL     1      -0.634  -1.022  -2.329  0.00  0.00    +0.247 C 
ATOM     18  O   UNL     1      -0.317  -0.687  -3.454  0.00  0.00    -0.270 OA
BRANCH  16  20
ATOM     19  C   UNL     1       2.351  -2.213  -2.307  0.00  0.00    +0.024 C 
ATOM     20  C   UNL     1       1.721  -0.954  -1.708  0.00  0.00    +0.104 C 
ENDBRANCH  16  20
BRANCH  16  21
ATOM     21  C   UNL     1      -0.061  -1.683  -0.055  0.00  0.00    +0.104 C 
ATOM     22  C   UNL     1      -0.108  -0.495   0.908  0.00  0.00    +0.024 C 
ENDBRANCH  16  21
ENDBRANCH   1  17
BRANCH  13  23
ATOM     23  C   UNL     1      -8.282  -2.716  -1.395  0.00  0.00    +0.376 C 
ATOM     24  O   UNL     1      -9.007  -3.696  -1.377  0.00  0.00    -0.244 OA
ATOM     25  OXT UNL     1      -8.746  -1.609  -1.178  0.00  0.00    -0.244 OA
ENDBRANCH  13  23
BRANCH  10  26
ATOM     26  S   UNL     1      -6.790  -0.751  -6.383  0.00  0.00    -0.118 S 
BRANCH  26  27
ATOM     27  C   UNL     1      -5.510  -0.203  -7.463  0.00  0.00    +0.038 A 
ATOM     28  C   UNL     1      -4.210  -0.070  -6.990  0.00  0.00    +0.017 A 
ATOM     29  C   UNL     1      -3.209   0.360  -7.839  0.00  0.00    +0.001 A 
ATOM     30  C   UNL     1      -3.500   0.659  -9.158  0.00  0.00    +0.002 A 
ATOM     31  C   UNL     1      -4.793   0.529  -9.631  0.00  0.00    +0.034 A 
ATOM     32  C   UNL     1      -5.797   0.093  -8.790  0.00  0.00    +0.140 A 
BRANCH  32  33
ATOM     33  N   UNL     1      -7.179  -0.053  -9.299  0.00  0.00    +0.058 N 
ATOM     34  O   UNL     1      -7.428   0.205 -10.454  0.00  0.00    -0.126 OA
ATOM     35  O   UNL     1      -8.059  -0.429  -8.560  0.00  0.00    -0.126 OA
ENDBRANCH  32  33
ENDBRANCH  26  27
ENDBRANCH  10  26
TORSDOF 7
