REMARK  Name = ZINC33870580
REMARK  12 active torsions:
REMARK  status: ('A' for Active; 'I' for Inactive)
REMARK    1  A    between atoms: C_1  and  C_2
REMARK    2  A    between atoms: C_2  and  O_4
REMARK    3  A    between atoms: O_4  and  C_5
REMARK    4  A    between atoms: C_8  and  C_11
REMARK    5  A    between atoms: N_19  and  C_22
REMARK    6  A    between atoms: C_22  and  C_23
REMARK    7  A    between atoms: C_22  and  C_24
REMARK    8  A    between atoms: C_22  and  C_25
REMARK    9  A    between atoms: C_26  and  C_28
REMARK   10  A    between atoms: C_26  and  C_38
REMARK   11  A    between atoms: C_28  and  C_29
REMARK   12  A    between atoms: C_32  and  N_35
REMARK                            x       y       z     vdW  Elec       q    Type
REMARK                         _______ _______ _______ _____ _____    ______ ____
ROOT
ATOM      1  C   UNL     1       0.213  -6.292  -1.411  0.00  0.00    +0.097 C 
ATOM      2  C   UNL     1      -1.147  -6.867  -1.798  0.00  0.00    +0.111 C 
ATOM      3  C   UNL     1      -0.638  -8.291  -2.241  0.00  0.00    +0.121 C 
ATOM      4  C   UNL     1      -1.859  -9.060  -2.233  0.00  0.00    +0.228 C 
ATOM      5  O   UNL     1      -2.160  -9.976  -2.968  0.00  0.00    -0.275 OA
ATOM      6  N   UNL     1      -2.606  -8.529  -1.210  0.00  0.00    -0.236 N 
ATOM      7  C   UNL     1      -2.118  -7.322  -0.754  0.00  0.00    +0.228 C 
ATOM      8  O   UNL     1      -2.404  -6.749   0.275  0.00  0.00    -0.275 OA
ATOM      9  C   UNL     1       0.497  -7.990  -3.122  0.00  0.00    +0.138 C 
ATOM     10  N   UNL     1       1.105  -6.740  -2.529  0.00  0.00    -0.293 NA
ATOM     11  H   UNL     1       1.193  -6.022  -3.232  0.00  0.00    +0.124 HD
ENDROOT
BRANCH   1  15
ATOM     12  C   UNL     1       0.052  -2.026  -1.224  0.00  0.00    +0.132 A 
ATOM     13  C   UNL     1       0.030  -2.774  -0.056  0.00  0.00    +0.047 A 
ATOM     14  C   UNL     1       0.082  -4.153  -0.119  0.00  0.00    +0.009 A 
ATOM     15  C   UNL     1       0.156  -4.788  -1.345  0.00  0.00    -0.029 A 
ATOM     16  C   UNL     1       0.178  -4.045  -2.510  0.00  0.00    +0.009 A 
ATOM     17  C   UNL     1       0.120  -2.666  -2.453  0.00  0.00    +0.047 A 
BRANCH  12  18
ATOM     18  O   UNL     1       0.000  -0.669  -1.164  0.00  0.00    -0.426 OA
BRANCH  18  20
ATOM     19  C   UNL     1       1.145   1.497  -0.855  0.00  0.00    +0.136 C 
ATOM     20  C   UNL     1       1.120  -0.010  -0.827  0.00  0.00    +0.309 C 
ATOM     21  O   UNL     1       2.107  -0.625  -0.500  0.00  0.00    -0.251 OA
ENDBRANCH  18  20
ENDBRANCH  12  18
ENDBRANCH   1  15
BRANCH   6  22
ATOM     22  C   UNL     1      -3.806  -9.169  -0.666  0.00  0.00    +0.036 C 
ATOM     23  C   UNL     1      -3.443 -10.548  -0.112  0.00  0.00    +0.031 C 
ATOM     24  C   UNL     1      -4.380  -8.303   0.458  0.00  0.00    +0.031 C 
ATOM     25  C   UNL     1      -4.849  -9.323  -1.774  0.00  0.00    +0.031 C 
ENDBRANCH   6  22
BRANCH   9  26
ATOM     26  C   UNL     1       0.020  -7.754  -4.532  0.00  0.00    +0.377 C 
ATOM     27  O   UNL     1       0.229  -6.683  -5.075  0.00  0.00    -0.244 OA
ATOM     28  O   UNL     1      -0.576  -8.635  -5.129  0.00  0.00    -0.244 OA
ENDBRANCH   9  26
BRANCH   9  29
ATOM     29  C   UNL     1       1.517  -9.130  -3.086  0.00  0.00    +0.069 C 
BRANCH  29  30
ATOM     30  C   UNL     1       2.727  -8.747  -3.899  0.00  0.00    -0.045 A 
ATOM     31  C   UNL     1       2.777  -9.047  -5.247  0.00  0.00    +0.006 A 
ATOM     32  C   UNL     1       3.887  -8.696  -5.993  0.00  0.00    +0.033 A 
ATOM     33  C   UNL     1       4.946  -8.045  -5.390  0.00  0.00    +0.126 A 
ATOM     34  C   UNL     1       4.896  -7.744  -4.041  0.00  0.00    +0.033 A 
ATOM     35  C   UNL     1       3.784  -8.091  -3.297  0.00  0.00    +0.006 A 
BRANCH  33  36
ATOM     36  N   UNL     1       6.135  -7.670  -6.188  0.00  0.00    +0.056 N 
ATOM     37  O   UNL     1       6.179  -7.933  -7.367  0.00  0.00    -0.126 OA
ATOM     38  O   UNL     1       7.062  -7.100  -5.660  0.00  0.00    -0.126 OA
ENDBRANCH  33  36
ENDBRANCH  29  30
ENDBRANCH   9  29
TORSDOF 8
