REMARK  Name = ZINC13336425
REMARK  14 active torsions:
REMARK  status: ('A' for Active; 'I' for Inactive)
REMARK    1  A    between atoms: C_1  and  C_2
REMARK    2  A    between atoms: C_2  and  C_3
REMARK    3  A    between atoms: C_3  and  C_5
REMARK    4  A    between atoms: C_3  and  C_6
REMARK    5  A    between atoms: C_6  and  C_8
REMARK    6  A    between atoms: C_6  and  N_12
REMARK    7  A    between atoms: C_8  and  O_10
REMARK    8  A    between atoms: O_10  and  C_11
REMARK    9  A    between atoms: C_13  and  C_15
REMARK   10  A    between atoms: C_15  and  S_16
REMARK   11  A    between atoms: S_16  and  C_17
REMARK   12  A    between atoms: N_27  and  C_28
REMARK   13  A    between atoms: C_28  and  C_30
REMARK   14  A    between atoms: C_28  and  C_31
REMARK                            x       y       z     vdW  Elec       q    Type
REMARK                         _______ _______ _______ _____ _____    ______ ____
ROOT
ATOM      1  C   UNL     1      -0.181   5.027   4.724  0.00  0.00    +0.173 A 
ATOM      2  N   UNL     1      -1.441   5.305   4.956  0.00  0.00    -0.223 NA
ATOM      3  C   UNL     1      -1.806   6.385   5.676  0.00  0.00    +0.079 A 
ATOM      4  C   UNL     1      -3.150   6.681   5.923  0.00  0.00    +0.028 A 
ATOM      5  C   UNL     1      -3.474   7.786   6.658  0.00  0.00    +0.002 A 
ATOM      6  C   UNL     1      -2.488   8.623   7.164  0.00  0.00    +0.001 A 
ATOM      7  C   UNL     1      -1.165   8.360   6.939  0.00  0.00    +0.015 A 
ATOM      8  C   UNL     1      -0.805   7.239   6.193  0.00  0.00    +0.065 A 
ATOM      9  C   UNL     1       0.600   6.907   5.919  0.00  0.00    +0.263 A 
ATOM     10  O   UNL     1       1.506   7.603   6.338  0.00  0.00    -0.267 OA
ATOM     11  N   UNL     1       0.848   5.794   5.190  0.00  0.00    -0.273 N 
ENDROOT
BRANCH  11  12
ATOM     12  C   UNL     1       2.231   5.413   4.893  0.00  0.00    +0.202 C 
ATOM     13  C   UNL     1       2.914   6.537   4.111  0.00  0.00    +0.043 C 
BRANCH  12  14
ATOM     14  C   UNL     1       2.974   5.175   6.182  0.00  0.00    +0.378 C 
ATOM     15  O   UNL     1       2.402   5.310   7.250  0.00  0.00    -0.244 OA
ATOM     16  O   UNL     1       4.148   4.846   6.157  0.00  0.00    -0.244 OA
ENDBRANCH  12  14
ENDBRANCH  11  12
BRANCH   1  17
ATOM     17  S   UNL     1       0.202   3.594   3.773  0.00  0.00    -0.078 S 
BRANCH  17  18
ATOM     18  C   UNL     1      -1.420   2.889   3.369  0.00  0.00    +0.173 C 
BRANCH  18  20
ATOM     19  N   UNL     1      -2.308   0.943   2.127  0.00  0.00    -0.301 N 
ATOM     20  C   UNL     1      -1.234   1.641   2.546  0.00  0.00    +0.224 C 
ATOM     21  O   UNL     1      -0.117   1.264   2.260  0.00  0.00    -0.275 OA
ATOM     22  H   UNL     1      -3.202   1.283   2.292  0.00  0.00    +0.150 HD
BRANCH  19  23
ATOM     23  C   UNL     1      -2.127  -0.328   1.422  0.00  0.00    +0.185 C 
BRANCH  23  24
ATOM     24  C   UNL     1      -1.881  -0.057  -0.064  0.00  0.00    +0.017 C 
ATOM     25  C   UNL     1      -3.088   0.673  -0.655  0.00  0.00    +0.010 C 
BRANCH  24  27
ATOM     26  C   UNL     1      -0.422  -2.075  -0.262  0.00  0.00    +0.004 C 
ATOM     27  C   UNL     1      -1.677  -1.384  -0.797  0.00  0.00    +0.002 C 
ENDBRANCH  24  27
ENDBRANCH  23  24
BRANCH  23  28
ATOM     28  C   UNL     1      -3.366  -1.171   1.580  0.00  0.00    +0.328 C 
ATOM     29  O   UNL     1      -4.410  -0.656   1.905  0.00  0.00    -0.249 OA
BRANCH  28  30
ATOM     30  O   UNL     1      -3.311  -2.494   1.360  0.00  0.00    -0.467 OA
ATOM     31  C   UNL     1      -4.523  -3.232   1.528  0.00  0.00    +0.280 C 
ENDBRANCH  28  30
ENDBRANCH  23  28
ENDBRANCH  19  23
ENDBRANCH  18  20
ENDBRANCH  17  18
ENDBRANCH   1  17
TORSDOF 10
