REMARK  Name = ZINC39896069
REMARK  11 active torsions:
REMARK  status: ('A' for Active; 'I' for Inactive)
REMARK    1  A    between atoms: C_1  and  C_2
REMARK    2  A    between atoms: C_6  and  C_8
REMARK    3  A    between atoms: C_8  and  C_9
REMARK    4  A    between atoms: N_13  and  C_29
REMARK    5  A    between atoms: C_15  and  C_16
REMARK    6  A    between atoms: C_15  and  C_18
REMARK    7  A    between atoms: N_20  and  C_21
REMARK    8  A    between atoms: C_21  and  C_22
REMARK    9  A    between atoms: C_32  and  C_35
REMARK   10  A    between atoms: C_35  and  C_36
REMARK   11  A    between atoms: C_35  and  C_37
REMARK                            x       y       z     vdW  Elec       q    Type
REMARK                         _______ _______ _______ _____ _____    ______ ____
ROOT
ATOM      1  C   UNL     1       2.247  -2.964   2.991  0.00  0.00    +0.143 C 
ATOM      2  C   UNL     1       2.120  -3.721   4.304  0.00  0.00    +0.238 C 
ATOM      3  O   UNL     1       2.159  -3.160   5.378  0.00  0.00    -0.274 OA
ATOM      4  N   UNL     1       1.965  -5.030   4.200  0.00  0.00    -0.232 N 
ATOM      5  C   UNL     1       1.920  -5.676   2.988  0.00  0.00    +0.098 C 
ATOM      6  C   UNL     1       1.762  -7.041   2.745  0.00  0.00    +0.141 C 
ATOM      7  S   UNL     1       2.111  -4.357   1.796  0.00  0.00    -0.095 S 
ENDROOT
BRANCH   4   8
ATOM      8  C   UNL     1       1.843  -5.788   5.372  0.00  0.00    +0.042 A 
ATOM      9  C   UNL     1       0.587  -6.040   5.909  0.00  0.00    +0.024 A 
ATOM     10  C   UNL     1       0.469  -6.788   7.064  0.00  0.00    +0.006 A 
ATOM     11  C   UNL     1       1.600  -7.286   7.686  0.00  0.00    -0.045 A 
ATOM     12  C   UNL     1       2.852  -7.037   7.153  0.00  0.00    +0.006 A 
ATOM     13  C   UNL     1       2.975  -6.295   5.994  0.00  0.00    +0.024 A 
BRANCH  11  14
ATOM     14  C   UNL     1       1.468  -8.101   8.947  0.00  0.00    +0.013 C 
ATOM     15  C   UNL     1       2.056  -9.494   8.717  0.00  0.00    +0.012 C 
ATOM     16  C   UNL     1       2.225  -7.409  10.082  0.00  0.00    +0.012 C 
ENDBRANCH  11  14
ENDBRANCH   4   8
BRANCH   6  17
ATOM     17  C   UNL     1       1.632  -7.529   1.373  0.00  0.00    +0.257 C 
ATOM     18  O   UNL     1       1.661  -6.744   0.442  0.00  0.00    -0.269 OA
ATOM     19  N   UNL     1       1.480  -8.847   1.138  0.00  0.00    -0.307 N 
ATOM     20  H   UNL     1       1.457  -9.473   1.879  0.00  0.00    +0.149 HD
BRANCH  19  21
ATOM     21  C   UNL     1       1.349  -9.336  -0.237  0.00  0.00    +0.139 C 
BRANCH  21  22
ATOM     22  C   UNL     1       1.192 -10.835  -0.224  0.00  0.00    -0.030 A 
ATOM     23  C   UNL     1       2.309 -11.647  -0.282  0.00  0.00    +0.005 A 
ATOM     24  C   UNL     1       2.165 -13.022  -0.270  0.00  0.00    +0.000 A 
ATOM     25  C   UNL     1       0.904 -13.585  -0.201  0.00  0.00    +0.000 A 
ATOM     26  C   UNL     1      -0.213 -12.772  -0.143  0.00  0.00    +0.000 A 
ATOM     27  C   UNL     1      -0.069 -11.397  -0.150  0.00  0.00    +0.005 A 
ENDBRANCH  21  22
ENDBRANCH  19  21
ENDBRANCH   6  17
BRANCH   6  28
ATOM     28  C   UNL     1       1.729  -7.964   3.840  0.00  0.00    +0.107 C 
ATOM     29  N   UNL     1       1.702  -8.696   4.708  0.00  0.00    -0.191 NA
ENDBRANCH   6  28
BRANCH   1  30
ATOM     30  C   UNL     1       1.100  -1.967   2.813  0.00  0.00    +0.059 C 
BRANCH  30  36
ATOM     31  C   UNL     1       2.951   1.928   0.274  0.00  0.00    +0.044 C 
ATOM     32  C   UNL     1       2.165   0.643   0.301  0.00  0.00    -0.050 A 
ATOM     33  C   UNL     1       1.609   0.147  -0.863  0.00  0.00    +0.003 A 
ATOM     34  C   UNL     1       0.888  -1.031  -0.838  0.00  0.00    +0.001 A 
ATOM     35  C   UNL     1       0.723  -1.716   0.352  0.00  0.00    +0.004 A 
ATOM     36  C   UNL     1       1.280  -1.221   1.516  0.00  0.00    -0.046 A 
ATOM     37  C   UNL     1       2.005  -0.044   1.490  0.00  0.00    +0.007 A 
ENDBRANCH  30  36
ENDBRANCH   1  30
TORSDOF 8
