REMARK  Name = ZINC28835363
REMARK  6 active torsions:
REMARK  status: ('A' for Active; 'I' for Inactive)
REMARK    1  A    between atoms: C_1  and  O_2
REMARK    2  A    between atoms: O_2  and  C_3
REMARK    3  A    between atoms: C_8  and  N_9
REMARK    4  A    between atoms: N_9  and  S_10
REMARK    5  A    between atoms: S_10  and  C_13
REMARK    6  A    between atoms: C_15  and  C_20
REMARK                            x       y       z     vdW  Elec       q    Type
REMARK                         _______ _______ _______ _____ _____    ______ ____
ROOT
ATOM      1  C   UNL     1       1.515  -5.025  -0.041  0.00  0.00    +0.129 A 
ATOM      2  C   UNL     1       2.003  -5.742   1.031  0.00  0.00    +0.043 A 
ATOM      3  C   UNL     1       3.319  -6.210   1.014  0.00  0.00    +0.039 A 
ATOM      4  C   UNL     1       4.133  -5.947  -0.090  0.00  0.00    +0.014 A 
ATOM      5  C   UNL     1       3.634  -5.229  -1.156  0.00  0.00    +0.023 A 
ATOM      6  C   UNL     1       2.326  -4.773  -1.135  0.00  0.00    +0.068 A 
ATOM      7 CL   UNL     1       1.702  -3.875  -2.484  0.00  0.00    -0.082 Cl
ENDROOT
BRANCH   3   8
ATOM      8  C   UNL     1       3.848  -6.978   2.160  0.00  0.00    +0.250 C 
ATOM      9  O   UNL     1       3.138  -7.205   3.120  0.00  0.00    -0.270 OA
ATOM     10  N   UNL     1       5.118  -7.428   2.140  0.00  0.00    -0.261 N 
ATOM     11  C   UNL     1       5.614  -8.148   3.214  0.00  0.00    +0.166 A 
ATOM     12  N   UNL     1       5.006  -8.494   4.324  0.00  0.00    -0.225 NA
ATOM     13  C   UNL     1       5.618  -9.204   5.296  0.00  0.00    +0.080 A 
ATOM     14  C   UNL     1       5.081  -9.638   6.531  0.00  0.00    +0.029 A 
ATOM     15  C   UNL     1       5.846 -10.356   7.413  0.00  0.00    +0.002 A 
ATOM     16  C   UNL     1       7.165 -10.682   7.131  0.00  0.00    +0.001 A 
ATOM     17  C   UNL     1       7.722 -10.275   5.933  0.00  0.00    +0.017 A 
ATOM     18  C   UNL     1       6.964  -9.555   5.043  0.00  0.00    +0.041 A 
ATOM     19  S   UNL     1       7.243  -8.850   3.437  0.00  0.00    -0.052 S 
ATOM     20  H   UNL     1       5.685  -7.247   1.374  0.00  0.00    +0.157 HD
ENDBRANCH   3   8
BRANCH   1  21
ATOM     21  S   UNL     1      -0.145  -4.434  -0.021  0.00  0.00    +0.093 S 
ATOM     22  O   UNL     1      -0.699  -4.824   1.228  0.00  0.00    -0.148 OA
ATOM     23  O   UNL     1      -0.724  -4.810  -1.263  0.00  0.00    -0.148 OA
BRANCH  21  24
ATOM     24  N   UNL     1      -0.075  -2.780  -0.013  0.00  0.00    -0.094 NA
BRANCH  24  30
ATOM     25  C   UNL     1      -1.201  -0.638   0.010  0.00  0.00    +0.144 A 
ATOM     26  C   UNL     1      -2.374   0.099   0.019  0.00  0.00    +0.047 A 
ATOM     27  C   UNL     1      -3.597  -0.547   0.028  0.00  0.00    +0.004 A 
ATOM     28  C   UNL     1      -3.653  -1.928   0.027  0.00  0.00    +0.002 A 
ATOM     29  C   UNL     1      -2.487  -2.671   0.017  0.00  0.00    +0.030 A 
ATOM     30  C   UNL     1      -1.257  -2.030   0.003  0.00  0.00    +0.116 A 
BRANCH  25  32
ATOM     31  C   UNL     1      -0.017   1.425   0.010  0.00  0.00    +0.277 C 
ATOM     32  O   UNL     1       0.002  -0.004   0.002  0.00  0.00    -0.493 OA
ENDBRANCH  25  32
ENDBRANCH  24  30
ENDBRANCH  21  24
ENDBRANCH   1  21
TORSDOF 5
