REMARK  Name = ZINC35486461
REMARK  14 active torsions:
REMARK  status: ('A' for Active; 'I' for Inactive)
REMARK    1  A    between atoms: C_1  and  C_2
REMARK    2  A    between atoms: C_2  and  N_3
REMARK    3  A    between atoms: N_3  and  C_4
REMARK    4  A    between atoms: N_3  and  C_6
REMARK    5  A    between atoms: C_4  and  C_5
REMARK    6  A    between atoms: C_6  and  C_7
REMARK    7  A    between atoms: C_7  and  N_8
REMARK    8  A    between atoms: C_9  and  C_25
REMARK    9  A    between atoms: C_27  and  O_35
REMARK   10  A    between atoms: C_28  and  O_33
REMARK   11  A    between atoms: C_29  and  O_31
REMARK   12  A    between atoms: O_31  and  C_32
REMARK   13  A    between atoms: O_33  and  C_34
REMARK   14  A    between atoms: O_35  and  C_36
REMARK                            x       y       z     vdW  Elec       q    Type
REMARK                         _______ _______ _______ _____ _____    ______ ____
ROOT
ATOM      1  N   UNL     1      -3.383  -3.454  -0.259  0.00  0.00    -0.285 N 
ATOM      2  C   UNL     1      -3.317  -4.346  -1.428  0.00  0.00    +0.145 C 
ATOM      3  C   UNL     1      -3.548  -5.724  -0.903  0.00  0.00    +0.072 A 
ATOM      4  C   UNL     1      -3.607  -7.021  -1.586  0.00  0.00    +0.199 A 
ATOM      5  O   UNL     1      -3.289  -7.176  -2.752  0.00  0.00    -0.287 OA
ATOM      6  C   UNL     1      -4.092  -8.127  -0.721  0.00  0.00    +0.066 A 
ATOM      7  C   UNL     1      -4.393  -9.373  -1.271  0.00  0.00    +0.035 A 
ATOM      8  C   UNL     1      -4.846 -10.386  -0.455  0.00  0.00    +0.042 A 
ATOM      9  C   UNL     1      -5.003 -10.164   0.908  0.00  0.00    +0.023 A 
ATOM     10  C   UNL     1      -4.707  -8.939   1.461  0.00  0.00    +0.048 A 
ATOM     11  C   UNL     1      -4.243  -7.898   0.656  0.00  0.00    +0.140 A 
ATOM     12  O   UNL     1      -3.951  -6.707   1.227  0.00  0.00    -0.450 OA
ATOM     13  C   UNL     1      -3.726  -5.631   0.448  0.00  0.00    +0.199 A 
ATOM     14  C   UNL     1      -3.618  -4.213   0.832  0.00  0.00    +0.283 C 
ATOM     15  O   UNL     1      -3.726  -3.788   1.965  0.00  0.00    -0.267 OA
ATOM     16 CL   UNL     1      -5.223 -11.940  -1.129  0.00  0.00    -0.084 Cl
ENDROOT
BRANCH   2  17
ATOM     17  C   UNL     1      -1.959  -4.255  -2.075  0.00  0.00    -0.015 A 
ATOM     18  C   UNL     1      -0.825  -4.178  -1.288  0.00  0.00    +0.055 A 
ATOM     19  C   UNL     1       0.427  -4.094  -1.879  0.00  0.00    +0.165 A 
ATOM     20  C   UNL     1       0.540  -4.087  -3.264  0.00  0.00    +0.204 A 
ATOM     21  C   UNL     1      -0.602  -4.165  -4.051  0.00  0.00    +0.165 A 
ATOM     22  C   UNL     1      -1.850  -4.254  -3.453  0.00  0.00    +0.055 A 
BRANCH  21  23
ATOM     23  O   UNL     1      -0.496  -4.158  -5.407  0.00  0.00    -0.491 OA
ATOM     24  C   UNL     1      -1.712  -4.241  -6.153  0.00  0.00    +0.277 C 
ENDBRANCH  21  23
BRANCH  20  25
ATOM     25  O   UNL     1       1.767  -4.005  -3.847  0.00  0.00    -0.488 OA
ATOM     26  C   UNL     1       2.438  -5.235  -4.125  0.00  0.00    +0.277 C 
ENDBRANCH  20  25
BRANCH  19  27
ATOM     27  O   UNL     1       1.542  -4.018  -1.104  0.00  0.00    -0.491 OA
ATOM     28  C   UNL     1       1.350  -4.030   0.312  0.00  0.00    +0.277 C 
ENDBRANCH  19  27
ENDBRANCH   2  17
BRANCH   1  29
ATOM     29  C   UNL     1      -3.218  -1.999  -0.275  0.00  0.00    +0.090 C 
BRANCH  29  30
ATOM     30  C   UNL     1      -1.740  -1.652  -0.086  0.00  0.00    -0.060 C 
BRANCH  30  31
ATOM     31  N   UNL     1      -1.590  -0.195   0.034  0.00  0.00    +0.380 N 
ATOM     32  H   UNL     1      -2.024   0.253  -0.759  0.00  0.00    -0.082 HD
BRANCH  31  34
ATOM     33  C   UNL     1      -2.191   1.792   1.333  0.00  0.00    -0.017 C 
ATOM     34  C   UNL     1      -2.237   0.264   1.270  0.00  0.00    -0.082 C 
ENDBRANCH  31  34
BRANCH  31  35
ATOM     35  C   UNL     1      -0.163   0.149   0.071  0.00  0.00    -0.082 C 
ATOM     36  C   UNL     1       0.480  -0.193  -1.275  0.00  0.00    -0.017 C 
ENDBRANCH  31  35
ENDBRANCH  30  31
ENDBRANCH  29  30
ENDBRANCH   1  29
TORSDOF 9
