REMARK  Name = ZINC39689488
REMARK  7 active torsions:
REMARK  status: ('A' for Active; 'I' for Inactive)
REMARK    1  A    between atoms: C_1  and  C_2
REMARK    2  A    between atoms: C_6  and  C_8
REMARK    3  A    between atoms: C_8  and  C_9
REMARK    4  A    between atoms: C_9  and  N_10
REMARK    5  A    between atoms: C_11  and  C_13
REMARK    6  A    between atoms: C_24  and  C_26
REMARK    7  A    between atoms: C_29  and  C_31
REMARK                            x       y       z     vdW  Elec       q    Type
REMARK                         _______ _______ _______ _____ _____    ______ ____
ROOT
ATOM      1  C   UNL     1       2.709  -4.908   6.063  0.00  0.00    +0.100 C 
ATOM      2  C   UNL     1       2.159  -4.028   7.208  0.00  0.00    +0.121 C 
ATOM      3  N   UNL     1       2.994  -4.376   8.381  0.00  0.00    -0.294 N 
ATOM      4  C   UNL     1       4.362  -4.529   7.829  0.00  0.00    +0.115 C 
ATOM      5  C   UNL     1       4.154  -5.234   6.474  0.00  0.00    -0.004 C 
ATOM      6  C   UNL     1       5.134  -4.688   5.440  0.00  0.00    -0.010 C 
ATOM      7  C   UNL     1       6.560  -5.075   5.840  0.00  0.00    -0.082 C 
ATOM      8  N   UNL     1       6.668  -6.537   5.921  0.00  0.00    +0.379 N 
ATOM      9  C   UNL     1       5.791  -7.045   6.982  0.00  0.00    -0.082 C 
ATOM     10  C   UNL     1       4.332  -6.742   6.630  0.00  0.00    -0.010 C 
ATOM     11  C   UNL     1       2.599  -4.522   9.662  0.00  0.00    +0.282 C 
ATOM     12  O   UNL     1       3.412  -4.813  10.520  0.00  0.00    -0.267 OA
ATOM     13  H   UNL     1       6.396  -6.942   5.038  0.00  0.00    -0.086 HD
ATOM     14  H   UNL     1       7.623  -6.792   6.125  0.00  0.00    -0.086 HD
ENDROOT
BRANCH  11  15
ATOM     15  C   UNL     1       1.192  -4.330  10.021  0.00  0.00    +0.190 A 
ATOM     16  C   UNL     1       0.657  -4.443  11.285  0.00  0.00    +0.055 A 
ATOM     17  C   UNL     1      -0.711  -4.179  11.170  0.00  0.00    +0.051 A 
ATOM     18  C   UNL     1      -0.960  -3.919   9.852  0.00  0.00    +0.139 A 
ATOM     19  O   UNL     1       0.194  -4.007   9.171  0.00  0.00    -0.450 OA
BRANCH  18  20
ATOM     20  C   UNL     1      -2.278  -3.589   9.274  0.00  0.00    +0.052 A 
ATOM     21  C   UNL     1      -3.389  -4.385   9.560  0.00  0.00    +0.014 A 
ATOM     22  C   UNL     1      -4.617  -4.072   9.017  0.00  0.00    +0.001 A 
ATOM     23  C   UNL     1      -4.751  -2.970   8.189  0.00  0.00    +0.003 A 
ATOM     24  C   UNL     1      -3.657  -2.175   7.901  0.00  0.00    +0.039 A 
ATOM     25  C   UNL     1      -2.421  -2.474   8.443  0.00  0.00    +0.134 A 
ATOM     26  F   UNL     1      -1.353  -1.694   8.165  0.00  0.00    -0.205 F 
ENDBRANCH  18  20
ENDBRANCH  11  15
BRANCH   1  28
ATOM     27  N   UNL     1       2.563  -4.810   3.595  0.00  0.00    -0.315 N 
ATOM     28  C   UNL     1       2.692  -4.147   4.762  0.00  0.00    +0.218 C 
ATOM     29  O   UNL     1       2.795  -2.939   4.764  0.00  0.00    -0.275 OA
ATOM     30  H   UNL     1       2.481  -5.777   3.593  0.00  0.00    +0.149 HD
BRANCH  27  31
ATOM     31  C   UNL     1       2.547  -4.071   2.331  0.00  0.00    +0.109 C 
BRANCH  31  32
ATOM     32  C   UNL     1       2.391  -5.053   1.168  0.00  0.00    +0.054 C 
BRANCH  32  38
ATOM     33  C   UNL     1      -0.145  -2.657  -2.420  0.00  0.00    +0.044 C 
ATOM     34  C   UNL     1       1.161  -3.147  -1.850  0.00  0.00    -0.050 A 
ATOM     35  C   UNL     1       2.345  -2.898  -2.520  0.00  0.00    +0.003 A 
ATOM     36  C   UNL     1       3.542  -3.347  -1.998  0.00  0.00    +0.001 A 
ATOM     37  C   UNL     1       3.558  -4.045  -0.804  0.00  0.00    +0.004 A 
ATOM     38  C   UNL     1       2.375  -4.292  -0.133  0.00  0.00    -0.046 A 
ATOM     39  C   UNL     1       1.177  -3.840  -0.654  0.00  0.00    +0.007 A 
ENDBRANCH  32  38
ENDBRANCH  31  32
ENDBRANCH  27  31
ENDBRANCH   1  28
TORSDOF 6
