REMARK  Name = ZINC12008386
REMARK  7 active torsions:
REMARK  status: ('A' for Active; 'I' for Inactive)
REMARK    1  A    between atoms: C_1  and  C_2
REMARK    2  A    between atoms: C_3  and  C_37
REMARK    3  A    between atoms: C_11  and  N_20
REMARK    4  A    between atoms: C_13  and  C_15
REMARK    5  A    between atoms: C_21  and  C_23
REMARK    6  A    between atoms: C_26  and  S_29
REMARK    7  A    between atoms: S_29  and  N_32
REMARK                            x       y       z     vdW  Elec       q    Type
REMARK                         _______ _______ _______ _____ _____    ______ ____
ROOT
ATOM      1  C   UNL     1       2.517   1.243  -0.015  0.00  0.00    +0.051 C 
ATOM      2  C   UNL     1       1.187   1.950   0.001  0.00  0.00    +0.035 A 
ATOM      3  C   UNL     1       1.125   3.312   0.009  0.00  0.00    +0.050 A 
ATOM      4  N   UNL     1      -0.056   3.927   0.022  0.00  0.00    -0.217 NA
ATOM      5  C   UNL     1      -1.183   3.248   0.029  0.00  0.00    +0.234 A 
ATOM      6  N   UNL     1      -1.185   1.888   0.018  0.00  0.00    -0.291 N 
ATOM      7  H   UNL     1      -2.025   1.403   0.019  0.00  0.00    +0.172 HD
ATOM      8  C   UNL     1      -0.015   1.216   0.009  0.00  0.00    +0.256 A 
ATOM      9  O   UNL     1       0.002  -0.004   0.002  0.00  0.00    -0.267 OA
ATOM     10  N   UNL     1      -2.385   3.928   0.043  0.00  0.00    -0.184 N 
ATOM     11  C   UNL     1      -2.540   5.285   0.056  0.00  0.00    +0.133 A 
ATOM     12  C   UNL     1      -3.871   5.548   0.064  0.00  0.00    +0.077 A 
ATOM     13  C   UNL     1      -4.555   4.314   0.065  0.00  0.00    +0.130 A 
ATOM     14  N   UNL     1      -3.659   3.347   0.052  0.00  0.00    -0.159 NA
ATOM     15  C   UNL     1       2.395   4.123   0.001  0.00  0.00    +0.066 C 
ENDROOT
BRANCH  13  16
ATOM     16  C   UNL     1      -6.022   4.136   0.077  0.00  0.00    +0.155 A 
ATOM     17  C   UNL     1      -6.682   2.947   0.072  0.00  0.00    +0.051 A 
ATOM     18  C   UNL     1      -8.059   3.247   0.091  0.00  0.00    +0.042 A 
ATOM     19  C   UNL     1      -8.170   4.590   0.098  0.00  0.00    +0.196 A 
ATOM     20  O   UNL     1      -6.938   5.124   0.089  0.00  0.00    -0.461 OA
ENDBRANCH  13  16
BRANCH  11  21
ATOM     21  N   UNL     1      -1.516   6.229   0.057  0.00  0.00    -0.266 N 
ATOM     22  C   UNL     1      -1.812   7.544   0.071  0.00  0.00    +0.249 C 
ATOM     23  O   UNL     1      -2.972   7.906   0.082  0.00  0.00    -0.270 OA
ATOM     24  H   UNL     1      -0.590   5.940   0.048  0.00  0.00    +0.157 HD
BRANCH  22  25
ATOM     25  C   UNL     1      -0.725   8.546   0.072  0.00  0.00    +0.037 A 
ATOM     26  C   UNL     1       0.609   8.133   0.065  0.00  0.00    +0.015 A 
ATOM     27  C   UNL     1       1.618   9.073   0.060  0.00  0.00    +0.029 A 
ATOM     28  C   UNL     1       1.311  10.423   0.074  0.00  0.00    +0.106 A 
ATOM     29  C   UNL     1      -0.008  10.838   0.087  0.00  0.00    +0.029 A 
ATOM     30  C   UNL     1      -1.028   9.908   0.086  0.00  0.00    +0.015 A 
BRANCH  28  31
ATOM     31  S   UNL     1       2.607  11.617   0.074  0.00  0.00    +0.061 S 
ATOM     32  O   UNL     1       3.746  10.981  -0.490  0.00  0.00    -0.153 OA
ATOM     33  O   UNL     1       2.058  12.812  -0.462  0.00  0.00    -0.153 OA
BRANCH  31  34
ATOM     34  N   UNL     1       2.978  11.935   1.657  0.00  0.00    -0.177 NA
ATOM     35  C   UNL     1       2.365  12.982   2.487  0.00  0.00    +0.109 C 
ATOM     36  C   UNL     1       3.039  12.921   3.874  0.00  0.00    +0.018 C 
ATOM     37  C   UNL     1       4.392  12.224   3.570  0.00  0.00    +0.018 C 
ATOM     38  C   UNL     1       3.983  11.219   2.464  0.00  0.00    +0.109 C 
ENDBRANCH  31  34
ENDBRANCH  28  31
ENDBRANCH  22  25
ENDBRANCH  11  21
TORSDOF 5
