REMARK  Name = ZINC01155248
REMARK  7 active torsions:
REMARK  status: ('A' for Active; 'I' for Inactive)
REMARK    1  A    between atoms: C_1  and  C_2
REMARK    2  A    between atoms: C_5  and  C_8
REMARK    3  A    between atoms: C_8  and  C_10
REMARK    4  A    between atoms: C_12  and  C_24
REMARK    5  A    between atoms: C_18  and  C_19
REMARK    6  A    between atoms: C_18  and  O_23
REMARK    7  A    between atoms: C_28  and  N_30
REMARK                            x       y       z     vdW  Elec       q    Type
REMARK                         _______ _______ _______ _____ _____    ______ ____
ROOT
ATOM      1  C   UNL     1      -0.639   3.420   1.349  0.00  0.00    +0.144 C 
ATOM      2  C   UNL     1      -1.259   3.887   2.669  0.00  0.00    +0.120 C 
ATOM      3  N   UNL     1      -0.597   3.202   3.780  0.00  0.00    -0.292 N 
ATOM      4  C   UNL     1      -0.068   1.979   3.630  0.00  0.00    +0.302 C 
ATOM      5  O   UNL     1       0.462   1.450   4.588  0.00  0.00    -0.253 OA
ATOM      6  N   UNL     1      -0.101   1.316   2.464  0.00  0.00    -0.264 N 
ATOM      7  C   UNL     1      -0.735   1.892   1.278  0.00  0.00    +0.243 C 
ATOM      8  H   UNL     1      -0.538   3.642   4.643  0.00  0.00    +0.151 HD
ATOM      9  H   UNL     1       0.304   0.436   2.406  0.00  0.00    +0.153 HD
ENDROOT
BRANCH   2  10
ATOM     10  C   UNL     1      -1.075   5.376   2.814  0.00  0.00    -0.024 A 
ATOM     11  C   UNL     1       0.139   5.884   3.237  0.00  0.00    +0.005 A 
ATOM     12  C   UNL     1       0.308   7.250   3.370  0.00  0.00    +0.003 A 
ATOM     13  C   UNL     1      -0.736   8.107   3.078  0.00  0.00    +0.033 A 
ATOM     14  C   UNL     1      -1.950   7.599   2.653  0.00  0.00    +0.127 A 
ATOM     15  C   UNL     1      -2.117   6.234   2.517  0.00  0.00    +0.038 A 
BRANCH  14  16
ATOM     16  N   UNL     1      -3.068   8.517   2.341  0.00  0.00    +0.056 N 
ATOM     17  O   UNL     1      -2.919   9.720   2.459  0.00  0.00    -0.126 OA
ATOM     18  O   UNL     1      -4.137   8.069   1.967  0.00  0.00    -0.126 OA
ENDBRANCH  14  16
ENDBRANCH   2  10
BRANCH   7  19
ATOM     19  C   UNL     1      -0.020   1.393   0.021  0.00  0.00    +0.436 C 
ATOM     20  F   UNL     1       0.008  -0.006   0.025  0.00  0.00    -0.166 F 
ATOM     21  F   UNL     1       1.290   1.885   0.003  0.00  0.00    -0.166 F 
ATOM     22  F   UNL     1      -0.703   1.842  -1.114  0.00  0.00    -0.166 F 
ENDBRANCH   7  19
BRANCH   1  23
ATOM     23  C   UNL     1      -1.392   4.028   0.193  0.00  0.00    +0.173 C 
ATOM     24  O   UNL     1      -2.593   3.888   0.111  0.00  0.00    -0.292 OA
BRANCH  23  29
ATOM     25  C   UNL     1       1.435   7.015  -3.824  0.00  0.00    +0.044 C 
ATOM     26  C   UNL     1       0.694   6.232  -2.771  0.00  0.00    -0.050 A 
ATOM     27  C   UNL     1      -0.688   6.164  -2.808  0.00  0.00    +0.004 A 
ATOM     28  C   UNL     1      -1.373   5.450  -1.849  0.00  0.00    +0.011 A 
ATOM     29  C   UNL     1      -0.668   4.793  -0.836  0.00  0.00    +0.018 A 
ATOM     30  C   UNL     1       0.728   4.870  -0.801  0.00  0.00    +0.011 A 
ATOM     31  C   UNL     1       1.399   5.584  -1.771  0.00  0.00    +0.004 A 
ENDBRANCH  23  29
ENDBRANCH   1  23
BRANCH   7  32
ATOM     32  O   UNL     1      -2.109   1.500   1.233  0.00  0.00    -0.364 OA
ATOM     33  H   UNL     1      -2.244   0.544   1.190  0.00  0.00    +0.212 HD
ENDBRANCH   7  32
TORSDOF 6
