REMARK  Name = ZINC09416939
REMARK  8 active torsions:
REMARK  status: ('A' for Active; 'I' for Inactive)
REMARK    1  A    between atoms: C_1  and  C_2
REMARK    2  A    between atoms: C_2  and  C_3
REMARK    3  A    between atoms: C_2  and  N_4
REMARK    4  A    between atoms: N_4  and  C_5
REMARK    5  A    between atoms: C_8  and  N_11
REMARK    6  A    between atoms: N_11  and  C_12
REMARK    7  A    between atoms: C_18  and  C_20
REMARK    8  A    between atoms: C_20  and  N_21
REMARK                            x       y       z     vdW  Elec       q    Type
REMARK                         _______ _______ _______ _____ _____    ______ ____
ROOT
ATOM      1  N   UNL     1      -0.800   1.339   0.488  0.00  0.00    -0.268 N 
ATOM      2  C   UNL     1       0.014   0.280   0.306  0.00  0.00    +0.238 C 
ATOM      3  O   UNL     1      -0.240  -0.779   0.840  0.00  0.00    -0.273 OA
ENDROOT
BRANCH   1   4
ATOM      4  C   UNL     1      -1.998   1.187   1.200  0.00  0.00    +0.037 A 
ATOM      5  C   UNL     1      -3.162   0.832   0.532  0.00  0.00    +0.025 A 
ATOM      6  C   UNL     1      -4.341   0.678   1.234  0.00  0.00    +0.025 A 
ATOM      7  C   UNL     1      -4.364   0.889   2.607  0.00  0.00    +0.031 A 
ATOM      8  C   UNL     1      -3.201   1.249   3.274  0.00  0.00    +0.025 A 
ATOM      9  C   UNL     1      -2.021   1.398   2.572  0.00  0.00    +0.025 A 
BRANCH   7  10
ATOM     10  N   UNL     1      -5.560   0.738   3.317  0.00  0.00    -0.314 N 
ATOM     11  H   UNL     1      -5.541   0.454   4.244  0.00  0.00    +0.152 HD
BRANCH  10  12
ATOM     12  C   UNL     1      -6.782   0.997   2.691  0.00  0.00    +0.031 A 
ATOM     13  C   UNL     1      -6.856   1.935   1.669  0.00  0.00    +0.023 A 
ATOM     14  C   UNL     1      -8.064   2.184   1.049  0.00  0.00    +0.002 A 
ATOM     15  C   UNL     1      -9.202   1.508   1.450  0.00  0.00    +0.000 A 
ATOM     16  C   UNL     1      -9.133   0.578   2.471  0.00  0.00    +0.002 A 
ATOM     17  C   UNL     1      -7.927   0.320   3.092  0.00  0.00    +0.023 A 
ENDBRANCH  10  12
ENDBRANCH   7  10
ENDBRANCH   1   4
BRANCH   1  19
ATOM     18  C   UNL     1      -1.425   3.040  -1.154  0.00  0.00    +0.028 C 
ATOM     19  C   UNL     1      -0.432   2.647  -0.057  0.00  0.00    +0.075 C 
ATOM     20  C   UNL     1      -0.466   3.693   1.059  0.00  0.00    +0.028 C 
ENDBRANCH   1  19
BRANCH   2  21
ATOM     21  C   UNL     1       1.240   0.412  -0.560  0.00  0.00    +0.214 C 
BRANCH  21  22
ATOM     22  N   UNL     1       1.951  -0.868  -0.599  0.00  0.00    -0.215 N 
ATOM     23  C   UNL     1       1.722  -1.837  -1.511  0.00  0.00    +0.251 C 
ATOM     24  O   UNL     1       0.920  -1.818  -2.420  0.00  0.00    -0.272 OA
ATOM     25  C   UNL     1       2.676  -2.948  -1.156  0.00  0.00    +0.138 C 
ATOM     26  C   UNL     1       3.630  -3.255  -2.318  0.00  0.00    +0.045 C 
ATOM     27  C   UNL     1       3.861  -4.774  -2.157  0.00  0.00    +0.038 C 
ATOM     28  C   UNL     1       2.632  -5.289  -1.437  0.00  0.00    -0.042 A 
ATOM     29  C   UNL     1       1.950  -4.231  -0.858  0.00  0.00    -0.012 A 
ATOM     30  C   UNL     1       0.788  -4.473  -0.144  0.00  0.00    +0.006 A 
ATOM     31  C   UNL     1       0.309  -5.761  -0.006  0.00  0.00    +0.000 A 
ATOM     32  C   UNL     1       0.991  -6.816  -0.584  0.00  0.00    +0.000 A 
ATOM     33  C   UNL     1       2.149  -6.579  -1.297  0.00  0.00    +0.004 A 
ATOM     34  N   UNL     1       3.403  -2.451   0.012  0.00  0.00    -0.281 N 
ATOM     35  C   UNL     1       2.914  -1.220   0.264  0.00  0.00    +0.310 C 
ATOM     36  O   UNL     1       3.301  -0.511   1.172  0.00  0.00    -0.252 OA
ATOM     37  H   UNL     1       4.100  -2.913   0.505  0.00  0.00    +0.152 HD
ENDBRANCH  21  22
ENDBRANCH   2  21
TORSDOF 6
