REMARK  Name = ZINC39690335
REMARK  6 active torsions:
REMARK  status: ('A' for Active; 'I' for Inactive)
REMARK    1  A    between atoms: N_4  and  C_6
REMARK    2  A    between atoms: C_9  and  C_12
REMARK    3  A    between atoms: C_12  and  N_13
REMARK    4  A    between atoms: C_14  and  C_16
REMARK    5  A    between atoms: C_27  and  C_29
REMARK    6  A    between atoms: C_32  and  C_34
REMARK                            x       y       z     vdW  Elec       q    Type
REMARK                         _______ _______ _______ _____ _____    ______ ____
ROOT
ATOM      1  C   UNL     1       3.823  -8.023   2.971  0.00  0.00    +0.100 C 
ATOM      2  C   UNL     1       2.491  -7.895   3.742  0.00  0.00    +0.121 C 
ATOM      3  N   UNL     1       1.859  -9.230   3.622  0.00  0.00    -0.294 N 
ATOM      4  C   UNL     1       2.985 -10.184   3.758  0.00  0.00    +0.115 C 
ATOM      5  C   UNL     1       4.146  -9.526   2.986  0.00  0.00    -0.004 C 
ATOM      6  C   UNL     1       4.205 -10.069   1.562  0.00  0.00    -0.010 C 
ATOM      7  C   UNL     1       4.583 -11.552   1.601  0.00  0.00    -0.082 C 
ATOM      8  N   UNL     1       5.885 -11.710   2.261  0.00  0.00    +0.379 N 
ATOM      9  C   UNL     1       5.794 -11.272   3.659  0.00  0.00    -0.082 C 
ATOM     10  C   UNL     1       5.467  -9.777   3.707  0.00  0.00    -0.010 C 
ATOM     11  C   UNL     1       0.554  -9.512   3.432  0.00  0.00    +0.282 C 
ATOM     12  O   UNL     1       0.188 -10.670   3.353  0.00  0.00    -0.267 OA
ATOM     13  H   UNL     1       6.160 -12.681   2.232  0.00  0.00    -0.086 HD
ATOM     14  H   UNL     1       6.574 -11.153   1.779  0.00  0.00    -0.086 HD
ENDROOT
BRANCH  11  15
ATOM     15  C   UNL     1      -0.421  -8.425   3.319  0.00  0.00    +0.190 A 
ATOM     16  C   UNL     1      -1.778  -8.573   3.130  0.00  0.00    +0.055 A 
ATOM     17  C   UNL     1      -2.321  -7.285   3.081  0.00  0.00    +0.050 A 
ATOM     18  C   UNL     1      -1.287  -6.407   3.240  0.00  0.00    +0.136 A 
ATOM     19  O   UNL     1      -0.149  -7.105   3.388  0.00  0.00    -0.450 OA
BRANCH  18  20
ATOM     20  C   UNL     1      -1.402  -4.935   3.252  0.00  0.00    +0.017 A 
ATOM     21  C   UNL     1      -2.651  -4.328   3.098  0.00  0.00    +0.014 A 
ATOM     22  C   UNL     1      -2.752  -2.953   3.111  0.00  0.00    +0.039 A 
ATOM     23  C   UNL     1      -1.618  -2.173   3.277  0.00  0.00    +0.123 A 
ATOM     24  C   UNL     1      -0.377  -2.770   3.430  0.00  0.00    +0.039 A 
ATOM     25  C   UNL     1      -0.264  -4.144   3.424  0.00  0.00    +0.014 A 
ATOM     26  F   UNL     1      -1.724  -0.827   3.289  0.00  0.00    -0.205 F 
ENDBRANCH  18  20
ENDBRANCH  11  15
BRANCH   1  28
ATOM     27  N   UNL     1       4.714  -7.023   0.891  0.00  0.00    -0.311 N 
ATOM     28  C   UNL     1       3.659  -7.536   1.554  0.00  0.00    +0.218 C 
ATOM     29  O   UNL     1       2.576  -7.606   1.011  0.00  0.00    -0.275 OA
ATOM     30  H   UNL     1       5.579  -6.968   1.325  0.00  0.00    +0.149 HD
BRANCH  27  31
ATOM     31  C   UNL     1       4.553  -6.550  -0.487  0.00  0.00    +0.139 C 
BRANCH  31  35
ATOM     32  C   UNL     1       8.294  -5.071  -1.929  0.00  0.00    +0.046 A 
ATOM     33  C   UNL     1       7.961  -6.408  -2.103  0.00  0.00    +0.026 A 
ATOM     34  C   UNL     1       6.752  -6.883  -1.636  0.00  0.00    +0.007 A 
ATOM     35  C   UNL     1       5.872  -6.029  -0.995  0.00  0.00    -0.030 A 
ATOM     36  C   UNL     1       6.201  -4.697  -0.821  0.00  0.00    +0.007 A 
ATOM     37  C   UNL     1       7.412  -4.217  -1.281  0.00  0.00    +0.026 A 
BRANCH  32  41
ATOM     38  C   UNL     1      11.185  -3.223  -2.863  0.00  0.00    +0.019 A 
ATOM     39  C   UNL     1      11.505  -4.507  -3.347  0.00  0.00    +0.019 A 
ATOM     40  C   UNL     1      10.472  -5.321  -3.052  0.00  0.00    +0.091 A 
ATOM     41  N   UNL     1       9.522  -4.586  -2.402  0.00  0.00    -0.323 N 
ATOM     42  C   UNL     1       9.966  -3.300  -2.289  0.00  0.00    +0.091 A 
ENDBRANCH  32  41
ENDBRANCH  31  35
ENDBRANCH  27  31
ENDBRANCH   1  28
TORSDOF 6
