REMARK  Name = ZINC44915853
REMARK  6 active torsions:
REMARK  status: ('A' for Active; 'I' for Inactive)
REMARK    1  A    between atoms: C_4  and  C_7
REMARK    2  A    between atoms: C_7  and  C_9
REMARK    3  A    between atoms: C_14  and  N_15
REMARK    4  A    between atoms: C_16  and  C_18
REMARK    5  A    between atoms: N_21  and  C_24
REMARK    6  A    between atoms: C_24  and  C_25
REMARK                            x       y       z     vdW  Elec       q    Type
REMARK                         _______ _______ _______ _____ _____    ______ ____
ROOT
ATOM      1  N   UNL     1       6.268  -2.003   0.048  0.00  0.00    -0.285 N 
ATOM      2  C   UNL     1       7.468  -2.614  -0.012  0.00  0.00    +0.220 C 
ATOM      3  O   UNL     1       7.530  -3.825  -0.063  0.00  0.00    -0.275 OA
ATOM      4  H   UNL     1       6.219  -1.043   0.175  0.00  0.00    +0.155 HD
ENDROOT
BRANCH   2   5
ATOM      5  C   UNL     1       8.732  -1.794  -0.015  0.00  0.00    +0.072 C 
ATOM      6  C   UNL     1       8.810  -0.969   1.273  0.00  0.00    -0.006 C 
ATOM      7  C   UNL     1      10.133  -0.200   1.300  0.00  0.00    -0.078 C 
ATOM      8  N   UNL     1      11.254  -1.146   1.254  0.00  0.00    +0.382 N 
ATOM      9  C   UNL     1      11.226  -1.890  -0.011  0.00  0.00    -0.078 C 
ATOM     10  C   UNL     1       9.946  -2.724  -0.089  0.00  0.00    -0.006 C 
ATOM     11  H   UNL     1      11.180  -1.792   2.025  0.00  0.00    -0.081 HD
BRANCH   8  12
ATOM     12  C   UNL     1      12.520  -0.408   1.358  0.00  0.00    -0.043 C 
BRANCH  12  13
ATOM     13  C   UNL     1      13.666  -1.384   1.434  0.00  0.00    -0.063 A 
ATOM     14  C   UNL     1      14.097  -1.849   2.663  0.00  0.00    +0.002 A 
ATOM     15  C   UNL     1      15.147  -2.744   2.734  0.00  0.00    +0.001 A 
ATOM     16  C   UNL     1      15.768  -3.175   1.576  0.00  0.00    +0.015 A 
ATOM     17  C   UNL     1      15.337  -2.710   0.347  0.00  0.00    +0.018 A 
ATOM     18  C   UNL     1      14.282  -1.818   0.276  0.00  0.00    +0.017 A 
ATOM     19 BR   UNL     1      16.186  -3.299  -1.237  0.00  0.00    -0.050 Br
ENDBRANCH  12  13
ENDBRANCH   8  12
ENDBRANCH   2   5
BRANCH   1  25
ATOM     20  C   UNL     1       3.900  -2.281   0.487  0.00  0.00    +0.043 A 
ATOM     21  C   UNL     1       2.733  -3.039   0.355  0.00  0.00    +0.013 A 
ATOM     22  C   UNL     1       2.767  -4.240  -0.318  0.00  0.00    +0.001 A 
ATOM     23  C   UNL     1       3.954  -4.704  -0.864  0.00  0.00    +0.002 A 
ATOM     24  C   UNL     1       5.115  -3.967  -0.741  0.00  0.00    +0.024 A 
ATOM     25  C   UNL     1       5.099  -2.751  -0.072  0.00  0.00    +0.044 A 
BRANCH  20  26
ATOM     26  C   UNL     1       3.872  -0.994   1.205  0.00  0.00    +0.195 C 
ATOM     27  O   UNL     1       3.316  -0.033   0.709  0.00  0.00    -0.287 OA
BRANCH  26  31
ATOM     28  C   UNL     1       5.726  -0.642   5.010  0.00  0.00    +0.000 A 
ATOM     29  C   UNL     1       5.189   0.477   4.400  0.00  0.00    +0.001 A 
ATOM     30  C   UNL     1       4.585   0.370   3.164  0.00  0.00    +0.012 A 
ATOM     31  C   UNL     1       4.517  -0.871   2.529  0.00  0.00    +0.022 A 
ATOM     32  C   UNL     1       5.062  -1.997   3.151  0.00  0.00    +0.012 A 
ATOM     33  C   UNL     1       5.662  -1.876   4.387  0.00  0.00    +0.001 A 
ENDBRANCH  26  31
ENDBRANCH  20  26
ENDBRANCH   1  25
TORSDOF 6
