REMARK  Name = ZINC36588156
REMARK  15 active torsions:
REMARK  status: ('A' for Active; 'I' for Inactive)
REMARK    1  A    between atoms: C_1  and  C_2
REMARK    2  A    between atoms: C_5  and  S_8
REMARK    3  A    between atoms: S_8  and  C_11
REMARK    4  A    between atoms: C_11  and  N_12
REMARK    5  A    between atoms: C_13  and  C_15
REMARK    6  A    between atoms: C_15  and  C_17
REMARK    7  A    between atoms: C_15  and  N_22
REMARK    8  A    between atoms: N_22  and  C_35
REMARK    9  A    between atoms: C_23  and  C_25
REMARK   10  A    between atoms: C_25  and  C_26
REMARK   11  A    between atoms: C_26  and  C_28
REMARK   12  A    between atoms: C_26  and  C_29
REMARK   13  A    between atoms: C_35  and  C_36
REMARK   14  A    between atoms: C_35  and  C_37
REMARK   15  A    between atoms: C_35  and  C_38
REMARK                            x       y       z     vdW  Elec       q    Type
REMARK                         _______ _______ _______ _____ _____    ______ ____
ROOT
ATOM      1  C   UNL     1       4.388  -4.891   3.343  0.00  0.00    +0.229 C 
ENDROOT
BRANCH   1   2
ATOM      2  C   UNL     1       5.851  -4.801   3.697  0.00  0.00    +0.134 A 
ATOM      3  C   UNL     1       6.601  -3.686   3.663  0.00  0.00    +0.047 A 
ATOM      4  C   UNL     1       7.904  -4.056   4.069  0.00  0.00    +0.041 A 
ATOM      5  C   UNL     1       7.871  -5.376   4.327  0.00  0.00    +0.195 A 
ATOM      6  O   UNL     1       6.624  -5.821   4.105  0.00  0.00    -0.465 OA
ENDBRANCH   1   2
BRANCH   1   8
ATOM      7  N   UNL     1       5.094  -5.102   0.981  0.00  0.00    -0.294 N 
ATOM      8  C   UNL     1       4.241  -5.468   1.958  0.00  0.00    +0.242 C 
ATOM      9  O   UNL     1       3.356  -6.263   1.724  0.00  0.00    -0.273 OA
ATOM     10  H   UNL     1       5.803  -4.466   1.169  0.00  0.00    +0.150 HD
BRANCH   7  11
ATOM     11  C   UNL     1       4.951  -5.663  -0.364  0.00  0.00    +0.278 C 
BRANCH  11  12
ATOM     12  S   UNL     1       3.971  -4.533  -1.390  0.00  0.00    +0.013 S 
ATOM     13  O   UNL     1       2.808  -4.118  -0.688  0.00  0.00    -0.168 OA
ATOM     14  O   UNL     1       3.877  -5.033  -2.717  0.00  0.00    -0.168 OA
BRANCH  12  19
ATOM     15  C   UNL     1       7.339   0.451  -1.862  0.00  0.00    +0.044 C 
ATOM     16  C   UNL     1       6.498  -0.794  -1.744  0.00  0.00    -0.050 A 
ATOM     17  C   UNL     1       6.631  -1.808  -2.673  0.00  0.00    +0.005 A 
ATOM     18  C   UNL     1       5.860  -2.950  -2.565  0.00  0.00    +0.027 A 
ATOM     19  C   UNL     1       4.955  -3.078  -1.527  0.00  0.00    +0.090 A 
ATOM     20  C   UNL     1       4.823  -2.063  -0.598  0.00  0.00    +0.027 A 
ATOM     21  C   UNL     1       5.598  -0.923  -0.704  0.00  0.00    +0.005 A 
ENDBRANCH  12  19
ENDBRANCH  11  12
ENDBRANCH   7  11
ENDBRANCH   1   8
BRANCH   1  22
ATOM     22  N   UNL     1       3.704  -5.755   4.308  0.00  0.00    -0.278 N 
ATOM     23  C   UNL     1       2.819  -5.228   5.176  0.00  0.00    +0.217 C 
ATOM     24  O   UNL     1       2.640  -4.028   5.206  0.00  0.00    -0.276 OA
BRANCH  22  25
ATOM     25  C   UNL     1       3.983  -7.194   4.329  0.00  0.00    +0.030 C 
ATOM     26  C   UNL     1       4.726  -7.550   5.617  0.00  0.00    +0.031 C 
ATOM     27  C   UNL     1       2.665  -7.969   4.269  0.00  0.00    +0.031 C 
ATOM     28  C   UNL     1       4.847  -7.564   3.122  0.00  0.00    +0.031 C 
ENDBRANCH  22  25
BRANCH  23  29
ATOM     29  C   UNL     1       2.051  -6.127   6.110  0.00  0.00    +0.104 C 
BRANCH  29  30
ATOM     30  C   UNL     1       1.200  -5.276   7.054  0.00  0.00    +0.025 C 
ATOM     31  C   UNL     1       0.137  -4.528   6.247  0.00  0.00    +0.013 C 
BRANCH  30  32
ATOM     32  C   UNL     1       0.528  -6.167   8.066  0.00  0.00    -0.044 A 
ATOM     33  C   UNL     1      -0.329  -7.166   7.646  0.00  0.00    +0.004 A 
ATOM     34  C   UNL     1      -0.946  -7.984   8.574  0.00  0.00    +0.000 A 
ATOM     35  C   UNL     1      -0.705  -7.802   9.923  0.00  0.00    +0.000 A 
ATOM     36  C   UNL     1       0.153  -6.803  10.344  0.00  0.00    +0.000 A 
ATOM     37  C   UNL     1       0.773  -5.989   9.415  0.00  0.00    +0.004 A 
ENDBRANCH  30  32
ENDBRANCH  29  30
ENDBRANCH  23  29
ENDBRANCH   1  22
TORSDOF 10
