REMARK  Name = ZINC09403498
REMARK  15 active torsions:
REMARK  status: ('A' for Active; 'I' for Inactive)
REMARK    1  A    between atoms: C_1  and  C_2
REMARK    2  A    between atoms: C_7  and  C_12
REMARK    3  A    between atoms: C_12  and  C_14
REMARK    4  A    between atoms: N_18  and  C_33
REMARK    5  A    between atoms: C_19  and  C_21
REMARK    6  A    between atoms: C_25  and  O_27
REMARK    7  A    between atoms: O_27  and  C_28
REMARK    8  A    between atoms: C_28  and  C_29
REMARK    9  A    between atoms: C_29  and  C_30
REMARK   10  A    between atoms: C_30  and  C_31
REMARK   11  A    between atoms: C_30  and  C_32
REMARK   12  A    between atoms: C_33  and  C_34
REMARK   13  A    between atoms: C_34  and  C_35
REMARK   14  A    between atoms: C_35  and  O_36
REMARK   15  A    between atoms: O_36  and  C_37
REMARK                            x       y       z     vdW  Elec       q    Type
REMARK                         _______ _______ _______ _____ _____    ______ ____
ROOT
ATOM      1  C   UNL     1      -2.746  -0.699   0.078  0.00  0.00    +0.076 C 
ATOM      2  C   UNL     1      -3.719  -1.628  -0.069  0.00  0.00    +0.249 C 
ATOM      3  C   UNL     1      -3.099  -2.950  -0.291  0.00  0.00    +0.288 C 
ATOM      4  O   UNL     1      -3.709  -3.987  -0.461  0.00  0.00    -0.266 OA
ATOM      5  N   UNL     1      -1.758  -2.838  -0.273  0.00  0.00    -0.283 N 
ATOM      6  C   UNL     1      -1.427  -1.427  -0.041  0.00  0.00    +0.145 C 
ATOM      7  O   UNL     1      -5.049  -1.384  -0.022  0.00  0.00    -0.282 OA
ENDROOT
BRANCH   6   8
ATOM      8  C   UNL     1      -0.638  -1.280   1.234  0.00  0.00    -0.019 A 
ATOM      9  C   UNL     1      -1.049  -1.937   2.380  0.00  0.00    +0.006 A 
ATOM     10  C   UNL     1      -0.327  -1.804   3.552  0.00  0.00    +0.004 A 
ATOM     11  C   UNL     1       0.807  -1.016   3.580  0.00  0.00    +0.045 A 
ATOM     12  C   UNL     1       1.222  -0.357   2.432  0.00  0.00    +0.121 A 
ATOM     13  C   UNL     1       0.498  -0.495   1.256  0.00  0.00    +0.051 A 
BRANCH  12  14
ATOM     14  O   UNL     1       2.337   0.419   2.458  0.00  0.00    -0.492 OA
BRANCH  14  15
ATOM     15  C   UNL     1       3.035   0.511   3.701  0.00  0.00    +0.229 C 
BRANCH  15  16
ATOM     16  C   UNL     1       4.254   1.420   3.536  0.00  0.00    +0.044 C 
BRANCH  16  17
ATOM     17  C   UNL     1       5.001   1.519   4.868  0.00  0.00    -0.014 C 
ATOM     18  C   UNL     1       5.567   0.146   5.238  0.00  0.00    +0.007 C 
ATOM     19  C   UNL     1       6.147   2.525   4.737  0.00  0.00    +0.007 C 
ENDBRANCH  16  17
ENDBRANCH  15  16
ENDBRANCH  14  15
ENDBRANCH  12  14
ENDBRANCH   6   8
BRANCH   1  20
ATOM     20  C   UNL     1      -2.935   0.736   0.313  0.00  0.00    +0.195 C 
ATOM     21  O   UNL     1      -3.437   1.121   1.353  0.00  0.00    -0.287 OA
BRANCH  20  27
ATOM     22  C   UNL     1      -1.985   6.988  -3.540  0.00  0.00    +0.052 C 
ATOM     23  C   UNL     1      -1.469   5.821  -2.696  0.00  0.00    +0.175 C 
ATOM     24  C   UNL     1      -2.458   5.492  -1.554  0.00  0.00    +0.083 C 
ATOM     25  C   UNL     1      -2.357   3.981  -1.477  0.00  0.00    -0.002 A 
ATOM     26  C   UNL     1      -2.744   3.080  -0.517  0.00  0.00    +0.019 A 
ATOM     27  C   UNL     1      -2.517   1.713  -0.711  0.00  0.00    +0.023 A 
ATOM     28  C   UNL     1      -1.885   1.281  -1.882  0.00  0.00    +0.015 A 
ATOM     29  C   UNL     1      -1.504   2.191  -2.838  0.00  0.00    +0.046 A 
ATOM     30  C   UNL     1      -1.737   3.555  -2.650  0.00  0.00    +0.124 A 
ATOM     31  O   UNL     1      -1.453   4.606  -3.464  0.00  0.00    -0.488 OA
ENDBRANCH  20  27
ENDBRANCH   1  20
BRANCH   5  32
ATOM     32  C   UNL     1      -0.798  -3.930  -0.452  0.00  0.00    +0.111 C 
BRANCH  32  33
ATOM     33  C   UNL     1      -0.464  -4.543   0.909  0.00  0.00    +0.047 C 
BRANCH  33  34
ATOM     34  C   UNL     1       0.538  -5.684   0.722  0.00  0.00    +0.161 C 
BRANCH  34  35
ATOM     35  O   UNL     1       0.851  -6.257   1.994  0.00  0.00    -0.383 OA
ATOM     36  C   UNL     1       1.784  -7.338   1.931  0.00  0.00    +0.193 C 
ENDBRANCH  34  35
ENDBRANCH  33  34
ENDBRANCH  32  33
ENDBRANCH   5  32
TORSDOF 11
