REMARK  Name = ZINC22880397
REMARK  8 active torsions:
REMARK  status: ('A' for Active; 'I' for Inactive)
REMARK    1  A    between atoms: C_1  and  C_2
REMARK    2  A    between atoms: C_4  and  C_32
REMARK    3  A    between atoms: C_6  and  N_8
REMARK    4  A    between atoms: N_15  and  C_18
REMARK    5  A    between atoms: C_18  and  C_19
REMARK    6  A    between atoms: N_21  and  C_22
REMARK    7  A    between atoms: C_22  and  C_24
REMARK    8  A    between atoms: C_22  and  C_25
REMARK                            x       y       z     vdW  Elec       q    Type
REMARK                         _______ _______ _______ _____ _____    ______ ____
ROOT
ATOM      1  N   UNL     1       0.050  -2.798   2.394  0.00  0.00    -0.214 N 
ATOM      2  C   UNL     1       0.679  -2.412   3.538  0.00  0.00    +0.170 A 
ATOM      3  C   UNL     1       0.432  -3.415   4.489  0.00  0.00    +0.103 A 
ATOM      4  C   UNL     1      -0.359  -4.397   3.864  0.00  0.00    +0.150 A 
ATOM      5  N   UNL     1      -0.584  -4.023   2.634  0.00  0.00    -0.172 NA
ATOM      6  C   UNL     1       1.000  -3.251   5.826  0.00  0.00    +0.265 A 
ATOM      7  O   UNL     1       0.822  -4.087   6.695  0.00  0.00    -0.267 OA
ATOM      8  N   UNL     1       1.731  -2.137   6.063  0.00  0.00    -0.290 N 
ATOM      9  C   UNL     1       1.917  -1.219   5.081  0.00  0.00    +0.204 A 
ATOM     10  N   UNL     1       1.420  -1.349   3.886  0.00  0.00    -0.217 NA
ENDROOT
BRANCH   1  16
ATOM     11  C   UNL     1      -0.018   1.503   0.010  0.00  0.00    +0.044 C 
ATOM     12  C   UNL     1       0.002  -0.004   0.002  0.00  0.00    -0.048 A 
ATOM     13  C   UNL     1       0.006  -0.688  -1.200  0.00  0.00    +0.006 A 
ATOM     14  C   UNL     1       0.024  -2.071  -1.212  0.00  0.00    -0.048 A 
ATOM     15  C   UNL     1       0.039  -2.773  -0.022  0.00  0.00    +0.031 A 
ATOM     16  C   UNL     1       0.035  -2.089   1.186  0.00  0.00    +0.068 A 
ATOM     17  C   UNL     1       0.023  -0.700   1.195  0.00  0.00    +0.031 A 
ATOM     18  C   UNL     1       0.027  -2.812  -2.523  0.00  0.00    +0.044 C 
ENDBRANCH   1  16
BRANCH   8  19
ATOM     19  C   UNL     1       2.324  -1.920   7.385  0.00  0.00    +0.222 C 
BRANCH  19  20
ATOM     20  C   UNL     1       3.702  -2.529   7.424  0.00  0.00    +0.233 C 
ATOM     21  O   UNL     1       4.146  -3.088   6.444  0.00  0.00    -0.274 OA
ATOM     22  N   UNL     1       4.442  -2.451   8.548  0.00  0.00    -0.307 N 
ATOM     23  H   UNL     1       4.087  -2.004   9.332  0.00  0.00    +0.149 HD
BRANCH  22  24
ATOM     24  C   UNL     1       5.781  -3.043   8.586  0.00  0.00    +0.100 C 
ATOM     25  C   UNL     1       5.673  -4.529   8.934  0.00  0.00    +0.033 C 
BRANCH  24  26
ATOM     26  C   UNL     1       6.611  -2.341   9.629  0.00  0.00    -0.027 A 
ATOM     27  C   UNL     1       6.044  -1.986  10.839  0.00  0.00    +0.007 A 
ATOM     28  C   UNL     1       6.805  -1.342  11.797  0.00  0.00    +0.020 A 
ATOM     29  C   UNL     1       8.134  -1.053  11.545  0.00  0.00    +0.041 A 
ATOM     30  C   UNL     1       8.701  -1.409  10.334  0.00  0.00    +0.020 A 
ATOM     31  C   UNL     1       7.941  -2.058   9.379  0.00  0.00    +0.007 A 
ATOM     32 CL   UNL     1       9.090  -0.244  12.747  0.00  0.00    -0.084 Cl
ENDBRANCH  24  26
ENDBRANCH  22  24
ENDBRANCH  19  20
ENDBRANCH   8  19
TORSDOF 5
