REMARK  Name = ZINC40383568
REMARK  12 active torsions:
REMARK  status: ('A' for Active; 'I' for Inactive)
REMARK    1  A    between atoms: C_1  and  C_2
REMARK    2  A    between atoms: C_2  and  O_3
REMARK    3  A    between atoms: O_3  and  C_4
REMARK    4  A    between atoms: C_4  and  C_6
REMARK    5  A    between atoms: C_6  and  N_7
REMARK    6  A    between atoms: N_10  and  C_11
REMARK    7  A    between atoms: N_10  and  C_31
REMARK    8  A    between atoms: C_11  and  C_12
REMARK    9  A    between atoms: C_22  and  C_24
REMARK   10  A    between atoms: C_31  and  C_32
REMARK   11  A    between atoms: C_31  and  C_33
REMARK   12  A    between atoms: C_31  and  C_34
REMARK                            x       y       z     vdW  Elec       q    Type
REMARK                         _______ _______ _______ _____ _____    ______ ____
ROOT
ATOM      1  C   UNL     1       3.890  -6.963  -4.263  0.00  0.00    +0.234 C 
ATOM      2  O   UNL     1       4.356  -6.647  -3.189  0.00  0.00    -0.274 OA
ATOM      3  N   UNL     1       4.643  -7.641  -5.152  0.00  0.00    -0.286 N 
ATOM      4  C   UNL     1       4.065  -8.144  -6.407  0.00  0.00    +0.130 C 
ATOM      5  C   UNL     1       4.736  -7.441  -7.591  0.00  0.00    +0.140 C 
ATOM      6  N   UNL     1       6.189  -7.439  -7.391  0.00  0.00    -0.347 N 
ATOM      7  C   UNL     1       7.145  -7.243  -8.340  0.00  0.00    +0.086 A 
ATOM      8  C   UNL     1       8.354  -7.308  -7.743  0.00  0.00    +0.019 A 
ATOM      9  C   UNL     1       8.136  -7.557  -6.372  0.00  0.00    +0.025 A 
ATOM     10  C   UNL     1       6.809  -7.635  -6.187  0.00  0.00    +0.044 A 
ATOM     11  C   UNL     1       6.074  -7.895  -4.897  0.00  0.00    +0.156 C 
ENDROOT
BRANCH  11  12
ATOM     12  C   UNL     1       6.577  -6.966  -3.823  0.00  0.00    +0.014 A 
ATOM     13  C   UNL     1       6.424  -5.599  -3.963  0.00  0.00    +0.008 A 
ATOM     14  C   UNL     1       6.886  -4.747  -2.978  0.00  0.00    +0.001 A 
ATOM     15  C   UNL     1       7.502  -5.259  -1.851  0.00  0.00    +0.003 A 
ATOM     16  C   UNL     1       7.655  -6.625  -1.709  0.00  0.00    +0.039 A 
ATOM     17  C   UNL     1       7.188  -7.481  -2.692  0.00  0.00    +0.129 A 
ATOM     18  F   UNL     1       7.334  -8.816  -2.551  0.00  0.00    -0.205 F 
ENDBRANCH  11  12
BRANCH   1  19
ATOM     19  C   UNL     1       2.468  -6.599  -4.604  0.00  0.00    +0.205 C 
BRANCH  19  23
ATOM     20  N   UNL     1       2.519  -3.846  -4.443  0.00  0.00    -0.289 N 
ATOM     21  C   UNL     1       1.961  -4.528  -3.424  0.00  0.00    +0.303 C 
ATOM     22  O   UNL     1       1.540  -3.932  -2.451  0.00  0.00    -0.253 OA
ATOM     23  N   UNL     1       1.868  -5.871  -3.483  0.00  0.00    -0.272 N 
ATOM     24  H   UNL     1       2.920  -4.325  -5.185  0.00  0.00    +0.151 HD
BRANCH  23  25
ATOM     25  C   UNL     1       1.168  -6.604  -2.425  0.00  0.00    +0.031 C 
ATOM     26  C   UNL     1      -0.314  -6.221  -2.434  0.00  0.00    +0.031 C 
ATOM     27  C   UNL     1       1.307  -8.108  -2.669  0.00  0.00    +0.031 C 
ATOM     28  C   UNL     1       1.778  -6.249  -1.068  0.00  0.00    +0.031 C 
ENDBRANCH  23  25
BRANCH  20  29
ATOM     29  C   UNL     1       2.520  -2.381  -4.431  0.00  0.00    +0.226 C 
BRANCH  29  30
ATOM     30  C   UNL     1       3.200  -1.868  -5.674  0.00  0.00    +0.324 C 
ATOM     31  O   UNL     1       3.638  -2.647  -6.488  0.00  0.00    -0.249 OA
BRANCH  30  32
ATOM     32  O   UNL     1       3.318  -0.547  -5.878  0.00  0.00    -0.464 OA
BRANCH  32  34
ATOM     33  C   UNL     1       4.013   1.396  -7.136  0.00  0.00    +0.048 C 
ATOM     34  C   UNL     1       3.974  -0.132  -7.079  0.00  0.00    +0.229 C 
ENDBRANCH  32  34
ENDBRANCH  30  32
ENDBRANCH  29  30
ENDBRANCH  20  29
ENDBRANCH  19  23
ENDBRANCH   1  19
TORSDOF 8
