REMARK  Name = ZINC22972300
REMARK  11 active torsions:
REMARK  status: ('A' for Active; 'I' for Inactive)
REMARK    1  A    between atoms: C_1  and  C_2
REMARK    2  A    between atoms: C_2  and  N_3
REMARK    3  A    between atoms: N_3  and  C_4
REMARK    4  A    between atoms: N_3  and  C_15
REMARK    5  A    between atoms: C_4  and  C_5
REMARK    6  A    between atoms: C_8  and  O_13
REMARK    7  A    between atoms: C_9  and  O_11
REMARK    8  A    between atoms: O_11  and  C_12
REMARK    9  A    between atoms: O_13  and  C_14
REMARK   10  A    between atoms: C_15  and  C_16
REMARK   11  A    between atoms: C_29  and  C_31
REMARK                            x       y       z     vdW  Elec       q    Type
REMARK                         _______ _______ _______ _____ _____    ______ ____
ROOT
ATOM      1  C   UNL     1      -2.361   3.568   0.564  0.00  0.00    +0.204 C 
ATOM      2  O   UNL     1      -3.480   3.193   0.284  0.00  0.00    -0.277 OA
ATOM      3  N   UNL     1      -1.380   2.667   0.770  0.00  0.00    -0.259 N 
ATOM      4  C   UNL     1      -0.083   3.087   1.095  0.00  0.00    +0.058 A 
ATOM      5  C   UNL     1       0.735   3.660   0.134  0.00  0.00    +0.025 A 
ATOM      6  C   UNL     1       2.030   4.018   0.459  0.00  0.00    +0.002 A 
ATOM      7  C   UNL     1       2.512   3.807   1.738  0.00  0.00    +0.002 A 
ATOM      8  C   UNL     1       1.699   3.246   2.705  0.00  0.00    +0.025 A 
ATOM      9  C   UNL     1       0.397   2.893   2.390  0.00  0.00    +0.055 A 
ATOM     10  N   UNL     1      -0.453   2.346   3.359  0.00  0.00    -0.284 N 
ATOM     11  C   UNL     1      -1.157   1.223   3.097  0.00  0.00    +0.219 C 
ATOM     12  O   UNL     1      -1.952   0.807   3.913  0.00  0.00    -0.275 OA
ATOM     13  C   UNL     1      -0.960   0.484   1.800  0.00  0.00    +0.128 C 
ATOM     14  C   UNL     1      -1.650   1.233   0.659  0.00  0.00    +0.194 C 
ATOM     15  H   UNL     1      -0.552   2.831   4.341  0.00  0.00    +0.155 HD
ENDROOT
BRANCH  14  16
ATOM     16  C   UNL     1      -1.120   0.718  -0.681  0.00  0.00    +0.409 C 
ATOM     17  F   UNL     1      -1.385  -0.651  -0.792  0.00  0.00    -0.169 F 
ATOM     18  F   UNL     1       0.261   0.932  -0.750  0.00  0.00    -0.169 F 
ATOM     19  F   UNL     1      -1.751   1.402  -1.726  0.00  0.00    -0.169 F 
ENDBRANCH  14  16
BRANCH   1  20
ATOM     20  C   UNL     1      -2.068   5.042   0.682  0.00  0.00    +0.020 C 
BRANCH  20  21
ATOM     21  N   UNL     1      -3.292   5.808   0.413  0.00  0.00    +0.388 N 
ATOM     22  H   UNL     1      -3.705   5.460  -0.545  0.00  0.00    -0.081 HD
BRANCH  21  24
ATOM     23  C   UNL     1      -5.671   6.028   0.950  0.00  0.00    -0.017 C 
ATOM     24  C   UNL     1      -4.302   5.568   1.453  0.00  0.00    -0.081 C 
ENDBRANCH  21  24
BRANCH  21  25
ATOM     25  C   UNL     1      -2.999   7.241   0.285  0.00  0.00    -0.042 C 
BRANCH  25  26
ATOM     26  C   UNL     1      -2.358   7.505  -1.053  0.00  0.00    -0.060 A 
ATOM     27  C   UNL     1      -0.981   7.573  -1.157  0.00  0.00    +0.005 A 
ATOM     28  C   UNL     1      -0.388   7.809  -2.383  0.00  0.00    +0.049 A 
ATOM     29  C   UNL     1      -1.175   7.990  -3.510  0.00  0.00    +0.161 A 
ATOM     30  C   UNL     1      -2.561   7.927  -3.404  0.00  0.00    +0.162 A 
ATOM     31  C   UNL     1      -3.148   7.684  -2.173  0.00  0.00    +0.051 A 
BRANCH  30  32
ATOM     32  O   UNL     1      -3.337   8.103  -4.507  0.00  0.00    -0.491 OA
ATOM     33  C   UNL     1      -4.752   8.025  -4.323  0.00  0.00    +0.277 C 
ENDBRANCH  30  32
BRANCH  29  34
ATOM     34  O   UNL     1      -0.593   8.228  -4.716  0.00  0.00    -0.491 OA
ATOM     35  C   UNL     1       0.835   8.279  -4.749  0.00  0.00    +0.277 C 
ENDBRANCH  29  34
ENDBRANCH  25  26
ENDBRANCH  21  25
ENDBRANCH  20  21
ENDBRANCH   1  20
TORSDOF 8
