REMARK  Name = ZINC38063242
REMARK  3 active torsions:
REMARK  status: ('A' for Active; 'I' for Inactive)
REMARK    1  A    between atoms: C_3  and  C_19
REMARK    2  A    between atoms: N_10  and  C_11
REMARK    3  A    between atoms: C_11  and  C_12
REMARK                            x       y       z     vdW  Elec       q    Type
REMARK                         _______ _______ _______ _____ _____    ______ ____
ROOT
ATOM      1  C   UNL     1      -0.017   1.532   0.004  0.00  0.00    +0.020 C 
ATOM      2  C   UNL     1       1.422   2.054  -0.004  0.00  0.00    +0.018 C 
ATOM      3  C   UNL     1       2.130   1.584  -1.276  0.00  0.00    +0.119 C 
ATOM      4  C   UNL     1       2.171   0.052  -1.296  0.00  0.00    +0.124 C 
ATOM      5  N   UNL     1       0.802  -0.460  -1.143  0.00  0.00    -0.285 N 
ATOM      6  C   UNL     1       0.000   0.000  -0.001  0.00  0.00    +0.109 C 
ATOM      7  C   UNL     1       0.293  -1.334  -2.033  0.00  0.00    +0.302 C 
ATOM      8  O   UNL     1       0.930  -1.634  -3.024  0.00  0.00    -0.253 OA
ATOM      9  N   UNL     1      -0.923  -1.876  -1.824  0.00  0.00    -0.297 N 
ATOM     10  H   UNL     1      -1.462  -1.584  -1.072  0.00  0.00    +0.150 HD
ENDROOT
BRANCH   3  11
ATOM     11  C   UNL     1       3.536   2.126  -1.299  0.00  0.00    +0.361 C 
ATOM     12  O   UNL     1       4.422   1.500  -1.856  0.00  0.00    -0.246 OA
ATOM     13  O   UNL     1       3.788   3.190  -0.760  0.00  0.00    -0.246 OA
ENDBRANCH   3  11
BRANCH   9  14
ATOM     14  C   UNL     1      -1.431  -2.908  -2.732  0.00  0.00    +0.139 C 
BRANCH  14  15
ATOM     15  C   UNL     1      -2.822  -3.351  -2.273  0.00  0.00    +0.161 C 
ATOM     16  C   UNL     1      -3.353  -4.431  -3.220  0.00  0.00    +0.193 C 
ATOM     17  O   UNL     1      -4.603  -4.919  -2.722  0.00  0.00    -0.375 OA
ATOM     18  C   UNL     1      -4.522  -5.453  -1.398  0.00  0.00    +0.188 C 
ATOM     19  C   UNL     1      -3.991  -4.373  -0.451  0.00  0.00    +0.188 C 
ATOM     20  O   UNL     1      -2.742  -3.884  -0.948  0.00  0.00    -0.370 OA
ENDBRANCH  14  15
ENDBRANCH   9  14
TORSDOF 3
