REMARK  Name = ZINC41585113
REMARK  7 active torsions:
REMARK  status: ('A' for Active; 'I' for Inactive)
REMARK    1  A    between atoms: C_1  and  C_2
REMARK    2  A    between atoms: C_6  and  C_7
REMARK    3  A    between atoms: C_12  and  C_32
REMARK    4  A    between atoms: C_14  and  O_31
REMARK    5  A    between atoms: C_15  and  C_18
REMARK    6  A    between atoms: C_18  and  N_19
REMARK    7  A    between atoms: N_22  and  C_25
REMARK                            x       y       z     vdW  Elec       q    Type
REMARK                         _______ _______ _______ _____ _____    ______ ____
ROOT
ATOM      1  C   UNL     1       0.089  -0.336   2.478  0.00  0.00    +0.065 C 
ATOM      2  C   UNL     1       0.102  -1.235   3.505  0.00  0.00    +0.177 C 
ATOM      3  C   UNL     1       0.107  -0.915   4.888  0.00  0.00    +0.232 C 
ATOM      4  O   UNL     1       0.101   0.197   5.392  0.00  0.00    -0.283 OA
ATOM      5  C   UNL     1       0.121  -2.213   5.585  0.00  0.00    +0.071 A 
ATOM      6  C   UNL     1       0.132  -2.581   6.931  0.00  0.00    -0.033 A 
ATOM      7  C   UNL     1       0.145  -3.903   7.274  0.00  0.00    +0.050 A 
ATOM      8  C   UNL     1       0.147  -4.884   6.285  0.00  0.00    +0.122 A 
ATOM      9  C   UNL     1       0.136  -4.533   4.945  0.00  0.00    +0.020 A 
ATOM     10  C   UNL     1       0.122  -3.194   4.580  0.00  0.00    +0.145 A 
ATOM     11  O   UNL     1       0.105  -2.583   3.376  0.00  0.00    -0.451 OA
ATOM     12  C   UNL     1       0.131  -1.522   8.003  0.00  0.00    +0.045 C 
ENDROOT
BRANCH   1  18
ATOM     13  C   UNL     1       0.059   1.456  -0.040  0.00  0.00    +0.045 C 
ATOM     14  C   UNL     1       0.065  -0.051  -0.038  0.00  0.00    -0.036 A 
ATOM     15  C   UNL     1       0.063  -0.784  -1.200  0.00  0.00    +0.011 A 
ATOM     16  C   UNL     1       0.069  -2.139  -1.125  0.00  0.00    +0.046 A 
ATOM     17  S   UNL     1       0.077  -2.463   0.523  0.00  0.00    -0.097 S 
ATOM     18  C   UNL     1       0.079  -0.791   1.141  0.00  0.00    +0.019 A 
ENDBRANCH   1  18
BRANCH   8  19
ATOM     19  O   UNL     1       0.160  -6.195   6.638  0.00  0.00    -0.506 OA
ATOM     20  H   UNL     1      -0.719  -6.582   6.745  0.00  0.00    +0.292 HD
ENDBRANCH   8  19
BRANCH   9  21
ATOM     21  C   UNL     1       0.139  -5.604   3.885  0.00  0.00    -0.035 C 
BRANCH  21  22
ATOM     22  N   UNL     1      -1.245  -5.964   3.548  0.00  0.00    +0.385 N 
ATOM     23  C   UNL     1      -1.917  -4.807   2.944  0.00  0.00    -0.059 C 
ATOM     24  C   UNL     1      -3.391  -5.144   2.698  0.00  0.00    +0.086 C 
ATOM     25  N   UNL     1      -3.460  -6.374   1.894  0.00  0.00    -0.333 N 
ATOM     26  C   UNL     1      -2.682  -7.539   2.342  0.00  0.00    +0.086 C 
ATOM     27  C   UNL     1      -1.241  -7.089   2.604  0.00  0.00    -0.059 C 
ATOM     28  H   UNL     1      -1.735  -6.233   4.388  0.00  0.00    -0.081 HD
BRANCH  25  29
ATOM     29  C   UNL     1      -4.243  -6.434   0.739  0.00  0.00    +0.030 A 
ATOM     30  C   UNL     1      -4.209  -7.565  -0.067  0.00  0.00    +0.023 A 
ATOM     31  C   UNL     1      -4.984  -7.621  -1.208  0.00  0.00    +0.002 A 
ATOM     32  C   UNL     1      -5.795  -6.554  -1.549  0.00  0.00    +0.000 A 
ATOM     33  C   UNL     1      -5.832  -5.427  -0.748  0.00  0.00    +0.002 A 
ATOM     34  C   UNL     1      -5.063  -5.366   0.397  0.00  0.00    +0.023 A 
ENDBRANCH  25  29
ENDBRANCH  21  22
ENDBRANCH   9  21
TORSDOF 5
