REMARK  Name = ZINC00499272
REMARK  6 active torsions:
REMARK  status: ('A' for Active; 'I' for Inactive)
REMARK    1  A    between atoms: C_1  and  C_2
REMARK    2  A    between atoms: C_5  and  C_11
REMARK    3  A    between atoms: C_5  and  C_12
REMARK    4  A    between atoms: N_9  and  O_10
REMARK    5  A    between atoms: C_18  and  C_19
REMARK    6  A    between atoms: C_18  and  C_20
REMARK                            x       y       z     vdW  Elec       q    Type
REMARK                         _______ _______ _______ _____ _____    ______ ____
ROOT
ATOM      1  C   UNL     1       0.032   1.600  -0.104  0.00  0.00    +0.036 C 
ATOM      2  C   UNL     1       0.022   0.070  -0.086  0.00  0.00    +0.085 C 
ATOM      3  C   UNL     1       0.885  -0.555  -1.208  0.00  0.00    +0.092 C 
ATOM      4  C   UNL     1       2.276  -0.545  -0.543  0.00  0.00    +0.207 C 
ATOM      5  C   UNL     1       3.050  -1.820  -0.893  0.00  0.00    +0.078 C 
ATOM      6  N   UNL     1       4.249  -1.315  -1.583  0.00  0.00    -0.315 N 
ATOM      7  C   UNL     1       4.196   0.024  -1.633  0.00  0.00    +0.160 C 
ATOM      8  S   UNL     1       5.415   0.982  -2.361  0.00  0.00    -0.017 S 
ATOM      9  N   UNL     1       3.098   0.545  -1.061  0.00  0.00    -0.159 N 
ATOM     10  C   UNL     1       3.438  -2.580   0.376  0.00  0.00    +0.036 C 
ATOM     11  C   UNL     1       2.227  -2.711  -1.826  0.00  0.00    +0.036 C 
ATOM     12  O   UNL     1       2.067  -0.433   0.867  0.00  0.00    -0.247 OA
ATOM     13  N   UNL     1       0.670  -0.513   1.121  0.00  0.00    -0.182 N 
ATOM     14  C   UNL     1      -0.296  -0.961   1.926  0.00  0.00    +0.157 C 
ATOM     15  S   UNL     1      -0.048  -1.326   3.580  0.00  0.00    -0.017 S 
ATOM     16  N   UNL     1      -1.482  -1.097   1.311  0.00  0.00    -0.318 N 
ATOM     17  C   UNL     1      -1.391  -0.520  -0.038  0.00  0.00    +0.052 C 
ATOM     18  C   UNL     1      -2.439   0.574  -0.249  0.00  0.00    +0.033 C 
ATOM     19  C   UNL     1      -1.548  -1.628  -1.081  0.00  0.00    +0.033 C 
ATOM     20  H   UNL     1       4.963  -1.863  -1.944  0.00  0.00    +0.148 HD
ATOM     21  H   UNL     1      -2.274  -1.500   1.698  0.00  0.00    +0.148 HD
ENDROOT
BRANCH   9  22
ATOM     22  O   UNL     1       2.790   1.924  -0.974  0.00  0.00    -0.290 OA
ATOM     23  H   UNL     1       3.454   2.502  -1.374  0.00  0.00    +0.242 HD
ENDBRANCH   9  22
TORSDOF 1
