REMARK  Name = ZINC08752014
REMARK  8 active torsions:
REMARK  status: ('A' for Active; 'I' for Inactive)
REMARK    1  A    between atoms: C_1  and  C_2
REMARK    2  A    between atoms: C_12  and  C_13
REMARK    3  A    between atoms: C_13  and  C_14
REMARK    4  A    between atoms: N_16  and  C_17
REMARK    5  A    between atoms: C_17  and  C_18
REMARK    6  A    between atoms: C_23  and  O_24
REMARK    7  A    between atoms: O_24  and  C_25
REMARK    8  A    between atoms: C_28  and  C_29
REMARK                            x       y       z     vdW  Elec       q    Type
REMARK                         _______ _______ _______ _____ _____    ______ ____
ROOT
ATOM      1  C   UNL     1      -1.280  -0.795   0.009  0.00  0.00    +0.045 C 
ATOM      2  C   UNL     1       0.002  -0.004   0.002  0.00  0.00    -0.029 A 
ATOM      3  C   UNL     1      -0.018   1.462   0.010  0.00  0.00    +0.022 A 
ATOM      4  C   UNL     1      -1.226   2.159   0.031  0.00  0.00    +0.024 A 
ATOM      5  C   UNL     1      -1.210   3.545   0.033  0.00  0.00    +0.029 A 
ATOM      6  C   UNL     1       0.012   4.247   0.025  0.00  0.00    +0.139 A 
ATOM      7  C   UNL     1       1.210   3.547   0.010  0.00  0.00    +0.093 A 
ATOM      8  C   UNL     1       1.206   2.163   0.002  0.00  0.00    +0.143 A 
ATOM      9  O   UNL     1       2.370   1.476  -0.013  0.00  0.00    -0.422 OA
ATOM     10  C   UNL     1       2.393   0.134  -0.020  0.00  0.00    +0.341 A 
ATOM     11  O   UNL     1       3.467  -0.440  -0.034  0.00  0.00    -0.245 OA
ATOM     12  C   UNL     1       1.207  -0.629  -0.013  0.00  0.00    +0.049 A 
ATOM     13  O   UNL     1      -0.280   5.564   0.035  0.00  0.00    -0.462 OA
ATOM     14  C   UNL     1      -1.609   5.767   0.050  0.00  0.00    +0.204 A 
ATOM     15  C   UNL     1      -2.259   4.583   0.049  0.00  0.00    +0.028 A 
ENDROOT
BRANCH  15  16
ATOM     16  C   UNL     1      -3.726   4.370   0.062  0.00  0.00    -0.014 A 
ATOM     17  C   UNL     1      -4.317   3.512  -0.865  0.00  0.00    +0.011 A 
ATOM     18  C   UNL     1      -5.682   3.313  -0.846  0.00  0.00    +0.039 A 
ATOM     19  C   UNL     1      -6.467   3.972   0.086  0.00  0.00    +0.123 A 
ATOM     20  C   UNL     1      -5.886   4.829   1.006  0.00  0.00    +0.039 A 
ATOM     21  C   UNL     1      -4.521   5.031   0.998  0.00  0.00    +0.011 A 
ATOM     22  F   UNL     1      -7.804   3.778   0.097  0.00  0.00    -0.205 F 
ENDBRANCH  15  16
BRANCH  12  23
ATOM     23  C   UNL     1       1.277  -2.135  -0.021  0.00  0.00    +0.138 C 
BRANCH  23  24
ATOM     24  C   UNL     1       1.286  -2.629  -1.445  0.00  0.00    +0.218 C 
ATOM     25  O   UNL     1       1.241  -1.837  -2.362  0.00  0.00    -0.275 OA
ATOM     26  N   UNL     1       1.346  -3.951  -1.698  0.00  0.00    -0.311 N 
ATOM     27  H   UNL     1       1.382  -4.585  -0.964  0.00  0.00    +0.149 HD
BRANCH  26  28
ATOM     28  C   UNL     1       1.355  -4.432  -3.082  0.00  0.00    +0.143 C 
BRANCH  28  29
ATOM     29  C   UNL     1       1.425  -5.938  -3.090  0.00  0.00    +0.011 A 
ATOM     30  C   UNL     1       2.631  -6.572  -3.318  0.00  0.00    +0.009 A 
ATOM     31  C   UNL     1       2.696  -7.953  -3.321  0.00  0.00    +0.001 A 
ATOM     32  C   UNL     1       1.554  -8.703  -3.106  0.00  0.00    +0.004 A 
ATOM     33  C   UNL     1       0.346  -8.073  -2.883  0.00  0.00    +0.046 A 
ATOM     34  C   UNL     1       0.278  -6.687  -2.874  0.00  0.00    +0.125 A 
BRANCH  34  35
ATOM     35  O   UNL     1      -0.910  -6.065  -2.655  0.00  0.00    -0.495 OA
ATOM     36  C   UNL     1      -2.050  -6.900  -2.440  0.00  0.00    +0.277 C 
ENDBRANCH  34  35
ENDBRANCH  28  29
ENDBRANCH  26  28
ENDBRANCH  23  24
ENDBRANCH  12  23
TORSDOF 6
