REMARK  Name = ZINC42666980
REMARK  14 active torsions:
REMARK  status: ('A' for Active; 'I' for Inactive)
REMARK    1  A    between atoms: C_1  and  C_2
REMARK    2  A    between atoms: C_2  and  C_4
REMARK    3  A    between atoms: C_2  and  N_12
REMARK    4  A    between atoms: C_9  and  O_10
REMARK    5  A    between atoms: O_10  and  C_11
REMARK    6  A    between atoms: C_13  and  C_15
REMARK    7  A    between atoms: C_15  and  C_17
REMARK    8  A    between atoms: C_15  and  N_18
REMARK    9  A    between atoms: N_18  and  C_19
REMARK   10  A    between atoms: C_23  and  N_25
REMARK   11  A    between atoms: C_26  and  C_28
REMARK   12  A    between atoms: C_28  and  C_29
REMARK   13  A    between atoms: C_28  and  C_30
REMARK   14  A    between atoms: C_28  and  C_31
REMARK                            x       y       z     vdW  Elec       q    Type
REMARK                         _______ _______ _______ _____ _____    ______ ____
ROOT
ATOM      1  C   UNL     1       2.784  -1.427   2.458  0.00  0.00    +0.154 C 
ATOM      2  C   UNL     1       2.334  -2.784   3.003  0.00  0.00    +0.038 C 
ENDROOT
BRANCH   1   4
ATOM      3  N   UNL     1       0.696  -1.046   1.188  0.00  0.00    -0.307 N 
ATOM      4  C   UNL     1       2.041  -1.127   1.181  0.00  0.00    +0.233 C 
ATOM      5  O   UNL     1       2.654  -0.960   0.148  0.00  0.00    -0.274 OA
ATOM      6  H   UNL     1       0.206  -1.181   2.014  0.00  0.00    +0.149 HD
BRANCH   3   8
ATOM      7  C   UNL     1      -0.083   0.759  -0.268  0.00  0.00    +0.033 C 
ATOM      8  C   UNL     1      -0.026  -0.755  -0.053  0.00  0.00    +0.104 C 
BRANCH   8   9
ATOM      9  C   UNL     1      -1.428  -1.301   0.041  0.00  0.00    +0.014 A 
ATOM     10  C   UNL     1      -2.020  -1.475   1.277  0.00  0.00    +0.009 A 
ATOM     11  C   UNL     1      -3.306  -1.977   1.364  0.00  0.00    +0.001 A 
ATOM     12  C   UNL     1      -4.002  -2.305   0.215  0.00  0.00    +0.004 A 
ATOM     13  C   UNL     1      -3.414  -2.133  -1.023  0.00  0.00    +0.046 A 
ATOM     14  C   UNL     1      -2.126  -1.625  -1.113  0.00  0.00    +0.125 A 
BRANCH  14  15
ATOM     15  O   UNL     1      -1.548  -1.449  -2.330  0.00  0.00    -0.495 OA
ATOM     16  C   UNL     1      -2.325  -1.803  -3.476  0.00  0.00    +0.277 C 
ENDBRANCH  14  15
ENDBRANCH   8   9
ENDBRANCH   3   8
ENDBRANCH   1   4
BRANCH   1  17
ATOM     17  N   UNL     1       4.223  -1.462   2.188  0.00  0.00    -0.333 N 
ATOM     18  H   UNL     1       4.545  -1.667   1.296  0.00  0.00    +0.147 HD
BRANCH  17  19
ATOM     19  C   UNL     1       5.133  -1.200   3.216  0.00  0.00    +0.029 A 
ATOM     20  C   UNL     1       4.673  -0.912   4.495  0.00  0.00    +0.023 A 
ATOM     21  C   UNL     1       5.571  -0.652   5.511  0.00  0.00    +0.004 A 
ATOM     22  C   UNL     1       6.930  -0.678   5.260  0.00  0.00    +0.023 A 
ATOM     23  C   UNL     1       7.396  -0.965   3.983  0.00  0.00    +0.035 A 
ATOM     24  C   UNL     1       6.496  -1.232   2.961  0.00  0.00    +0.046 A 
BRANCH  23  25
ATOM     25  N   UNL     1       8.772  -0.991   3.730  0.00  0.00    -0.285 N 
ATOM     26  C   UNL     1       9.626  -1.405   4.686  0.00  0.00    +0.223 C 
ATOM     27  O   UNL     1       9.198  -1.846   5.732  0.00  0.00    -0.275 OA
ATOM     28  H   UNL     1       9.111  -0.711   2.865  0.00  0.00    +0.155 HD
BRANCH  26  29
ATOM     29  C   UNL     1      11.113  -1.321   4.457  0.00  0.00    +0.039 C 
ATOM     30  C   UNL     1      11.850  -1.851   5.689  0.00  0.00    +0.020 C 
ATOM     31  C   UNL     1      11.489  -2.164   3.236  0.00  0.00    +0.020 C 
ATOM     32  C   UNL     1      11.510   0.136   4.213  0.00  0.00    +0.020 C 
ENDBRANCH  26  29
ENDBRANCH  23  25
ENDBRANCH  17  19
ENDBRANCH   1  17
TORSDOF 8
