REMARK  Name = ZINC39836324
REMARK  9 active torsions:
REMARK  status: ('A' for Active; 'I' for Inactive)
REMARK    1  A    between atoms: C_1  and  C_2
REMARK    2  A    between atoms: C_4  and  O_10
REMARK    3  A    between atoms: C_6  and  C_9
REMARK    4  A    between atoms: O_10  and  C_11
REMARK    5  A    between atoms: C_11  and  C_12
REMARK    6  A    between atoms: N_14  and  C_15
REMARK    7  A    between atoms: C_16  and  C_26
REMARK    8  A    between atoms: C_21  and  C_25
REMARK    9  A    between atoms: N_28  and  C_29
REMARK                            x       y       z     vdW  Elec       q    Type
REMARK                         _______ _______ _______ _____ _____    ______ ____
ROOT
ATOM      1  C   UNL     1       0.067  -6.606  -5.178  0.00  0.00    +0.084 A 
ATOM      2  C   UNL     1       0.078  -7.940  -5.554  0.00  0.00    +0.069 A 
ATOM      3  C   UNL     1       0.076  -8.230  -6.977  0.00  0.00    -0.023 A 
ATOM      4  C   UNL     1       0.063  -7.132  -7.764  0.00  0.00    -0.004 A 
ATOM      5  S   UNL     1       0.048  -5.771  -6.635  0.00  0.00    -0.077 S 
ATOM      6  C   UNL     1       0.056  -7.099  -9.261  0.00  0.00    +0.046 C 
ATOM      7  C   UNL     1      -0.315  -8.498  -9.773  0.00  0.00    -0.009 C 
ATOM      8  C   UNL     1       0.534  -9.537  -9.034  0.00  0.00    +0.008 C 
ATOM      9  C   UNL     1       0.088  -9.630  -7.573  0.00  0.00    +0.037 C 
ATOM     10  C   UNL     1      -0.040  -8.584 -11.275  0.00  0.00    +0.008 C 
ENDROOT
BRANCH   1  13
ATOM     11  C   UNL     1       0.049  -4.746  -3.712  0.00  0.00    +0.255 C 
ATOM     12  O   UNL     1       0.034  -4.004  -4.671  0.00  0.00    -0.272 OA
ATOM     13  N   UNL     1       0.067  -6.082  -3.895  0.00  0.00    -0.277 N 
ATOM     14  H   UNL     1       0.079  -6.676  -3.128  0.00  0.00    +0.155 HD
BRANCH  11  15
ATOM     15  C   UNL     1       0.049  -4.176  -2.317  0.00  0.00    +0.324 C 
BRANCH  15  16
ATOM     16  O   UNL     1       0.028  -2.749  -2.386  0.00  0.00    -0.483 OA
BRANCH  16  20
ATOM     17  C   UNL     1      -0.018   1.503   0.010  0.00  0.00    +0.045 C 
ATOM     18  C   UNL     1       0.002  -0.004   0.002  0.00  0.00    -0.028 A 
ATOM     19  C   UNL     1       0.006  -0.688  -1.198  0.00  0.00    +0.050 A 
ATOM     20  C   UNL     1       0.025  -2.075  -1.206  0.00  0.00    +0.122 A 
ATOM     21  C   UNL     1       0.041  -2.773  -0.007  0.00  0.00    +0.050 A 
ATOM     22  C   UNL     1       0.037  -2.085   1.192  0.00  0.00    -0.028 A 
ATOM     23  C   UNL     1       0.023  -0.702   1.197  0.00  0.00    +0.047 A 
ATOM     24 CL   UNL     1       0.025   0.160   2.704  0.00  0.00    -0.083 Cl
ATOM     25  C   UNL     1       0.054  -2.843   2.494  0.00  0.00    +0.045 C 
ENDBRANCH  16  20
ENDBRANCH  15  16
ENDBRANCH  11  15
ENDBRANCH   1  13
BRANCH   2  26
ATOM     26  C   UNL     1       0.092  -9.014  -4.556  0.00  0.00    +0.247 C 
ATOM     27  O   UNL     1      -0.956  -9.470  -4.138  0.00  0.00    -0.270 OA
ATOM     28  N   UNL     1       1.266  -9.497  -4.101  0.00  0.00    -0.307 N 
ATOM     29  H   UNL     1       2.101  -9.133  -4.434  0.00  0.00    +0.149 HD
BRANCH  28  30
ATOM     30  C   UNL     1       1.279 -10.570  -3.104  0.00  0.00    +0.096 C 
ATOM     31  C   UNL     1       1.187  -9.969  -1.692  0.00  0.00    +0.046 C 
ATOM     32  C   UNL     1       1.520 -11.049  -0.635  0.00  0.00    +0.168 C 
ATOM     33  S   UNL     1       2.649 -12.175  -1.552  0.00  0.00    -0.029 S 
ATOM     34  O   UNL     1       2.042 -13.457  -1.651  0.00  0.00    -0.174 OA
ATOM     35  O   UNL     1       3.957 -12.062  -1.008  0.00  0.00    -0.174 OA
ATOM     36  C   UNL     1       2.613 -11.364  -3.205  0.00  0.00    +0.188 C 
ENDBRANCH  28  30
ENDBRANCH   2  26
TORSDOF 6
