REMARK  Name = ZINC65497552
REMARK  7 active torsions:
REMARK  status: ('A' for Active; 'I' for Inactive)
REMARK    1  A    between atoms: C_1  and  C_2
REMARK    2  A    between atoms: C_9  and  C_11
REMARK    3  A    between atoms: N_19  and  C_20
REMARK    4  A    between atoms: C_20  and  C_21
REMARK    5  A    between atoms: C_20  and  C_22
REMARK    6  A    between atoms: C_24  and  C_28
REMARK    7  A    between atoms: C_26  and  C_27
REMARK                            x       y       z     vdW  Elec       q    Type
REMARK                         _______ _______ _______ _____ _____    ______ ____
ROOT
ATOM      1  C   UNL     1      -0.138  -6.340  -0.950  0.00  0.00    +0.093 C 
ATOM      2  C   UNL     1      -0.236  -6.907  -2.368  0.00  0.00    +0.016 C 
ATOM      3  C   UNL     1      -0.362  -8.430  -2.303  0.00  0.00    +0.020 C 
ATOM      4  C   UNL     1       0.886  -9.014  -1.634  0.00  0.00    +0.109 C 
ATOM      5  N   UNL     1       1.069  -8.367  -0.328  0.00  0.00    -0.285 N 
ATOM      6  C   UNL     1       1.113  -6.900  -0.266  0.00  0.00    +0.122 C 
ATOM      7  C   UNL     1       1.194  -9.106   0.793  0.00  0.00    +0.303 C 
ATOM      8  O   UNL     1       1.247 -10.319   0.719  0.00  0.00    -0.253 OA
ATOM      9  N   UNL     1       1.259  -8.501   1.995  0.00  0.00    -0.293 N 
ATOM     10  H   UNL     1       1.291  -7.533   2.050  0.00  0.00    +0.151 HD
ENDROOT
BRANCH   1  19
ATOM     11  C   UNL     1      -0.032   1.494  -0.183  0.00  0.00    +0.045 C 
ATOM     12  C   UNL     1      -0.009  -0.008  -0.063  0.00  0.00    -0.032 A 
ATOM     13  C   UNL     1       0.006  -0.611   1.187  0.00  0.00    +0.008 A 
ATOM     14  C   UNL     1       0.027  -1.993   1.252  0.00  0.00    +0.044 A 
ATOM     15  C   UNL     1       0.032  -2.726   0.071  0.00  0.00    +0.125 A 
ATOM     16  N   UNL     1       0.016  -2.114  -1.102  0.00  0.00    -0.240 NA
ATOM     17  C   UNL     1      -0.009  -0.798  -1.196  0.00  0.00    +0.116 A 
ATOM     18  N   UNL     1       0.053  -4.119   0.123  0.00  0.00    -0.270 N 
ATOM     19  C   UNL     1      -0.046  -4.837  -1.014  0.00  0.00    +0.223 C 
ATOM     20  O   UNL     1      -0.060  -4.274  -2.087  0.00  0.00    -0.275 OA
ATOM     21  H   UNL     1       0.138  -4.572   0.977  0.00  0.00    +0.156 HD
ENDBRANCH   1  19
BRANCH   9  22
ATOM     22  C   UNL     1       1.282  -9.305   3.220  0.00  0.00    +0.105 C 
ATOM     23  C   UNL     1      -0.152  -9.646   3.633  0.00  0.00    +0.033 C 
BRANCH  22  24
ATOM     24  C   UNL     1       1.950  -8.523   4.322  0.00  0.00    +0.013 A 
ATOM     25  C   UNL     1       2.037  -7.116   4.422  0.00  0.00    +0.050 A 
ATOM     26  C   UNL     1       2.712  -6.847   5.555  0.00  0.00    +0.103 A 
ATOM     27  O   UNL     1       3.036  -8.011   6.142  0.00  0.00    -0.465 OA
ATOM     28  C   UNL     1       2.572  -9.030   5.401  0.00  0.00    +0.107 A 
ATOM     29  C   UNL     1       2.725 -10.495   5.723  0.00  0.00    +0.086 C 
ATOM     30  C   UNL     1       3.048  -5.474   6.076  0.00  0.00    +0.086 C 
ENDBRANCH  22  24
ENDBRANCH   9  22
TORSDOF 3
