REMARK  Name = ZINC39946125
REMARK  13 active torsions:
REMARK  status: ('A' for Active; 'I' for Inactive)
REMARK    1  A    between atoms: C_1  and  C_2
REMARK    2  A    between atoms: C_2  and  C_3
REMARK    3  A    between atoms: C_6  and  O_9
REMARK    4  A    between atoms: O_9  and  C_10
REMARK    5  A    between atoms: C_10  and  C_11
REMARK    6  A    between atoms: C_14  and  S_25
REMARK    7  A    between atoms: N_15  and  C_16
REMARK    8  A    between atoms: C_16  and  C_18
REMARK    9  A    between atoms: C_16  and  C_19
REMARK   10  A    between atoms: S_25  and  C_26
REMARK   11  A    between atoms: C_26  and  C_27
REMARK   12  A    between atoms: C_27  and  C_29
REMARK   13  A    between atoms: C_37  and  C_39
REMARK                            x       y       z     vdW  Elec       q    Type
REMARK                         _______ _______ _______ _____ _____    ______ ____
ROOT
ATOM      1  C   UNL     1      -7.924  -2.903  -0.509  0.00  0.00    +0.172 A 
ATOM      2  N   UNL     1      -8.478  -4.052  -0.774  0.00  0.00    -0.130 NA
ATOM      3  N   UNL     1      -9.579  -3.874  -1.411  0.00  0.00    -0.122 NA
ATOM      4  C   UNL     1      -9.789  -2.591  -1.590  0.00  0.00    +0.193 A 
ATOM      5  N   UNL     1      -8.742  -1.931  -1.015  0.00  0.00    -0.296 N 
ENDROOT
BRANCH   5   6
ATOM      6  C   UNL     1      -8.535  -0.481  -0.955  0.00  0.00    +0.118 C 
ATOM      7  C   UNL     1      -9.860   0.210  -0.627  0.00  0.00    +0.036 C 
BRANCH   6   8
ATOM      8  C   UNL     1      -8.028   0.009  -2.287  0.00  0.00    -0.025 A 
ATOM      9  C   UNL     1      -8.703  -0.322  -3.447  0.00  0.00    +0.005 A 
ATOM     10  C   UNL     1      -8.238   0.129  -4.669  0.00  0.00    +0.000 A 
ATOM     11  C   UNL     1      -7.099   0.909  -4.730  0.00  0.00    +0.000 A 
ATOM     12  C   UNL     1      -6.425   1.241  -3.569  0.00  0.00    +0.000 A 
ATOM     13  C   UNL     1      -6.892   0.794  -2.347  0.00  0.00    +0.005 A 
ENDBRANCH   6   8
ENDBRANCH   5   6
BRANCH   1  14
ATOM     14  C   UNL     1      -6.625  -2.685   0.224  0.00  0.00    +0.305 C 
BRANCH  14  15
ATOM     15  O   UNL     1      -6.883  -2.570   1.625  0.00  0.00    -0.484 OA
BRANCH  15  19
ATOM     16  C   UNL     1      -3.627  -1.963   4.084  0.00  0.00    -0.047 A 
ATOM     17  C   UNL     1      -4.896  -2.046   4.627  0.00  0.00    +0.007 A 
ATOM     18  C   UNL     1      -5.988  -2.249   3.806  0.00  0.00    +0.046 A 
ATOM     19  C   UNL     1      -5.810  -2.370   2.435  0.00  0.00    +0.121 A 
ATOM     20  C   UNL     1      -4.536  -2.286   1.893  0.00  0.00    +0.046 A 
ATOM     21  C   UNL     1      -3.448  -2.077   2.718  0.00  0.00    +0.007 A 
BRANCH  16  23
ATOM     22  C   UNL     1      -2.195  -0.239   5.147  0.00  0.00    +0.009 C 
ATOM     23  C   UNL     1      -2.438  -1.741   4.983  0.00  0.00    +0.032 C 
ENDBRANCH  16  23
ENDBRANCH  15  19
ENDBRANCH  14  15
ENDBRANCH   1  14
BRANCH   4  24
ATOM     24  S   UNL     1     -11.166  -1.858  -2.410  0.00  0.00    -0.078 S 
BRANCH  24  25
ATOM     25  C   UNL     1     -12.176  -3.275  -2.922  0.00  0.00    +0.156 C 
BRANCH  25  26
ATOM     26  C   UNL     1     -13.403  -2.782  -3.646  0.00  0.00    +0.172 C 
ATOM     27  O   UNL     1     -13.579  -1.591  -3.801  0.00  0.00    -0.291 OA
BRANCH  26  28
ATOM     28  C   UNL     1     -14.347  -3.705  -4.143  0.00  0.00    +0.027 C 
ATOM     29  C   UNL     1     -14.301  -5.084  -4.046  0.00  0.00    +0.006 A 
ATOM     30  C   UNL     1     -13.370  -5.977  -3.465  0.00  0.00    +0.010 A 
ATOM     31  C   UNL     1     -13.580  -7.311  -3.519  0.00  0.00    +0.001 A 
ATOM     32  C   UNL     1     -14.708  -7.872  -4.140  0.00  0.00    +0.002 A 
ATOM     33  C   UNL     1     -15.656  -7.108  -4.725  0.00  0.00    +0.026 A 
ATOM     34  C   UNL     1     -15.504  -5.643  -4.710  0.00  0.00    +0.043 A 
ATOM     35  N   UNL     1     -16.248  -4.687  -5.188  0.00  0.00    -0.377 N 
ATOM     36  C   UNL     1     -15.627  -3.393  -4.889  0.00  0.00    +0.111 C 
ATOM     37  C   UNL     1     -16.555  -2.550  -4.012  0.00  0.00    +0.035 C 
ATOM     38  H   UNL     1     -17.084  -4.811  -5.663  0.00  0.00    +0.160 HD
ENDBRANCH  26  28
ENDBRANCH  25  26
ENDBRANCH  24  25
ENDBRANCH   4  24
TORSDOF 10
