REMARK  Name = ZINC67388628
REMARK  7 active torsions:
REMARK  status: ('A' for Active; 'I' for Inactive)
REMARK    1  A    between atoms: C_1  and  C_2
REMARK    2  A    between atoms: C_6  and  C_7
REMARK    3  A    between atoms: N_9  and  N_10
REMARK    4  A    between atoms: N_13  and  C_14
REMARK    5  A    between atoms: C_14  and  C_15
REMARK    6  A    between atoms: C_15  and  C_17
REMARK    7  A    between atoms: C_15  and  N_23
REMARK                            x       y       z     vdW  Elec       q    Type
REMARK                         _______ _______ _______ _____ _____    ______ ____
ROOT
ATOM      1  N   UNL     1      -0.449  -0.931   4.381  0.00  0.00    -0.218 N 
ATOM      2  C   UNL     1      -0.438  -1.706   5.484  0.00  0.00    +0.316 C 
ATOM      3  O   UNL     1      -0.652  -1.214   6.575  0.00  0.00    -0.251 OA
ATOM      4  N   UNL     1      -0.189  -3.026   5.377  0.00  0.00    -0.297 N 
ATOM      5  H   UNL     1      -0.628   0.020   4.458  0.00  0.00    +0.174 HD
ATOM      6  H   UNL     1      -0.018  -3.418   4.506  0.00  0.00    +0.150 HD
ENDROOT
BRANCH   1   9
ATOM      7  C   UNL     1      -0.214  -0.722   2.021  0.00  0.00    +0.267 C 
ATOM      8  O   UNL     1      -0.439   0.470   2.118  0.00  0.00    -0.268 OA
ATOM      9  N   UNL     1      -0.203  -1.497   3.124  0.00  0.00    -0.229 N 
ATOM     10  H   UNL     1      -0.024  -2.447   3.047  0.00  0.00    +0.173 HD
BRANCH   7  16
ATOM     11  C   UNL     1      -0.167   0.775  -0.710  0.00  0.00    +0.045 C 
ATOM     12  C   UNL     1       0.077  -0.702  -0.538  0.00  0.00    -0.031 A 
ATOM     13  C   UNL     1       0.354  -1.526  -1.602  0.00  0.00    +0.011 A 
ATOM     14  C   UNL     1       0.564  -2.847  -1.376  0.00  0.00    +0.046 A 
ATOM     15  S   UNL     1       0.394  -3.012   0.287  0.00  0.00    -0.092 S 
ATOM     16  C   UNL     1       0.043  -1.315   0.706  0.00  0.00    +0.078 A 
ENDBRANCH   7  16
ENDBRANCH   1   9
BRANCH   4  17
ATOM     17  C   UNL     1      -0.176  -3.869   6.575  0.00  0.00    +0.125 C 
BRANCH  17  18
ATOM     18  C   UNL     1       0.007  -5.332   6.168  0.00  0.00    +0.079 C 
BRANCH  18  19
ATOM     19  N   UNL     1       1.229  -5.467   5.363  0.00  0.00    -0.293 NA
ATOM     20  C   UNL     1       1.234  -6.736   4.622  0.00  0.00    +0.113 C 
ATOM     21  C   UNL     1       2.493  -6.808   3.753  0.00  0.00    +0.175 C 
ATOM     22  O   UNL     1       3.648  -6.662   4.584  0.00  0.00    -0.377 OA
ATOM     23  C   UNL     1       3.676  -5.436   5.321  0.00  0.00    +0.175 C 
ATOM     24  C   UNL     1       2.429  -5.350   6.205  0.00  0.00    +0.113 C 
ENDBRANCH  18  19
BRANCH  18  25
ATOM     25  C   UNL     1       0.124  -6.200   7.422  0.00  0.00    +0.035 C 
ATOM     26  C   UNL     1      -1.160  -6.093   8.290  0.00  0.00    +0.035 C 
ATOM     27  C   UNL     1      -1.151  -7.470   8.999  0.00  0.00    +0.160 C 
ATOM     28  O   UNL     1      -0.651  -8.394   8.019  0.00  0.00    -0.379 OA
ATOM     29  C   UNL     1       0.152  -7.698   7.053  0.00  0.00    +0.165 C 
ENDBRANCH  18  25
ENDBRANCH  17  18
ENDBRANCH   4  17
TORSDOF 6
