REMARK  Name = ZINC00647520
REMARK  4 active torsions:
REMARK  status: ('A' for Active; 'I' for Inactive)
REMARK    1  A    between atoms: C_6  and  C_7
REMARK    2  A    between atoms: C_10  and  C_27
REMARK    3  A    between atoms: C_15  and  C_17
REMARK    4  A    between atoms: N_19  and  C_20
REMARK                            x       y       z     vdW  Elec       q    Type
REMARK                         _______ _______ _______ _____ _____    ______ ____
ROOT
ATOM      1  C   UNL     1      -1.293  -0.775   0.010  0.00  0.00    +0.104 C 
ATOM      2  C   UNL     1      -1.589  -1.269   1.431  0.00  0.00    +0.063 C 
ATOM      3  C   UNL     1      -2.938  -1.996   1.460  0.00  0.00    +0.215 C 
ATOM      4  N   UNL     1      -2.969  -2.984   0.378  0.00  0.00    -0.238 N 
ATOM      5  C   UNL     1      -2.138  -2.947  -0.706  0.00  0.00    +0.119 A 
ATOM      6  C   UNL     1      -2.432  -3.999  -1.495  0.00  0.00    +0.078 A 
ATOM      7  C   UNL     1      -3.485  -4.713  -0.880  0.00  0.00    +0.149 A 
ATOM      8  N   UNL     1      -3.800  -4.095   0.244  0.00  0.00    -0.164 NA
ATOM      9  N   UNL     1      -1.179  -1.944  -0.884  0.00  0.00    -0.322 N 
ATOM     10  H   UNL     1      -0.480  -2.014  -1.552  0.00  0.00    +0.148 HD
ENDROOT
BRANCH   1  16
ATOM     11  C   UNL     1      -0.017   1.378   0.010  0.00  0.00    +0.006 A 
ATOM     12  C   UNL     1       1.171   2.086   0.002  0.00  0.00    +0.015 A 
ATOM     13  C   UNL     1       2.378   1.411  -0.013  0.00  0.00    +0.018 A 
ATOM     14  C   UNL     1       2.396   0.027  -0.021  0.00  0.00    +0.015 A 
ATOM     15  C   UNL     1       1.208  -0.679  -0.013  0.00  0.00    +0.006 A 
ATOM     16  C   UNL     1       0.002  -0.004   0.002  0.00  0.00    -0.027 A 
ATOM     17 BR   UNL     1       4.003   2.378  -0.024  0.00  0.00    -0.050 Br
ENDBRANCH   1  16
BRANCH   7  18
ATOM     18  C   UNL     1      -4.123  -5.939  -1.404  0.00  0.00    +0.264 C 
ATOM     19  O   UNL     1      -3.746  -6.418  -2.456  0.00  0.00    -0.268 OA
ATOM     20  N   UNL     1      -5.123  -6.525  -0.716  0.00  0.00    -0.307 N 
ATOM     21  H   UNL     1      -5.423  -6.142   0.123  0.00  0.00    +0.149 HD
BRANCH  20  22
ATOM     22  C   UNL     1      -5.755  -7.740  -1.235  0.00  0.00    +0.073 C 
ATOM     23  C   UNL     1      -6.857  -7.358  -2.226  0.00  0.00    +0.022 C 
ATOM     24  C   UNL     1      -7.517  -8.627  -2.768  0.00  0.00    +0.002 C 
ATOM     25  C   UNL     1      -8.125  -9.421  -1.609  0.00  0.00    +0.000 C 
ATOM     26  C   UNL     1      -7.023  -9.803  -0.619  0.00  0.00    +0.002 C 
ATOM     27  C   UNL     1      -6.363  -8.534  -0.077  0.00  0.00    +0.022 C 
ENDBRANCH  20  22
ENDBRANCH   7  18
BRANCH   3  28
ATOM     28  C   UNL     1      -3.111  -2.701   2.807  0.00  0.00    +0.412 C 
ATOM     29  F   UNL     1      -3.069  -1.755   3.837  0.00  0.00    -0.168 F 
ATOM     30  F   UNL     1      -4.343  -3.362   2.832  0.00  0.00    -0.168 F 
ATOM     31  F   UNL     1      -2.080  -3.629   2.983  0.00  0.00    -0.168 F 
ENDBRANCH   3  28
TORSDOF 4
