REMARK  Name = ZINC33351276
REMARK  8 active torsions:
REMARK  status: ('A' for Active; 'I' for Inactive)
REMARK    1  A    between atoms: C_1  and  C_2
REMARK    2  A    between atoms: C_2  and  O_3
REMARK    3  A    between atoms: O_3  and  C_4
REMARK    4  A    between atoms: C_10  and  C_19
REMARK    5  A    between atoms: C_11  and  C_13
REMARK    6  A    between atoms: C_19  and  O_21
REMARK    7  A    between atoms: O_21  and  C_22
REMARK    8  A    between atoms: C_30  and  C_31
REMARK                            x       y       z     vdW  Elec       q    Type
REMARK                         _______ _______ _______ _____ _____    ______ ____
ROOT
ATOM      1  C   UNL     1      -1.768   2.131   6.663  0.00  0.00    +0.349 C 
ATOM      2  O   UNL     1      -1.619   3.319   6.876  0.00  0.00    -0.244 OA
ENDROOT
BRANCH   1   9
ATOM      3  C   UNL     1      -0.261   1.060   2.346  0.00  0.00    +0.121 A 
ATOM      4  C   UNL     1       0.870   0.249   2.377  0.00  0.00    +0.049 A 
ATOM      5  C   UNL     1       1.417  -0.145   3.579  0.00  0.00    +0.050 A 
ATOM      6  C   UNL     1       0.842   0.265   4.776  0.00  0.00    +0.137 A 
ATOM      7  C   UNL     1      -0.298   1.081   4.744  0.00  0.00    +0.038 A 
ATOM      8  C   UNL     1      -0.843   1.482   3.527  0.00  0.00    +0.058 A 
ATOM      9  C   UNL     1      -0.650   1.331   6.155  0.00  0.00    +0.113 A 
ATOM     10  C   UNL     1       0.300   0.649   6.899  0.00  0.00    +0.150 A 
ATOM     11  O   UNL     1       1.158   0.036   6.068  0.00  0.00    -0.454 OA
BRANCH  10  12
ATOM     12  C   UNL     1       0.360   0.604   8.372  0.00  0.00    +0.018 A 
ATOM     13  C   UNL     1      -0.590   1.290   9.135  0.00  0.00    +0.011 A 
ATOM     14  C   UNL     1      -0.531   1.239  10.512  0.00  0.00    +0.001 A 
ATOM     15  C   UNL     1       0.471   0.519  11.139  0.00  0.00    +0.000 A 
ATOM     16  C   UNL     1       1.418  -0.158  10.390  0.00  0.00    +0.001 A 
ATOM     17  C   UNL     1       1.369  -0.120   9.013  0.00  0.00    +0.011 A 
ENDBRANCH  10  12
BRANCH   3  18
ATOM     18  O   UNL     1      -0.790   1.442   1.153  0.00  0.00    -0.492 OA
BRANCH  18  20
ATOM     19  C   UNL     1      -0.868   1.502  -1.261  0.00  0.00    +0.048 C 
ATOM     20  C   UNL     1      -0.134   0.974  -0.027  0.00  0.00    +0.225 C 
ENDBRANCH  18  20
ENDBRANCH   3  18
ENDBRANCH   1   9
BRANCH   1  21
ATOM     21  O   UNL     1      -2.963   1.549   6.894  0.00  0.00    -0.422 OA
BRANCH  21  22
ATOM     22  C   UNL     1      -3.941   2.304   7.458  0.00  0.00    +0.135 A 
ATOM     23  C   UNL     1      -4.269   2.119   8.799  0.00  0.00    +0.047 A 
ATOM     24  C   UNL     1      -5.247   2.878   9.377  0.00  0.00    +0.019 A 
ATOM     25  C   UNL     1      -5.926   3.832   8.619  0.00  0.00    +0.068 A 
ATOM     26  C   UNL     1      -5.608   4.024   7.265  0.00  0.00    +0.143 A 
ATOM     27  C   UNL     1      -4.607   3.248   6.694  0.00  0.00    +0.093 A 
ATOM     28  O   UNL     1      -6.393   4.993   6.745  0.00  0.00    -0.451 OA
ATOM     29  C   UNL     1      -7.249   5.495   7.665  0.00  0.00    +0.176 C 
ATOM     30  C   UNL     1      -8.163   6.476   7.458  0.00  0.00    +0.058 C 
ATOM     31  C   UNL     1      -7.008   4.784   8.931  0.00  0.00    +0.231 C 
ATOM     32  O   UNL     1      -7.575   4.945   9.997  0.00  0.00    -0.283 OA
BRANCH  30  33
ATOM     33  C   UNL     1      -8.369   7.016   6.107  0.00  0.00    -0.019 A 
ATOM     34  C   UNL     1      -7.537   6.614   5.055  0.00  0.00    +0.008 A 
ATOM     35  C   UNL     1      -7.736   7.124   3.790  0.00  0.00    +0.003 A 
ATOM     36  C   UNL     1      -8.755   8.031   3.557  0.00  0.00    +0.038 A 
ATOM     37  C   UNL     1      -9.584   8.434   4.592  0.00  0.00    +0.124 A 
ATOM     38  C   UNL     1      -9.400   7.929   5.864  0.00  0.00    +0.046 A 
ATOM     39  F   UNL     1     -10.576   9.319   4.355  0.00  0.00    -0.205 F 
ENDBRANCH  30  33
ENDBRANCH  21  22
ENDBRANCH   1  21
TORSDOF 7
