REMARK  Name = ZINC44784820
REMARK  4 active torsions:
REMARK  status: ('A' for Active; 'I' for Inactive)
REMARK    1  A    between atoms: C_5  and  N_8
REMARK    2  A    between atoms: C_9  and  C_11
REMARK    3  A    between atoms: C_11  and  C_16
REMARK    4  A    between atoms: N_17  and  O_18
REMARK                            x       y       z     vdW  Elec       q    Type
REMARK                         _______ _______ _______ _____ _____    ______ ____
ROOT
ATOM      1  N   UNL     1       1.302  -2.188  -0.217  0.00  0.00    -0.282 N 
ATOM      2  C   UNL     1       0.216  -2.797   0.299  0.00  0.00    +0.231 C 
ATOM      3  O   UNL     1      -0.755  -2.141   0.612  0.00  0.00    -0.274 OA
ATOM      4  H   UNL     1       2.047  -2.718  -0.542  0.00  0.00    +0.155 HD
ENDROOT
BRANCH   1   9
ATOM      5  C   UNL     1       0.323   1.308  -0.831  0.00  0.00    +0.078 A 
ATOM      6  C   UNL     1       1.464   1.976  -0.416  0.00  0.00    +0.127 A 
ATOM      7  C   UNL     1       2.549   1.264   0.065  0.00  0.00    +0.055 A 
ATOM      8  C   UNL     1       2.498  -0.116   0.132  0.00  0.00    +0.045 A 
ATOM      9  C   UNL     1       1.356  -0.789  -0.283  0.00  0.00    +0.083 A 
ATOM     10  C   UNL     1       0.267  -0.072  -0.765  0.00  0.00    +0.148 A 
ATOM     11  F   UNL     1      -0.846  -0.723  -1.170  0.00  0.00    -0.203 F 
ATOM     12 BR   UNL     1       3.982  -1.088   0.787  0.00  0.00    -0.048 Br
ATOM     13  F   UNL     1       1.517   3.324  -0.480  0.00  0.00    -0.205 F 
ENDBRANCH   1   9
BRANCH   2  14
ATOM     14  C   UNL     1       0.208  -4.292   0.487  0.00  0.00    +0.105 C 
ATOM     15  C   UNL     1       0.514  -4.992  -0.849  0.00  0.00    +0.024 C 
ATOM     16  C   UNL     1      -0.715  -5.865  -1.180  0.00  0.00    +0.001 C 
ATOM     17  C   UNL     1      -1.876  -5.197  -0.402  0.00  0.00    +0.001 C 
ATOM     18  C   UNL     1      -1.195  -4.763   0.920  0.00  0.00    +0.024 C 
BRANCH  14  19
ATOM     19  C   UNL     1       1.229  -4.687   1.523  0.00  0.00    +0.147 C 
ATOM     20  N   UNL     1       1.367  -5.928   1.853  0.00  0.00    -0.076 NA
ATOM     21  N   UNL     1       2.014  -3.725   2.118  0.00  0.00    -0.343 N 
ATOM     22  H   UNL     1       1.855  -2.786   1.933  0.00  0.00    +0.144 HD
ATOM     23  H   UNL     1       2.727  -3.986   2.722  0.00  0.00    +0.144 HD
BRANCH  20  24
ATOM     24  O   UNL     1       0.655  -6.931   1.151  0.00  0.00    -0.408 OA
ATOM     25  H   UNL     1       0.822  -7.829   1.470  0.00  0.00    +0.328 HD
ENDBRANCH  20  24
ENDBRANCH  14  19
ENDBRANCH   2  14
TORSDOF 4
