REMARK  Name = ZINC08616685
REMARK  8 active torsions:
REMARK  status: ('A' for Active; 'I' for Inactive)
REMARK    1  A    between atoms: C_1  and  C_2
REMARK    2  A    between atoms: C_2  and  C_3
REMARK    3  A    between atoms: C_3  and  C_4
REMARK    4  A    between atoms: C_4  and  C_5
REMARK    5  A    between atoms: C_8  and  N_12
REMARK    6  A    between atoms: C_9  and  C_11
REMARK    7  A    between atoms: N_19  and  C_22
REMARK    8  A    between atoms: C_25  and  C_27
REMARK                            x       y       z     vdW  Elec       q    Type
REMARK                         _______ _______ _______ _____ _____    ______ ____
ROOT
ATOM      1  N   UNL     1      -4.251   2.430  -1.164  0.00  0.00    -0.269 N 
ATOM      2  C   UNL     1      -2.929   2.481  -1.421  0.00  0.00    +0.306 C 
ATOM      3  O   UNL     1      -2.463   3.430  -2.022  0.00  0.00    -0.252 OA
ATOM      4  N   UNL     1      -2.123   1.481  -1.012  0.00  0.00    -0.284 N 
ATOM      5  C   UNL     1      -0.680   1.566  -1.308  0.00  0.00    +0.111 C 
ATOM      6  C   UNL     1       0.165   1.111  -0.107  0.00  0.00    +0.038 C 
ATOM      7  C   UNL     1      -0.453   1.628   1.173  0.00  0.00    +0.108 C 
ATOM      8  N   UNL     1      -1.364   0.617   1.707  0.00  0.00    -0.314 N 
ATOM      9  C   UNL     1      -2.692   0.650   1.222  0.00  0.00    +0.125 C 
ATOM     10  C   UNL     1      -2.707   0.363  -0.299  0.00  0.00    +0.128 C 
ATOM     11  H   UNL     1      -4.636   1.637  -0.759  0.00  0.00    +0.156 HD
ENDROOT
BRANCH   8  12
ATOM     12  C   UNL     1      -1.341   0.610   3.098  0.00  0.00    +0.118 A 
ATOM     13  C   UNL     1      -0.250   0.062   3.768  0.00  0.00    +0.079 A 
ATOM     14  C   UNL     1      -0.242   0.062   5.151  0.00  0.00    +0.037 A 
ATOM     15  C   UNL     1      -1.328   0.611   5.821  0.00  0.00    +0.072 A 
ATOM     16  C   UNL     1      -2.376   1.137   5.093  0.00  0.00    +0.096 A 
ATOM     17 CL   UNL     1       1.081  -0.611   2.879  0.00  0.00    -0.080 Cl
ATOM     18  N   UNL     1      -2.416   1.160   3.733  0.00  0.00    -0.348 N 
ATOM     19  H   UNL     1      -3.206   1.566   3.218  0.00  0.00    +0.167 HD
BRANCH  15  20
ATOM     20  C   UNL     1      -1.361   0.632   7.327  0.00  0.00    +0.419 C 
ATOM     21  F   UNL     1      -0.778   1.816   7.790  0.00  0.00    -0.166 F 
ATOM     22  F   UNL     1      -2.688   0.563   7.765  0.00  0.00    -0.166 F 
ATOM     23  F   UNL     1      -0.649  -0.465   7.825  0.00  0.00    -0.166 F 
ENDBRANCH  15  20
ENDBRANCH   8  12
BRANCH   1  27
ATOM     24  C   UNL     1      -6.684   5.677  -2.108  0.00  0.00    -0.047 A 
ATOM     25  C   UNL     1      -5.335   5.870  -1.877  0.00  0.00    +0.005 A 
ATOM     26  C   UNL     1      -4.525   4.796  -1.564  0.00  0.00    +0.024 A 
ATOM     27  C   UNL     1      -5.068   3.520  -1.481  0.00  0.00    +0.038 A 
ATOM     28  C   UNL     1      -6.423   3.329  -1.719  0.00  0.00    -0.029 A 
ATOM     29  C   UNL     1      -7.228   4.408  -2.026  0.00  0.00    +0.008 A 
ATOM     30  C   UNL     1      -7.015   1.946  -1.635  0.00  0.00    +0.045 C 
BRANCH  24  31
ATOM     31  C   UNL     1      -7.564   6.851  -2.450  0.00  0.00    +0.035 C 
BRANCH  31  32
ATOM     32  C   UNL     1      -7.593   7.043  -3.968  0.00  0.00    +0.004 C 
BRANCH  32  34
ATOM     33  C   UNL     1      -8.515   8.426  -5.833  0.00  0.00    +0.004 C 
ATOM     34  C   UNL     1      -8.487   8.235  -4.315  0.00  0.00    -0.003 C 
ENDBRANCH  32  34
ENDBRANCH  31  32
ENDBRANCH  24  31
ENDBRANCH   1  27
TORSDOF 6
