REMARK  Name = ZINC36491478
REMARK  10 active torsions:
REMARK  status: ('A' for Active; 'I' for Inactive)
REMARK    1  A    between atoms: C_1  and  C_2
REMARK    2  A    between atoms: C_5  and  S_8
REMARK    3  A    between atoms: S_8  and  C_11
REMARK    4  A    between atoms: C_11  and  N_12
REMARK    5  A    between atoms: C_13  and  C_15
REMARK    6  A    between atoms: C_15  and  C_17
REMARK    7  A    between atoms: C_15  and  N_26
REMARK    8  A    between atoms: N_26  and  C_27
REMARK    9  A    between atoms: C_33  and  C_35
REMARK   10  A    between atoms: C_35  and  C_37
REMARK                            x       y       z     vdW  Elec       q    Type
REMARK                         _______ _______ _______ _____ _____    ______ ____
ROOT
ATOM      1  C   UNL     1       3.020  -4.646   4.374  0.00  0.00    +0.193 C 
ENDROOT
BRANCH   1   2
ATOM      2  C   UNL     1       3.028  -3.466   5.311  0.00  0.00    -0.015 A 
ATOM      3  C   UNL     1       2.755  -3.650   6.654  0.00  0.00    +0.010 A 
ATOM      4  C   UNL     1       2.762  -2.571   7.518  0.00  0.00    +0.050 A 
ATOM      5  C   UNL     1       3.042  -1.301   7.039  0.00  0.00    +0.166 A 
ATOM      6  C   UNL     1       3.318  -1.116   5.687  0.00  0.00    +0.167 A 
ATOM      7  C   UNL     1       3.315  -2.203   4.828  0.00  0.00    +0.055 A 
ATOM      8  O   UNL     1       3.560   0.209   5.468  0.00  0.00    -0.453 OA
ATOM      9  C   UNL     1       3.030   0.892   6.620  0.00  0.00    +0.466 C 
ATOM     10  O   UNL     1       3.112  -0.092   7.668  0.00  0.00    -0.453 OA
ENDBRANCH   1   2
BRANCH   1  12
ATOM     11  N   UNL     1       1.329  -3.789   2.785  0.00  0.00    -0.294 N 
ATOM     12  C   UNL     1       1.683  -4.729   3.683  0.00  0.00    +0.239 C 
ATOM     13  O   UNL     1       0.926  -5.643   3.935  0.00  0.00    -0.273 OA
ATOM     14  H   UNL     1       1.935  -3.058   2.584  0.00  0.00    +0.150 HD
BRANCH  11  15
ATOM     15  C   UNL     1       0.030  -3.870   2.113  0.00  0.00    +0.278 C 
BRANCH  15  16
ATOM     16  S   UNL     1      -1.177  -2.853   3.008  0.00  0.00    +0.013 S 
ATOM     17  O   UNL     1      -1.103  -3.118   4.402  0.00  0.00    -0.168 OA
ATOM     18  O   UNL     1      -2.428  -2.870   2.332  0.00  0.00    -0.168 OA
BRANCH  16  23
ATOM     19  C   UNL     1       0.814   2.811   2.410  0.00  0.00    +0.044 C 
ATOM     20  C   UNL     1       0.317   1.396   2.559  0.00  0.00    -0.050 A 
ATOM     21  C   UNL     1      -0.552   0.867   1.624  0.00  0.00    +0.005 A 
ATOM     22  C   UNL     1      -1.009  -0.431   1.760  0.00  0.00    +0.027 A 
ATOM     23  C   UNL     1      -0.595  -1.199   2.833  0.00  0.00    +0.090 A 
ATOM     24  C   UNL     1       0.275  -0.670   3.767  0.00  0.00    +0.027 A 
ATOM     25  C   UNL     1       0.735   0.626   3.628  0.00  0.00    +0.005 A 
ENDBRANCH  16  23
ENDBRANCH  15  16
ENDBRANCH  11  15
ENDBRANCH   1  12
BRANCH   1  26
ATOM     26  N   UNL     1       3.254  -5.876   5.135  0.00  0.00    -0.279 N 
ATOM     27  C   UNL     1       4.513  -6.299   5.362  0.00  0.00    +0.243 C 
ATOM     28  O   UNL     1       4.707  -7.388   5.869  0.00  0.00    -0.270 OA
BRANCH  26  29
ATOM     29  C   UNL     1       2.118  -6.646   5.650  0.00  0.00    +0.077 C 
ATOM     30  C   UNL     1       2.344  -6.960   7.130  0.00  0.00    +0.022 C 
ATOM     31  C   UNL     1       1.158  -7.764   7.667  0.00  0.00    +0.002 C 
ATOM     32  C   UNL     1       1.031  -9.071   6.882  0.00  0.00    +0.000 C 
ATOM     33  C   UNL     1       0.805  -8.757   5.402  0.00  0.00    +0.002 C 
ATOM     34  C   UNL     1       1.991  -7.953   4.865  0.00  0.00    +0.022 C 
ENDBRANCH  26  29
BRANCH  27  35
ATOM     35  C   UNL     1       5.653  -5.445   4.997  0.00  0.00    +0.004 C 
ATOM     36  C   UNL     1       6.873  -5.741   5.435  0.00  0.00    +0.017 C 
ATOM     37  C   UNL     1       5.438  -4.233   4.126  0.00  0.00    +0.048 C 
ENDBRANCH  27  35
ENDBRANCH   1  26
TORSDOF 8
