REMARK  Name = ZINC39992574
REMARK  13 active torsions:
REMARK  status: ('A' for Active; 'I' for Inactive)
REMARK    1  A    between atoms: C_1  and  C_2
REMARK    2  A    between atoms: C_2  and  C_3
REMARK    3  A    between atoms: C_3  and  C_4
REMARK    4  A    between atoms: C_7  and  C_10
REMARK    5  A    between atoms: C_10  and  C_12
REMARK    6  A    between atoms: C_10  and  N_17
REMARK    7  A    between atoms: N_17  and  C_18
REMARK    8  A    between atoms: C_18  and  C_20
REMARK    9  A    between atoms: C_18  and  C_21
REMARK   10  A    between atoms: N_23  and  C_24
REMARK   11  A    between atoms: C_25  and  C_37
REMARK   12  A    between atoms: N_26  and  C_36
REMARK   13  A    between atoms: N_27  and  C_30
REMARK                            x       y       z     vdW  Elec       q    Type
REMARK                         _______ _______ _______ _____ _____    ______ ____
ROOT
ATOM      1  C   UNL     1       0.783  -8.062  -2.960  0.00  0.00    +0.014 C 
ATOM      2  C   UNL     1       2.175  -8.669  -2.767  0.00  0.00    -0.004 C 
ENDROOT
BRANCH   1   3
ATOM      3  C   UNL     1       0.146  -8.650  -4.192  0.00  0.00    +0.203 C 
ATOM      4  O   UNL     1      -0.178  -7.927  -5.111  0.00  0.00    -0.277 OA
ATOM      5  N   UNL     1      -0.065  -9.979  -4.274  0.00  0.00    -0.281 N 
ATOM      6  H   UNL     1       0.260 -10.565  -3.573  0.00  0.00    +0.155 HD
BRANCH   5   7
ATOM      7  C   UNL     1      -0.756 -10.516  -5.378  0.00  0.00    +0.121 A 
ATOM      8  C   UNL     1      -0.293 -11.453  -6.235  0.00  0.00    +0.059 A 
ATOM      9  N   UNL     1      -1.262 -11.708  -7.169  0.00  0.00    -0.282 N 
ATOM     10  N   UNL     1      -2.379 -10.909  -6.902  0.00  0.00    -0.216 N 
ATOM     11  C   UNL     1      -2.111 -10.168  -5.807  0.00  0.00    +0.293 A 
ATOM     12  O   UNL     1      -2.854  -9.361  -5.277  0.00  0.00    -0.264 OA
ATOM     13  C   UNL     1      -1.146 -12.665  -8.273  0.00  0.00    +0.171 C 
ATOM     14  C   UNL     1       1.063 -12.108  -6.174  0.00  0.00    +0.067 C 
BRANCH  10  15
ATOM     15  C   UNL     1      -3.568 -10.888  -7.637  0.00  0.00    +0.067 A 
ATOM     16  C   UNL     1      -4.104  -9.677  -8.058  0.00  0.00    +0.028 A 
ATOM     17  C   UNL     1      -5.279  -9.659  -8.784  0.00  0.00    +0.002 A 
ATOM     18  C   UNL     1      -5.921 -10.844  -9.092  0.00  0.00    +0.000 A 
ATOM     19  C   UNL     1      -5.391 -12.051  -8.674  0.00  0.00    +0.002 A 
ATOM     20  C   UNL     1      -4.213 -12.076  -7.953  0.00  0.00    +0.028 A 
ENDBRANCH  10  15
ENDBRANCH   5   7
ENDBRANCH   1   3
BRANCH   1  21
ATOM     21  N   UNL     1       0.902  -6.607  -3.116  0.00  0.00    +0.394 N 
ATOM     22  H   UNL     1      -0.005  -6.216  -3.325  0.00  0.00    -0.083 HD
ATOM     23  H   UNL     1       1.539  -6.400  -3.871  0.00  0.00    -0.083 HD
BRANCH  21  24
ATOM     24  C   UNL     1       1.412  -6.020  -1.870  0.00  0.00    -0.002 C 
BRANCH  24  28
ATOM     25  C   UNL     1       2.087  -1.840  -2.437  0.00  0.00    -0.047 A 
ATOM     26  C   UNL     1       2.985  -2.592  -1.703  0.00  0.00    +0.004 A 
ATOM     27  C   UNL     1       2.767  -3.945  -1.519  0.00  0.00    +0.002 A 
ATOM     28  C   UNL     1       1.650  -4.545  -2.070  0.00  0.00    -0.057 A 
ATOM     29  C   UNL     1       0.751  -3.793  -2.803  0.00  0.00    +0.002 A 
ATOM     30  C   UNL     1       0.968  -2.440  -2.983  0.00  0.00    +0.004 A 
BRANCH  25  31
ATOM     31  C   UNL     1       2.325  -0.366  -2.637  0.00  0.00    +0.035 C 
BRANCH  31  33
ATOM     32  C   UNL     1       1.908   1.913  -1.703  0.00  0.00    +0.004 C 
ATOM     33  C   UNL     1       1.666   0.416  -1.500  0.00  0.00    +0.001 C 
ENDBRANCH  31  33
ENDBRANCH  25  31
ENDBRANCH  24  28
BRANCH  24  34
ATOM     34  C   UNL     1       0.403  -6.222  -0.769  0.00  0.00    -0.020 A 
ATOM     35  C   UNL     1       0.611  -6.541   0.531  0.00  0.00    +0.010 A 
ATOM     36  C   UNL     1      -0.479  -6.676   1.371  0.00  0.00    +0.008 A 
ATOM     37  C   UNL     1      -1.724  -6.485   0.868  0.00  0.00    +0.045 A 
ATOM     38  S   UNL     1      -1.377  -6.095  -0.839  0.00  0.00    -0.103 S 
ENDBRANCH  24  34
ENDBRANCH  21  24
ENDBRANCH   1  21
TORSDOF 9
