REMARK  Name = ZINC35058077
REMARK  8 active torsions:
REMARK  status: ('A' for Active; 'I' for Inactive)
REMARK    1  A    between atoms: C_1  and  C_2
REMARK    2  A    between atoms: N_4  and  C_5
REMARK    3  A    between atoms: C_7  and  O_37
REMARK    4  A    between atoms: C_15  and  C_18
REMARK    5  A    between atoms: C_24  and  O_26
REMARK    6  A    between atoms: O_26  and  C_27
REMARK    7  A    between atoms: O_37  and  C_38
REMARK    8  A    between atoms: C_38  and  C_39
REMARK                            x       y       z     vdW  Elec       q    Type
REMARK                         _______ _______ _______ _____ _____    ______ ____
ROOT
ATOM      1  C   UNL     1       0.020  -2.136  -1.177  0.00  0.00    +0.173 C 
ATOM      2  C   UNL     1      -0.702  -2.652  -2.425  0.00  0.00    +0.176 C 
ATOM      3  C   UNL     1       0.049  -2.184  -3.672  0.00  0.00    +0.183 C 
ATOM      4  C   UNL     1       1.506  -2.653  -3.602  0.00  0.00    +0.179 C 
ATOM      5  C   UNL     1       2.265  -2.071  -4.801  0.00  0.00    +0.197 C 
ATOM      6  O   UNL     1       2.101  -0.649  -4.804  0.00  0.00    -0.342 OA
ATOM      7  C   UNL     1       0.737  -0.225  -4.864  0.00  0.00    +0.319 C 
ATOM      8  O   UNL     1       0.021  -0.757  -3.746  0.00  0.00    -0.336 OA
ATOM      9  O   UNL     1       2.098  -2.188  -2.387  0.00  0.00    -0.332 OA
ATOM     10  C   UNL     1       1.470  -2.629  -1.198  0.00  0.00    +0.331 C 
ENDROOT
BRANCH   1  14
ATOM     11  C   UNL     1      -1.067   1.492  -0.622  0.00  0.00    +0.109 C 
ATOM     12  C   UNL     1      -1.046  -0.015  -0.631  0.00  0.00    +0.210 C 
ATOM     13  O   UNL     1      -1.972  -0.636  -0.153  0.00  0.00    -0.276 OA
ATOM     14  N   UNL     1       0.000  -0.672  -1.169  0.00  0.00    -0.304 N 
ATOM     15  H   UNL     1       0.740  -0.174  -1.551  0.00  0.00    +0.149 HD
ENDBRANCH   1  14
BRANCH   7  16
ATOM     16  C   UNL     1       0.677   1.281  -4.828  0.00  0.00    +0.161 A 
ATOM     17  C   UNL     1       1.235   2.112  -5.726  0.00  0.00    +0.050 A 
ATOM     18  C   UNL     1       0.934   3.429  -5.308  0.00  0.00    +0.041 A 
ATOM     19  C   UNL     1       0.211   3.323  -4.179  0.00  0.00    +0.195 A 
ATOM     20  O   UNL     1       0.053   2.020  -3.896  0.00  0.00    -0.463 OA
ENDBRANCH   7  16
BRANCH  10  21
ATOM     21  O   UNL     1       1.488  -4.058  -1.165  0.00  0.00    -0.461 OA
BRANCH  21  22
ATOM     22  C   UNL     1       2.693  -4.654  -0.968  0.00  0.00    +0.132 A 
ATOM     23  C   UNL     1       3.818  -3.895  -0.806  0.00  0.00    +0.046 A 
ATOM     24  C   UNL     1       5.059  -4.491  -0.604  0.00  0.00    +0.004 A 
ATOM     25  C   UNL     1       5.190  -5.846  -0.560  0.00  0.00    +0.009 A 
ATOM     26  C   UNL     1       4.057  -6.661  -0.721  0.00  0.00    -0.014 A 
ATOM     27  C   UNL     1       2.790  -6.059  -0.923  0.00  0.00    +0.024 A 
ATOM     28  C   UNL     1       1.657  -6.874  -1.080  0.00  0.00    +0.012 A 
ATOM     29  C   UNL     1       1.789  -8.228  -1.031  0.00  0.00    +0.001 A 
ATOM     30  C   UNL     1       3.034  -8.821  -0.828  0.00  0.00    +0.001 A 
ATOM     31  C   UNL     1       4.155  -8.063  -0.682  0.00  0.00    +0.008 A 
ENDBRANCH  21  22
ENDBRANCH  10  21
BRANCH   2  32
ATOM     32  O   UNL     1      -0.741  -4.080  -2.398  0.00  0.00    -0.361 OA
BRANCH  32  33
ATOM     33  C   UNL     1      -1.894  -4.618  -1.747  0.00  0.00    +0.285 C 
BRANCH  33  34
ATOM     34  C   UNL     1      -1.831  -6.124  -1.777  0.00  0.00    +0.381 C 
ATOM     35  O   UNL     1      -0.886  -6.684  -2.307  0.00  0.00    -0.244 OA
ATOM     36  O   UNL     1      -2.724  -6.781  -1.272  0.00  0.00    -0.244 OA
ENDBRANCH  33  34
ENDBRANCH  32  33
ENDBRANCH   2  32
TORSDOF 7
