REMARK  Name = ZINC59384358
REMARK  12 active torsions:
REMARK  status: ('A' for Active; 'I' for Inactive)
REMARK    1  A    between atoms: C_1  and  C_2
REMARK    2  A    between atoms: C_4  and  N_17
REMARK    3  A    between atoms: C_6  and  C_8
REMARK    4  A    between atoms: C_12  and  N_14
REMARK    5  A    between atoms: N_17  and  C_18
REMARK    6  A    between atoms: C_18  and  C_20
REMARK    7  A    between atoms: C_18  and  C_30
REMARK    8  A    between atoms: C_22  and  O_28
REMARK    9  A    between atoms: C_24  and  O_26
REMARK   10  A    between atoms: O_26  and  C_27
REMARK   11  A    between atoms: O_28  and  C_29
REMARK   12  A    between atoms: N_34  and  C_35
REMARK                            x       y       z     vdW  Elec       q    Type
REMARK                         _______ _______ _______ _____ _____    ______ ____
ROOT
ATOM      1  N   UNL     1       0.030  -2.827  -2.332  0.00  0.00    -0.315 N 
ATOM      2  H   UNL     1       0.043  -3.796  -2.297  0.00  0.00    +0.148 HD
ENDROOT
BRANCH   1   6
ATOM      3  C   UNL     1      -0.018   1.503   0.010  0.00  0.00    +0.066 C 
ATOM      4  C   UNL     1       0.002  -0.004   0.002  0.00  0.00    +0.044 A 
ATOM      5  C   UNL     1       0.006  -0.696  -1.194  0.00  0.00    +0.066 A 
ATOM      6  C   UNL     1       0.026  -2.092  -1.157  0.00  0.00    +0.124 A 
ATOM      7  N   UNL     1       0.040  -2.705   0.021  0.00  0.00    -0.213 NA
ATOM      8  C   UNL     1       0.035  -2.005   1.147  0.00  0.00    +0.162 A 
ATOM      9  N   UNL     1       0.022  -0.679   1.141  0.00  0.00    -0.232 NA
BRANCH   8  10
ATOM     10  C   UNL     1       0.051  -2.722   2.445  0.00  0.00    +0.021 A 
ATOM     11  C   UNL     1       0.076  -4.115   2.474  0.00  0.00    +0.012 A 
ATOM     12  C   UNL     1       0.091  -4.777   3.685  0.00  0.00    +0.003 A 
ATOM     13  C   UNL     1       0.081  -4.061   4.868  0.00  0.00    +0.033 A 
ATOM     14  C   UNL     1       0.055  -2.678   4.845  0.00  0.00    +0.127 A 
ATOM     15  C   UNL     1       0.047  -2.005   3.640  0.00  0.00    +0.044 A 
BRANCH  14  16
ATOM     16  N   UNL     1       0.044  -1.918   6.115  0.00  0.00    +0.056 N 
ATOM     17  O   UNL     1       0.056  -2.506   7.172  0.00  0.00    -0.126 OA
ATOM     18  O   UNL     1       0.022  -0.709   6.097  0.00  0.00    -0.126 OA
ENDBRANCH  14  16
ENDBRANCH   8  10
ENDBRANCH   1   6
BRANCH   1  19
ATOM     19  C   UNL     1       0.013  -2.140  -3.625  0.00  0.00    +0.167 C 
BRANCH  19  20
ATOM     20  C   UNL     1      -1.409  -1.815  -4.004  0.00  0.00    +0.112 A 
ATOM     21  N   UNL     1      -2.454  -2.550  -3.737  0.00  0.00    -0.348 N 
ATOM     22  C   UNL     1      -3.551  -1.951  -4.223  0.00  0.00    +0.102 A 
ATOM     23  C   UNL     1      -3.172  -0.801  -4.813  0.00  0.00    +0.104 A 
ATOM     24  N   UNL     1      -1.813  -0.712  -4.670  0.00  0.00    -0.337 N 
ATOM     25  C   UNL     1      -0.958   0.376  -5.151  0.00  0.00    +0.150 C 
ATOM     26  H   UNL     1      -2.439  -3.395  -3.262  0.00  0.00    +0.167 HD
ENDBRANCH  19  20
BRANCH  19  27
ATOM     27  C   UNL     1       0.621  -3.033  -4.676  0.00  0.00    -0.013 A 
ATOM     28  C   UNL     1       0.342  -4.386  -4.676  0.00  0.00    +0.051 A 
ATOM     29  C   UNL     1       0.900  -5.211  -5.643  0.00  0.00    +0.124 A 
ATOM     30  C   UNL     1       1.738  -4.676  -6.609  0.00  0.00    +0.091 A 
ATOM     31  C   UNL     1       2.017  -3.318  -6.607  0.00  0.00    +0.124 A 
ATOM     32  C   UNL     1       1.452  -2.497  -5.641  0.00  0.00    +0.051 A 
BRANCH  31  33
ATOM     33  O   UNL     1       2.838  -2.791  -7.552  0.00  0.00    -0.495 OA
ATOM     34  C   UNL     1       3.380  -3.694  -8.518  0.00  0.00    +0.277 C 
ENDBRANCH  31  33
BRANCH  29  35
ATOM     35  O   UNL     1       0.625  -6.542  -5.643  0.00  0.00    -0.495 OA
ATOM     36  C   UNL     1       1.235  -7.330  -6.667  0.00  0.00    +0.277 C 
ENDBRANCH  29  35
ENDBRANCH  19  27
ENDBRANCH   1  19
TORSDOF 8
