REMARK  Name = ZINC02695014
REMARK  11 active torsions:
REMARK  status: ('A' for Active; 'I' for Inactive)
REMARK    1  A    between atoms: C_1  and  C_2
REMARK    2  A    between atoms: C_2  and  N_3
REMARK    3  A    between atoms: C_4  and  C_27
REMARK    4  A    between atoms: C_7  and  S_8
REMARK    5  A    between atoms: S_8  and  C_9
REMARK    6  A    between atoms: C_9  and  C_10
REMARK    7  A    between atoms: N_12  and  C_13
REMARK    8  A    between atoms: C_14  and  C_22
REMARK    9  A    between atoms: C_22  and  O_24
REMARK   10  A    between atoms: O_24  and  C_25
REMARK   11  A    between atoms: C_25  and  C_26
REMARK                            x       y       z     vdW  Elec       q    Type
REMARK                         _______ _______ _______ _____ _____    ______ ____
ROOT
ATOM      1  C   UNL     1      -1.629   1.845   0.117  0.00  0.00    +0.173 C 
ENDROOT
BRANCH   1   2
ATOM      2  C   UNL     1      -0.397   0.977   0.134  0.00  0.00    +0.228 C 
ATOM      3  O   UNL     1       0.704   1.486   0.109  0.00  0.00    -0.275 OA
ATOM      4  N   UNL     1      -0.518  -0.365   0.171  0.00  0.00    -0.279 N 
ATOM      5  H   UNL     1      -1.398  -0.772   0.191  0.00  0.00    +0.155 HD
BRANCH   4   6
ATOM      6  C   UNL     1       0.616  -1.163   0.181  0.00  0.00    +0.086 A 
ATOM      7  C   UNL     1       0.695  -2.549   0.223  0.00  0.00    +0.091 A 
ATOM      8  C   UNL     1       2.020  -3.145   0.219  0.00  0.00    -0.021 A 
ATOM      9  C   UNL     1       3.046  -2.268   0.186  0.00  0.00    -0.004 A 
ATOM     10  S   UNL     1       2.277  -0.673   0.152  0.00  0.00    -0.077 S 
ATOM     11  C   UNL     1       4.509  -2.588   0.182  0.00  0.00    +0.043 C 
ATOM     12  C   UNL     1       4.684  -4.056   0.598  0.00  0.00    +0.005 C 
ATOM     13  C   UNL     1       3.706  -4.917  -0.207  0.00  0.00    +0.005 C 
ATOM     14  C   UNL     1       2.273  -4.647   0.256  0.00  0.00    +0.037 C 
BRANCH   7  15
ATOM     15  C   UNL     1      -0.512  -3.378   0.265  0.00  0.00    +0.342 C 
ATOM     16  O   UNL     1      -1.026  -3.755  -0.771  0.00  0.00    -0.245 OA
BRANCH  15  17
ATOM     17  O   UNL     1      -1.052  -3.723   1.451  0.00  0.00    -0.461 OA
BRANCH  17  18
ATOM     18  C   UNL     1      -2.247  -4.546   1.417  0.00  0.00    +0.229 C 
ATOM     19  C   UNL     1      -2.710  -4.833   2.847  0.00  0.00    +0.048 C 
ENDBRANCH  17  18
ENDBRANCH  15  17
ENDBRANCH   7  15
ENDBRANCH   4   6
ENDBRANCH   1   2
BRANCH   1  20
ATOM     20  S   UNL     1      -1.140   3.586   0.067  0.00  0.00    -0.077 S 
BRANCH  20  25
ATOM     21  N   UNL     1      -2.982   5.692   0.019  0.00  0.00    -0.302 N 
ATOM     22  C   UNL     1      -4.352   5.810   0.023  0.00  0.00    +0.165 A 
ATOM     23  N   UNL     1      -4.844   4.594   0.059  0.00  0.00    -0.128 NA
ATOM     24  N   UNL     1      -3.889   3.735   0.071  0.00  0.00    -0.122 NA
ATOM     25  C   UNL     1      -2.728   4.350   0.054  0.00  0.00    +0.192 A 
BRANCH  22  26
ATOM     26  C   UNL     1      -5.125   7.070  -0.007  0.00  0.00    +0.023 A 
ATOM     27  C   UNL     1      -4.520   8.252  -0.436  0.00  0.00    +0.015 A 
ATOM     28  C   UNL     1      -5.243   9.427  -0.464  0.00  0.00    +0.050 A 
ATOM     29  C   UNL     1      -6.572   9.438  -0.066  0.00  0.00    +0.166 A 
ATOM     30  C   UNL     1      -7.183   8.260   0.363  0.00  0.00    +0.167 A 
ATOM     31  C   UNL     1      -6.464   7.079   0.388  0.00  0.00    +0.061 A 
ATOM     32  O   UNL     1      -8.478   8.536   0.695  0.00  0.00    -0.453 OA
ATOM     33  C   UNL     1      -8.771   9.804   0.079  0.00  0.00    +0.466 C 
ATOM     34  O   UNL     1      -7.486  10.450  -0.003  0.00  0.00    -0.453 OA
ENDBRANCH  22  26
BRANCH  21  36
ATOM     35  C   UNL     1      -1.601   7.060  -1.465  0.00  0.00    +0.027 C 
ATOM     36  C   UNL     1      -1.999   6.778  -0.015  0.00  0.00    +0.122 C 
ENDBRANCH  21  36
ENDBRANCH  20  25
ENDBRANCH   1  20
TORSDOF 9
