REMARK  Name = ZINC01065117
REMARK  7 active torsions:
REMARK  status: ('A' for Active; 'I' for Inactive)
REMARK    1  A    between atoms: C_1  and  C_2
REMARK    2  A    between atoms: C_2  and  C_30
REMARK    3  A    between atoms: C_6  and  C_22
REMARK    4  A    between atoms: C_8  and  C_20
REMARK    5  A    between atoms: C_9  and  N_19
REMARK    6  A    between atoms: N_10  and  C_11
REMARK    7  A    between atoms: C_16  and  C_17
REMARK                            x       y       z     vdW  Elec       q    Type
REMARK                         _______ _______ _______ _____ _____    ______ ____
ROOT
ATOM      1  C   UNL     1      -0.019   1.032   2.509  0.00  0.00    +0.011 C 
ATOM      2  C   UNL     1      -0.728   1.579   1.268  0.00  0.00    -0.023 C 
ATOM      3  C   UNL     1      -0.013   1.086   0.008  0.00  0.00    +0.058 C 
ATOM      4  C   UNL     1      -0.741   1.585  -1.215  0.00  0.00    +0.025 C 
ATOM      5  C   UNL     1      -2.076   1.782  -1.197  0.00  0.00    +0.025 C 
ATOM      6  C   UNL     1      -2.806   2.263  -2.426  0.00  0.00    +0.098 C 
ATOM      7  C   UNL     1      -1.858   2.877  -3.413  0.00  0.00    +0.077 C 
ATOM      8  C   UNL     1      -0.522   2.644  -3.342  0.00  0.00    +0.107 C 
ATOM      9  N   UNL     1      -0.013   1.838  -2.349  0.00  0.00    -0.259 N 
ATOM     10  C   UNL     1      -2.828   1.543  -0.033  0.00  0.00    +0.162 C 
ATOM     11  O   UNL     1      -4.030   1.719  -0.053  0.00  0.00    -0.292 OA
ATOM     12  C   UNL     1      -2.173   1.072   1.236  0.00  0.00    +0.086 C 
ATOM     13  C   UNL     1      -0.719   3.108   1.299  0.00  0.00    +0.011 C 
ENDROOT
BRANCH   9  14
ATOM     14  C   UNL     1       1.254   1.273  -2.498  0.00  0.00    +0.057 A 
ATOM     15  C   UNL     1       1.397   0.031  -3.100  0.00  0.00    +0.025 A 
ATOM     16  C   UNL     1       2.652  -0.526  -3.246  0.00  0.00    +0.002 A 
ATOM     17  C   UNL     1       3.775   0.147  -2.794  0.00  0.00    +0.001 A 
ATOM     18  C   UNL     1       3.652   1.382  -2.194  0.00  0.00    +0.021 A 
ATOM     19  C   UNL     1       2.389   1.961  -2.044  0.00  0.00    +0.073 A 
BRANCH  19  20
ATOM     20  C   UNL     1       2.255   3.246  -1.427  0.00  0.00    +0.101 C 
ATOM     21  N   UNL     1       2.148   4.265  -0.937  0.00  0.00    -0.191 NA
ENDBRANCH  19  20
ENDBRANCH   9  14
BRANCH   6  22
ATOM     22  C   UNL     1      -3.504   1.095  -3.074  0.00  0.00    -0.028 A 
ATOM     23  C   UNL     1      -4.878   1.098  -3.230  0.00  0.00    +0.012 A 
ATOM     24  C   UNL     1      -5.475   0.032  -3.817  0.00  0.00    +0.045 A 
ATOM     25  S   UNL     1      -4.080  -1.025  -4.170  0.00  0.00    -0.105 S 
ATOM     26  C   UNL     1      -2.795   0.028  -3.517  0.00  0.00    +0.049 A 
ENDBRANCH   6  22
BRANCH   8  27
ATOM     27  N   UNL     1       0.324   3.215  -4.263  0.00  0.00    -0.345 N 
ATOM     28  H   UNL     1      -0.034   3.783  -4.963  0.00  0.00    +0.144 HD
ATOM     29  H   UNL     1       1.278   3.049  -4.214  0.00  0.00    +0.144 HD
ENDBRANCH   8  27
BRANCH   7  30
ATOM     30  C   UNL     1      -2.371   3.724  -4.448  0.00  0.00    +0.099 C 
ATOM     31  N   UNL     1      -2.777   4.396  -5.269  0.00  0.00    -0.191 NA
ENDBRANCH   7  30
TORSDOF 5
