REMARK  Name = ZINC35519398
REMARK  7 active torsions:
REMARK  status: ('A' for Active; 'I' for Inactive)
REMARK    1  A    between atoms: C_1  and  C_2
REMARK    2  A    between atoms: C_3  and  C_8
REMARK    3  A    between atoms: C_8  and  N_9
REMARK    4  A    between atoms: N_9  and  C_10
REMARK    5  A    between atoms: C_10  and  C_11
REMARK    6  A    between atoms: C_15  and  C_17
REMARK    7  A    between atoms: C_23  and  C_25
REMARK                            x       y       z     vdW  Elec       q    Type
REMARK                         _______ _______ _______ _____ _____    ______ ____
ROOT
ATOM      1  N   UNL     1       3.483   0.426  -1.942  0.00  0.00    -0.287 N 
ATOM      2  C   UNL     1       4.059  -0.401  -1.047  0.00  0.00    +0.247 C 
ATOM      3  O   UNL     1       4.512  -1.469  -1.410  0.00  0.00    -0.270 OA
ENDROOT
BRANCH   2   4
ATOM      4  C   UNL     1       4.138  -0.010   0.374  0.00  0.00    +0.041 A 
ATOM      5  C   UNL     1       2.983   0.371   1.061  0.00  0.00    +0.017 A 
ATOM      6  C   UNL     1       3.057   0.736   2.389  0.00  0.00    +0.050 A 
ATOM      7  C   UNL     1       4.281   0.723   3.042  0.00  0.00    +0.162 A 
ATOM      8  C   UNL     1       5.434   0.345   2.365  0.00  0.00    +0.163 A 
ATOM      9  C   UNL     1       5.370  -0.027   1.037  0.00  0.00    +0.062 A 
ATOM     10  O   UNL     1       6.630   0.337   3.023  0.00  0.00    -0.488 OA
ATOM     11  C   UNL     1       7.145   1.615   3.400  0.00  0.00    +0.232 C 
ATOM     12  C   UNL     1       6.548   2.068   4.723  0.00  0.00    +0.082 C 
ATOM     13  C   UNL     1       5.048   2.303   4.630  0.00  0.00    +0.232 C 
ATOM     14  O   UNL     1       4.359   1.081   4.355  0.00  0.00    -0.488 OA
ENDBRANCH   2   4
BRANCH   1  15
ATOM     15  C   UNL     1       3.385   1.860  -1.657  0.00  0.00    +0.163 C 
BRANCH  15  18
ATOM     16  C   UNL     1       6.186   2.238  -3.003  0.00  0.00    +0.065 C 
ATOM     17  C   UNL     1       5.855   2.489  -1.555  0.00  0.00    +0.035 A 
ATOM     18  C   UNL     1       4.649   2.324  -0.979  0.00  0.00    +0.054 A 
ATOM     19  N   UNL     1       4.790   2.661   0.340  0.00  0.00    -0.348 N 
ATOM     20  H   UNL     1       4.095   2.645   1.016  0.00  0.00    +0.166 HD
ATOM     21  C   UNL     1       6.079   3.019   0.525  0.00  0.00    +0.171 A 
ATOM     22  N   UNL     1       6.711   2.909  -0.612  0.00  0.00    -0.350 N 
ATOM     23  H   UNL     1       7.651   3.103  -0.752  0.00  0.00    +0.166 HD
ENDBRANCH  15  18
ENDBRANCH   1  15
BRANCH   1  24
ATOM     24  C   UNL     1       2.955  -0.108  -3.200  0.00  0.00    +0.143 C 
BRANCH  24  25
ATOM     25  C   UNL     1       4.099  -0.461  -4.115  0.00  0.00    -0.030 A 
ATOM     26  C   UNL     1       3.852  -0.770  -5.441  0.00  0.00    +0.005 A 
ATOM     27  C   UNL     1       4.897  -1.094  -6.287  0.00  0.00    +0.001 A 
ATOM     28  C   UNL     1       6.193  -1.111  -5.812  0.00  0.00    +0.008 A 
ATOM     29  C   UNL     1       6.447  -0.800  -4.478  0.00  0.00    -0.018 A 
ATOM     30  C   UNL     1       5.391  -0.469  -3.631  0.00  0.00    +0.013 A 
BRANCH  29  31
ATOM     31  C   UNL     1       7.838  -0.817  -3.962  0.00  0.00    -0.018 A 
ATOM     32  C   UNL     1       8.092  -0.512  -2.626  0.00  0.00    +0.008 A 
ATOM     33  C   UNL     1       9.388  -0.529  -2.151  0.00  0.00    +0.001 A 
ATOM     34  C   UNL     1      10.434  -0.849  -2.998  0.00  0.00    +0.000 A 
ATOM     35  C   UNL     1      10.187  -1.152  -4.325  0.00  0.00    +0.001 A 
ATOM     36  C   UNL     1       8.895  -1.143  -4.809  0.00  0.00    +0.008 A 
ENDBRANCH  29  31
ENDBRANCH  24  25
ENDBRANCH   1  24
TORSDOF 6
