REMARK  Name = ZINC40379498
REMARK  8 active torsions:
REMARK  status: ('A' for Active; 'I' for Inactive)
REMARK    1  A    between atoms: C_1  and  N_2
REMARK    2  A    between atoms: N_2  and  C_3
REMARK    3  A    between atoms: C_3  and  C_6
REMARK    4  A    between atoms: C_9  and  N_12
REMARK    5  A    between atoms: C_16  and  C_30
REMARK    6  A    between atoms: N_18  and  C_22
REMARK    7  A    between atoms: C_25  and  O_28
REMARK    8  A    between atoms: O_28  and  C_29
REMARK                            x       y       z     vdW  Elec       q    Type
REMARK                         _______ _______ _______ _____ _____    ______ ____
ROOT
ATOM      1  N   UNL     1       5.319   2.372  -3.214  0.00  0.00    -0.266 N 
ATOM      2  C   UNL     1       5.740   3.595  -2.543  0.00  0.00    +0.119 C 
ATOM      3  C   UNL     1       7.260   3.687  -2.381  0.00  0.00    +0.060 C 
ATOM      4  C   UNL     1       7.909   3.300  -3.679  0.00  0.00    +0.022 A 
ATOM      5  C   UNL     1       9.120   3.655  -4.266  0.00  0.00    +0.166 A 
ATOM      6  N   UNL     1       9.200   3.009  -5.422  0.00  0.00    -0.155 NA
ATOM      7  N   UNL     1       8.150   2.283  -5.616  0.00  0.00    -0.226 N 
ATOM      8  C   UNL     1       7.303   2.423  -4.572  0.00  0.00    +0.134 A 
ATOM      9  C   UNL     1       5.981   1.855  -4.275  0.00  0.00    +0.270 C 
ATOM     10  O   UNL     1       5.503   0.966  -4.954  0.00  0.00    -0.268 OA
ENDROOT
BRANCH   1  14
ATOM     11  C   UNL     1       1.950   0.375  -1.795  0.00  0.00    -0.058 A 
ATOM     12  C   UNL     1       3.201  -0.202  -1.663  0.00  0.00    +0.004 A 
ATOM     13  C   UNL     1       4.320   0.458  -2.132  0.00  0.00    +0.024 A 
ATOM     14  C   UNL     1       4.188   1.701  -2.738  0.00  0.00    +0.037 A 
ATOM     15  C   UNL     1       2.931   2.277  -2.868  0.00  0.00    +0.024 A 
ATOM     16  C   UNL     1       1.816   1.610  -2.402  0.00  0.00    +0.004 A 
BRANCH  11  17
ATOM     17  C   UNL     1       0.732  -0.348  -1.281  0.00  0.00    -0.043 C 
ATOM     18  C   UNL     1      -0.421   0.503  -0.745  0.00  0.00    -0.009 C 
ATOM     19  C   UNL     1      -0.561  -0.215  -2.089  0.00  0.00    -0.009 C 
BRANCH  17  21
ATOM     20  C   UNL     1       1.104  -2.691  -1.634  0.00  0.00    -0.099 C 
ATOM     21  N   UNL     1       0.989  -1.634  -0.620  0.00  0.00    +0.384 N 
ATOM     22  H   UNL     1       0.228  -1.849   0.006  0.00  0.00    -0.085 HD
ATOM     23  H   UNL     1       1.849  -1.577  -0.096  0.00  0.00    -0.085 HD
ENDBRANCH  17  21
ENDBRANCH  11  17
ENDBRANCH   1  14
BRANCH   7  24
ATOM     24  C   UNL     1       7.923   1.474  -6.736  0.00  0.00    +0.066 A 
ATOM     25  C   UNL     1       6.679   1.475  -7.354  0.00  0.00    +0.031 A 
ATOM     26  C   UNL     1       6.457   0.678  -8.459  0.00  0.00    +0.048 A 
ATOM     27  C   UNL     1       7.476  -0.125  -8.951  0.00  0.00    +0.120 A 
ATOM     28  C   UNL     1       8.719  -0.128  -8.334  0.00  0.00    +0.048 A 
ATOM     29  C   UNL     1       8.944   0.673  -7.233  0.00  0.00    +0.031 A 
BRANCH  27  30
ATOM     30  O   UNL     1       7.256  -0.910 -10.039  0.00  0.00    -0.495 OA
ATOM     31  C   UNL     1       8.349  -1.712 -10.492  0.00  0.00    +0.277 C 
ENDBRANCH  27  30
ENDBRANCH   7  24
BRANCH   5  32
ATOM     32  C   UNL     1      10.097   4.551  -3.723  0.00  0.00    +0.121 C 
ATOM     33  N   UNL     1      10.872   5.261  -3.293  0.00  0.00    -0.189 NA
ENDBRANCH   5  32
TORSDOF 6
