REMARK  Name = ZINC22458384
REMARK  5 active torsions:
REMARK  status: ('A' for Active; 'I' for Inactive)
REMARK    1  A    between atoms: N_7  and  C_19
REMARK    2  A    between atoms: C_10  and  C_15
REMARK    3  A    between atoms: C_19  and  C_20
REMARK    4  A    between atoms: C_20  and  N_21
REMARK    5  A    between atoms: N_24  and  C_27
REMARK                            x       y       z     vdW  Elec       q    Type
REMARK                         _______ _______ _______ _____ _____    ______ ____
ROOT
ATOM      1  C   UNL     1       2.429  -0.154   6.115  0.00  0.00    +0.126 C 
ENDROOT
BRANCH   1   8
ATOM      2  C   UNL     1       6.564   0.209   6.312  0.00  0.00    +0.002 A 
ATOM      3  C   UNL     1       7.305  -0.643   7.108  0.00  0.00    +0.001 A 
ATOM      4  C   UNL     1       6.665  -1.502   7.983  0.00  0.00    +0.017 A 
ATOM      5  C   UNL     1       5.279  -1.510   8.063  0.00  0.00    +0.034 A 
ATOM      6  C   UNL     1       4.529  -0.657   7.259  0.00  0.00    +0.048 A 
ATOM      7  C   UNL     1       5.184   0.205   6.384  0.00  0.00    +0.024 A 
ATOM      8  N   UNL     1       3.137  -0.639   7.302  0.00  0.00    -0.297 N 
ATOM      9  C   UNL     1       2.368  -1.043   8.390  0.00  0.00    +0.048 A 
ATOM     10  C   UNL     1       1.082  -0.532   8.530  0.00  0.00    +0.037 A 
ATOM     11  C   UNL     1       0.290  -0.916   9.596  0.00  0.00    +0.057 A 
ATOM     12  C   UNL     1       0.771  -1.810  10.533  0.00  0.00    +0.013 A 
ATOM     13  C   UNL     1       2.051  -2.334  10.400  0.00  0.00    +0.017 A 
ATOM     14  C   UNL     1       2.852  -1.947   9.335  0.00  0.00    +0.034 A 
ATOM     15  S   UNL     1       4.481  -2.601   9.192  0.00  0.00    -0.086 S 
BRANCH  11  16
ATOM     16  C   UNL     1      -1.102  -0.356   9.737  0.00  0.00    +0.417 C 
ATOM     17  F   UNL     1      -2.008  -1.186   9.066  0.00  0.00    -0.166 F 
ATOM     18  F   UNL     1      -1.443  -0.292  11.092  0.00  0.00    -0.166 F 
ATOM     19  F   UNL     1      -1.147   0.927   9.182  0.00  0.00    -0.166 F 
ENDBRANCH  11  16
ENDBRANCH   1   8
BRANCH   1  20
ATOM     20  C   UNL     1       2.216   1.357   6.230  0.00  0.00    +0.103 C 
BRANCH  20  21
ATOM     21  N   UNL     1       1.506   1.843   5.040  0.00  0.00    -0.304 NA
ATOM     22  C   UNL     1       1.492   3.312   4.999  0.00  0.00    +0.066 C 
ATOM     23  C   UNL     1       0.677   3.779   3.790  0.00  0.00    -0.063 C 
ATOM     24  N   UNL     1       1.266   3.226   2.563  0.00  0.00    +0.384 N 
ATOM     25  C   UNL     1       1.280   1.757   2.604  0.00  0.00    -0.063 C 
ATOM     26  C   UNL     1       2.095   1.291   3.812  0.00  0.00    +0.066 C 
ATOM     27  H   UNL     1       2.307   3.574   2.499  0.00  0.00    -0.081 HD
BRANCH  24  28
ATOM     28  C   UNL     1       0.555   3.712   1.372  0.00  0.00    -0.062 C 
ATOM     29  C   UNL     1       0.603   5.241   1.340  0.00  0.00    -0.024 C 
ATOM     30  C   UNL     1       2.060   5.705   1.289  0.00  0.00    +0.005 C 
ATOM     31  C   UNL     1       2.729   5.147   0.032  0.00  0.00    -0.010 C 
ATOM     32  C   UNL     1       1.989   5.654  -1.208  0.00  0.00    +0.007 C 
ATOM     33  C   UNL     1       0.532   5.190  -1.157  0.00  0.00    -0.010 C 
ATOM     34  C   UNL     1      -0.137   5.748   0.100  0.00  0.00    +0.005 C 
ATOM     35  C   UNL     1       0.485   3.661  -1.125  0.00  0.00    +0.005 C 
ATOM     36  C   UNL     1       1.225   3.154   0.115  0.00  0.00    -0.024 C 
ATOM     37  C   UNL     1       2.682   3.618   0.064  0.00  0.00    +0.005 C 
ENDBRANCH  24  28
ENDBRANCH  20  21
ENDBRANCH   1  20
TORSDOF 5
