REMARK  Name = ZINC22089869
REMARK  13 active torsions:
REMARK  status: ('A' for Active; 'I' for Inactive)
REMARK    1  A    between atoms: C_1  and  C_2
REMARK    2  A    between atoms: C_2  and  O_3
REMARK    3  A    between atoms: O_3  and  C_4
REMARK    4  A    between atoms: C_4  and  C_6
REMARK    5  A    between atoms: C_7  and  C_28
REMARK    6  A    between atoms: C_8  and  C_24
REMARK    7  A    between atoms: C_10  and  N_11
REMARK    8  A    between atoms: C_12  and  C_14
REMARK    9  A    between atoms: C_14  and  S_15
REMARK   10  A    between atoms: S_15  and  C_16
REMARK   11  A    between atoms: C_18  and  C_23
REMARK   12  A    between atoms: C_20  and  N_22
REMARK   13  A    between atoms: N_26  and  C_27
REMARK                            x       y       z     vdW  Elec       q    Type
REMARK                         _______ _______ _______ _____ _____    ______ ____
ROOT
ATOM      1  C   UNL     1      -1.248  -2.099   0.003  0.00  0.00    +0.091 A 
ATOM      2  C   UNL     1      -1.259  -2.822   1.186  0.00  0.00    -0.015 A 
ATOM      3  C   UNL     1      -1.318  -4.186   1.097  0.00  0.00    +0.079 A 
ATOM      4  S   UNL     1      -1.345  -4.463  -0.664  0.00  0.00    -0.068 S 
ATOM      5  C   UNL     1      -1.287  -2.815  -1.198  0.00  0.00    +0.087 A 
ATOM      6  C   UNL     1      -1.214  -2.129   2.524  0.00  0.00    +0.046 C 
ENDROOT
BRANCH   3   7
ATOM      7  C   UNL     1      -1.345  -5.173   2.178  0.00  0.00    +0.251 C 
ATOM      8  O   UNL     1      -1.320  -4.805   3.338  0.00  0.00    -0.270 OA
ATOM      9  N   UNL     1      -1.399  -6.488   1.889  0.00  0.00    -0.314 N 
ATOM     10  C   UNL     1      -1.427  -7.475   2.971  0.00  0.00    +0.128 C 
ATOM     11  H   UNL     1      -1.422  -6.820   0.841  0.00  0.00    +0.149 HD
ENDBRANCH   3   7
BRANCH   5  12
ATOM     12  N   UNL     1      -1.280  -2.329  -2.491  0.00  0.00    -0.279 N 
ATOM     13  C   UNL     1      -1.323  -3.183  -3.533  0.00  0.00    +0.228 C 
ATOM     14  O   UNL     1      -1.367  -4.379  -3.334  0.00  0.00    -0.275 OA
ATOM     15  H   UNL     1      -1.240  -1.244  -2.671  0.00  0.00    +0.155 HD
BRANCH  13  16
ATOM     16  C   UNL     1      -1.315  -2.653  -4.943  0.00  0.00    +0.173 C 
BRANCH  16  17
ATOM     17  S   UNL     1      -1.380  -4.037  -6.108  0.00  0.00    -0.077 S 
BRANCH  17  18
ATOM     18  C   UNL     1      -1.360  -3.154  -7.633  0.00  0.00    +0.191 A 
ATOM     19  N   UNL     1      -1.391  -3.831  -8.772  0.00  0.00    -0.227 NA
ATOM     20  C   UNL     1      -1.383  -3.202  -9.938  0.00  0.00    +0.044 A 
ATOM     21  C   UNL     1      -1.330  -1.822  -9.961  0.00  0.00    +0.066 A 
ATOM     22  C   UNL     1      -1.292  -1.136  -8.746  0.00  0.00    +0.121 A 
ATOM     23  N   UNL     1      -1.309  -1.830  -7.612  0.00  0.00    -0.207 NA
ATOM     24  C   UNL     1      -1.426  -3.984 -11.226  0.00  0.00    +0.066 C 
BRANCH  22  25
ATOM     25  N   UNL     1      -1.239   0.248  -8.721  0.00  0.00    -0.343 N 
ATOM     26  H   UNL     1      -1.209   0.781  -7.759  0.00  0.00    +0.144 HD
ATOM     27  H   UNL     1      -1.226   0.815  -9.664  0.00  0.00    +0.144 HD
ENDBRANCH  22  25
ENDBRANCH  17  18
ENDBRANCH  16  17
ENDBRANCH  13  16
ENDBRANCH   5  12
BRANCH   1  28
ATOM     28  C   UNL     1      -1.191  -0.632   0.010  0.00  0.00    +0.342 C 
ATOM     29  O   UNL     1      -2.220   0.016   0.023  0.00  0.00    -0.245 OA
BRANCH  28  30
ATOM     30  O   UNL     1       0.002  -0.004   0.002  0.00  0.00    -0.461 OA
BRANCH  30  32
ATOM     31  C   UNL     1       1.418   1.977  -0.001  0.00  0.00    +0.048 C 
ATOM     32  C   UNL     1      -0.018   1.448   0.010  0.00  0.00    +0.229 C 
ENDBRANCH  30  32
ENDBRANCH  28  30
ENDBRANCH   1  28
TORSDOF 9
