REMARK  Name = ZINC02429908
REMARK  7 active torsions:
REMARK  status: ('A' for Active; 'I' for Inactive)
REMARK    1  A    between atoms: C_1  and  C_2
REMARK    2  A    between atoms: C_10  and  C_18
REMARK    3  A    between atoms: C_21  and  O_26
REMARK    4  A    between atoms: C_22  and  O_24
REMARK    5  A    between atoms: O_24  and  C_25
REMARK    6  A    between atoms: O_26  and  C_27
REMARK    7  A    between atoms: C_28  and  C_31
REMARK                            x       y       z     vdW  Elec       q    Type
REMARK                         _______ _______ _______ _____ _____    ______ ____
ROOT
ATOM      1  C   UNL     1      -0.018   1.503   0.010  0.00  0.00    +0.044 C 
ATOM      2  C   UNL     1       0.002  -0.004   0.002  0.00  0.00    -0.050 A 
ATOM      3  C   UNL     1       0.006  -0.687  -1.202  0.00  0.00    +0.007 A 
ATOM      4  C   UNL     1       0.025  -2.070  -1.225  0.00  0.00    +0.046 A 
ATOM      5  C   UNL     1       0.041  -2.779  -0.037  0.00  0.00    +0.131 A 
ATOM      6  C   UNL     1       0.037  -2.087   1.181  0.00  0.00    +0.043 A 
ATOM      7  C   UNL     1       0.023  -0.699   1.196  0.00  0.00    +0.017 A 
ATOM      8  C   UNL     1       0.060  -2.876   2.439  0.00  0.00    +0.083 C 
ATOM      9  C   UNL     1       0.405  -4.177   2.351  0.00  0.00    +0.027 C 
ATOM     10  C   UNL     1       0.424  -4.997   3.622  0.00  0.00    +0.159 C 
ATOM     11  N   UNL     1       0.058  -4.283   4.852  0.00  0.00    -0.208 N 
ATOM     12  C   UNL     1      -0.268  -2.944   4.775  0.00  0.00    +0.237 C 
ATOM     13  N   UNL     1      -0.258  -2.307   3.628  0.00  0.00    -0.213 NA
ATOM     14  N   UNL     1      -0.559  -2.538   6.031  0.00  0.00    -0.205 NA
ATOM     15  C   UNL     1      -0.436  -3.530   6.869  0.00  0.00    +0.203 C 
ATOM     16  N   UNL     1      -0.053  -4.649   6.195  0.00  0.00    -0.251 N 
ATOM     17  C   UNL     1       0.768  -4.783   1.027  0.00  0.00    +0.234 C 
ATOM     18  O   UNL     1       0.056  -4.136  -0.030  0.00  0.00    -0.479 OA
ATOM     19  H   UNL     1       0.110  -5.528   6.573  0.00  0.00    +0.171 HD
ENDROOT
BRANCH  17  20
ATOM     20  C   UNL     1       2.248  -4.625   0.795  0.00  0.00    -0.002 A 
ATOM     21  C   UNL     1       2.753  -3.417   0.349  0.00  0.00    +0.007 A 
ATOM     22  C   UNL     1       4.111  -3.271   0.137  0.00  0.00    +0.002 A 
ATOM     23  C   UNL     1       4.965  -4.333   0.369  0.00  0.00    +0.020 A 
ATOM     24  C   UNL     1       4.461  -5.541   0.814  0.00  0.00    +0.041 A 
ATOM     25  C   UNL     1       3.102  -5.685   1.033  0.00  0.00    +0.027 A 
ATOM     26 CL   UNL     1       5.533  -6.875   1.106  0.00  0.00    -0.084 Cl
ENDBRANCH  17  20
BRANCH  10  27
ATOM     27  C   UNL     1       1.812  -5.555   3.802  0.00  0.00    -0.017 A 
ATOM     28  C   UNL     1       2.812  -4.759   4.328  0.00  0.00    +0.009 A 
ATOM     29  C   UNL     1       4.088  -5.266   4.495  0.00  0.00    +0.050 A 
ATOM     30  C   UNL     1       4.365  -6.575   4.135  0.00  0.00    +0.162 A 
ATOM     31  C   UNL     1       3.358  -7.376   3.606  0.00  0.00    +0.162 A 
ATOM     32  C   UNL     1       2.081  -6.863   3.445  0.00  0.00    +0.055 A 
BRANCH  31  33
ATOM     33  O   UNL     1       3.626  -8.661   3.251  0.00  0.00    -0.491 OA
ATOM     34  C   UNL     1       2.544  -9.425   2.714  0.00  0.00    +0.277 C 
ENDBRANCH  31  33
BRANCH  30  35
ATOM     35  O   UNL     1       5.619  -7.075   4.298  0.00  0.00    -0.491 OA
ATOM     36  C   UNL     1       6.603  -6.195   4.847  0.00  0.00    +0.277 C 
ENDBRANCH  30  35
ENDBRANCH  10  27
TORSDOF 4
