REMARK  Name = ZINC06405576
REMARK  10 active torsions:
REMARK  status: ('A' for Active; 'I' for Inactive)
REMARK    1  A    between atoms: C_1  and  C_2
REMARK    2  A    between atoms: C_5  and  C_39
REMARK    3  A    between atoms: C_9  and  C_14
REMARK    4  A    between atoms: C_14  and  C_16
REMARK    5  A    between atoms: C_14  and  N_70
REMARK    6  A    between atoms: N_20  and  C_21
REMARK    7  A    between atoms: C_27  and  C_28
REMARK    8  A    between atoms: C_27  and  N_70
REMARK    9  A    between atoms: C_33  and  C_34
REMARK   10  A    between atoms: C_33  and  N_70
REMARK                            x       y       z     vdW  Elec       q    Type
REMARK                         _______ _______ _______ _____ _____    ______ ____
ROOT
ATOM      1  C   UNL     1       4.013   0.909   0.126  0.00  0.00    +0.040 C 
ENDROOT
BRANCH   1  10
ATOM      2  C   UNL     1       7.969  -0.608  -2.902  0.00  0.00    +0.044 C 
ATOM      3  C   UNL     1       7.304   0.559  -3.585  0.00  0.00    -0.041 A 
ATOM      4  C   UNL     1       7.779   1.014  -4.783  0.00  0.00    +0.004 A 
ATOM      5  C   UNL     1       7.173   2.088  -5.420  0.00  0.00    +0.005 A 
ATOM      6  C   UNL     1       6.082   2.716  -4.859  0.00  0.00    -0.026 A 
ATOM      7  C   UNL     1       5.581   2.270  -3.640  0.00  0.00    +0.052 A 
ATOM      8  C   UNL     1       6.198   1.181  -2.996  0.00  0.00    +0.002 A 
ATOM      9  C   UNL     1       5.663   0.718  -1.714  0.00  0.00    +0.018 A 
ATOM     10  C   UNL     1       4.589   1.359  -1.192  0.00  0.00    +0.011 A 
ATOM     11  C   UNL     1       4.003   2.443  -1.881  0.00  0.00    +0.251 A 
ATOM     12  O   UNL     1       3.035   3.002  -1.396  0.00  0.00    -0.268 OA
ATOM     13  N   UNL     1       4.491   2.879  -3.056  0.00  0.00    -0.322 N 
ATOM     14  H   UNL     1       4.067   3.629  -3.501  0.00  0.00    +0.169 HD
ATOM     15  C   UNL     1       5.434   3.880  -5.563  0.00  0.00    +0.046 C 
ENDBRANCH   1  10
BRANCH   1  16
ATOM     16  C   UNL     1       2.586   0.469  -0.073  0.00  0.00    +0.143 A 
ATOM     17  N   UNL     1       1.545   1.246  -0.248  0.00  0.00    -0.115 NA
ATOM     18  N   UNL     1       0.506   0.496  -0.381  0.00  0.00    -0.023 NA
ATOM     19  N   UNL     1       0.857  -0.740  -0.295  0.00  0.00    -0.044 NA
ATOM     20  N   UNL     1       2.132  -0.797  -0.105  0.00  0.00    -0.227 N 
BRANCH  20  21
ATOM     21  C   UNL     1       2.934  -2.014   0.048  0.00  0.00    +0.111 C 
ATOM     22  C   UNL     1       2.753  -2.902  -1.184  0.00  0.00    +0.027 C 
ATOM     23  C   UNL     1       3.591  -4.173  -1.025  0.00  0.00    +0.002 C 
ATOM     24  C   UNL     1       3.135  -4.931   0.223  0.00  0.00    +0.000 C 
ATOM     25  C   UNL     1       3.317  -4.042   1.455  0.00  0.00    +0.002 C 
ATOM     26  C   UNL     1       2.479  -2.772   1.296  0.00  0.00    +0.027 C 
ENDBRANCH  20  21
ENDBRANCH   1  16
BRANCH   1  27
ATOM     27  N   UNL     1       4.036   2.042   1.075  0.00  0.00    +0.397 N 
ATOM     28  H   UNL     1       3.399   2.773   0.736  0.00  0.00    -0.079 HD
BRANCH  27  29
ATOM     29  C   UNL     1       5.402   2.599   1.163  0.00  0.00    -0.001 C 
BRANCH  29  30
ATOM     30  C   UNL     1       5.498   3.782   0.235  0.00  0.00    +0.089 A 
ATOM     31  C   UNL     1       5.082   5.032   0.508  0.00  0.00    +0.042 A 
ATOM     32  C   UNL     1       5.362   5.816  -0.634  0.00  0.00    +0.041 A 
ATOM     33  C   UNL     1       5.933   4.998  -1.537  0.00  0.00    +0.195 A 
ATOM     34  O   UNL     1       6.018   3.769  -1.003  0.00  0.00    -0.470 OA
ENDBRANCH  29  30
ENDBRANCH  27  29
BRANCH  27  35
ATOM     35  C   UNL     1       3.586   1.593   2.409  0.00  0.00    -0.034 C 
BRANCH  35  36
ATOM     36  C   UNL     1       2.079   1.558   2.422  0.00  0.00    -0.027 A 
ATOM     37  C   UNL     1       1.250   0.485   2.408  0.00  0.00    +0.009 A 
ATOM     38  C   UNL     1      -0.116   0.694   2.426  0.00  0.00    +0.008 A 
ATOM     39  C   UNL     1      -0.587   1.964   2.457  0.00  0.00    +0.045 A 
ATOM     40  S   UNL     1       0.923   2.917   2.469  0.00  0.00    -0.103 S 
ENDBRANCH  35  36
ENDBRANCH  27  35
ENDBRANCH   1  27
TORSDOF 8
