REMARK  Name = ZINC39559540
REMARK  11 active torsions:
REMARK  status: ('A' for Active; 'I' for Inactive)
REMARK    1  A    between atoms: C_1  and  O_2
REMARK    2  A    between atoms: O_2  and  C_3
REMARK    3  A    between atoms: C_5  and  C_13
REMARK    4  A    between atoms: C_6  and  O_11
REMARK    5  A    between atoms: C_8  and  O_9
REMARK    6  A    between atoms: O_9  and  C_10
REMARK    7  A    between atoms: O_11  and  C_12
REMARK    8  A    between atoms: C_14  and  C_15
REMARK    9  A    between atoms: N_17  and  C_18
REMARK   10  A    between atoms: C_18  and  C_19
REMARK   11  A    between atoms: N_21  and  C_22
REMARK                            x       y       z     vdW  Elec       q    Type
REMARK                         _______ _______ _______ _____ _____    ______ ____
ROOT
ATOM      1  C   UNL     1      -6.004   2.327   0.041  0.00  0.00    +0.237 C 
ATOM      2  O   UNL     1      -7.080   1.756   0.039  0.00  0.00    -0.271 OA
ATOM      3  N   UNL     1      -5.956   3.674   0.049  0.00  0.00    -0.303 N 
ATOM      4  H   UNL     1      -5.099   4.128   0.051  0.00  0.00    +0.149 HD
ENDROOT
BRANCH   1   6
ATOM      5  C   UNL     1      -4.851   0.223   0.027  0.00  0.00    +0.017 C 
ATOM      6  C   UNL     1      -4.803   1.574   0.035  0.00  0.00    +0.068 C 
BRANCH   5   9
ATOM      7  C   UNL     1      -1.203  -0.639   0.018  0.00  0.00    +0.162 A 
ATOM      8  C   UNL     1      -2.368   0.098   0.024  0.00  0.00    +0.061 A 
ATOM      9  C   UNL     1      -3.607  -0.555   0.021  0.00  0.00    +0.020 A 
ATOM     10  C   UNL     1      -3.654  -1.960   0.013  0.00  0.00    +0.131 A 
ATOM     11  C   UNL     1      -2.478  -2.688   0.008  0.00  0.00    +0.095 A 
ATOM     12  C   UNL     1      -1.255  -2.034   0.004  0.00  0.00    +0.165 A 
BRANCH   7  14
ATOM     13  C   UNL     1      -0.018   1.424   0.035  0.00  0.00    +0.277 C 
ATOM     14  O   UNL     1       0.001  -0.005   0.021  0.00  0.00    -0.491 OA
ENDBRANCH   7  14
BRANCH  12  15
ATOM     15  O   UNL     1      -0.103  -2.753  -0.006  0.00  0.00    -0.491 OA
ATOM     16  C   UNL     1      -0.228  -4.177  -0.020  0.00  0.00    +0.277 C 
ENDBRANCH  12  15
BRANCH  10  17
ATOM     17  O   UNL     1      -4.851  -2.600   0.011  0.00  0.00    -0.494 OA
ATOM     18  C   UNL     1      -4.822  -4.029   0.003  0.00  0.00    +0.277 C 
ENDBRANCH  10  17
ENDBRANCH   5   9
ENDBRANCH   1   6
BRANCH   3  19
ATOM     19  C   UNL     1      -7.198   4.451   0.056  0.00  0.00    +0.200 C 
BRANCH  19  20
ATOM     20  C   UNL     1      -6.869   5.922   0.064  0.00  0.00    +0.234 C 
ATOM     21  O   UNL     1      -5.712   6.285   0.065  0.00  0.00    -0.274 OA
ATOM     22  N   UNL     1      -7.862   6.834   0.071  0.00  0.00    -0.284 N 
ATOM     23  H   UNL     1      -8.785   6.546   0.003  0.00  0.00    +0.155 HD
BRANCH  22  24
ATOM     24  C   UNL     1      -7.559   8.197   0.176  0.00  0.00    +0.036 A 
ATOM     25  C   UNL     1      -8.404   9.043   0.887  0.00  0.00    +0.025 A 
ATOM     26  C   UNL     1      -8.111  10.387   0.994  0.00  0.00    +0.029 A 
ATOM     27  C   UNL     1      -6.971  10.898   0.392  0.00  0.00    +0.067 A 
ATOM     28  C   UNL     1      -6.120  10.051  -0.322  0.00  0.00    +0.069 A 
ATOM     29  C   UNL     1      -6.414   8.701  -0.423  0.00  0.00    +0.051 A 
ATOM     30  N   UNL     1      -5.078  10.840  -0.802  0.00  0.00    -0.306 N 
ATOM     31  H   UNL     1      -4.330  10.529  -1.336  0.00  0.00    +0.170 HD
ATOM     32  C   UNL     1      -5.284  12.108  -0.399  0.00  0.00    +0.325 A 
ATOM     33  O   UNL     1      -4.555  13.050  -0.650  0.00  0.00    -0.247 OA
ATOM     34  N   UNL     1      -6.418  12.176   0.323  0.00  0.00    -0.306 N 
ATOM     35  H   UNL     1      -6.787  12.977   0.727  0.00  0.00    +0.170 HD
ENDBRANCH  22  24
ENDBRANCH  19  20
ENDBRANCH   3  19
TORSDOF 8
