REMARK  Name = ZINC35745382
REMARK  17 active torsions:
REMARK  status: ('A' for Active; 'I' for Inactive)
REMARK    1  A    between atoms: C_1  and  C_2
REMARK    2  A    between atoms: C_6  and  C_8
REMARK    3  A    between atoms: C_8  and  N_9
REMARK    4  A    between atoms: N_9  and  C_10
REMARK    5  A    between atoms: N_9  and  C_34
REMARK    6  A    between atoms: C_10  and  C_11
REMARK    7  A    between atoms: C_14  and  C_16
REMARK    8  A    between atoms: C_16  and  C_17
REMARK    9  A    between atoms: C_16  and  C_25
REMARK   10  A    between atoms: C_16  and  O_33
REMARK   11  A    between atoms: C_20  and  O_23
REMARK   12  A    between atoms: O_23  and  C_24
REMARK   13  A    between atoms: C_28  and  O_31
REMARK   14  A    between atoms: O_31  and  C_32
REMARK   15  A    between atoms: C_34  and  C_35
REMARK   16  A    between atoms: C_35  and  C_36
REMARK   17  A    between atoms: C_35  and  C_37
REMARK                            x       y       z     vdW  Elec       q    Type
REMARK                         _______ _______ _______ _____ _____    ______ ____
ROOT
ATOM      1  C   UNL     1       3.718  -3.333   5.539  0.00  0.00    +0.089 A 
ATOM      2  C   UNL     1       4.795  -2.858   6.189  0.00  0.00    +0.043 A 
ATOM      3  C   UNL     1       5.868  -3.732   5.899  0.00  0.00    +0.048 A 
ATOM      4  C   UNL     1       5.382  -4.690   5.089  0.00  0.00    +0.146 A 
ATOM      5  O   UNL     1       4.078  -4.446   4.879  0.00  0.00    -0.463 OA
ENDROOT
BRANCH   1   6
ATOM      6  C   UNL     1       2.340  -2.724   5.553  0.00  0.00    -0.003 C 
BRANCH   6   7
ATOM      7  N   UNL     1       2.218  -1.763   4.449  0.00  0.00    +0.387 N 
ATOM      8  H   UNL     1       2.959  -1.082   4.513  0.00  0.00    -0.081 HD
BRANCH   7   9
ATOM      9  C   UNL     1       0.919  -1.082   4.534  0.00  0.00    -0.042 C 
BRANCH   9  15
ATOM     10  C   UNL     1      -0.409  -0.519   9.326  0.00  0.00    +0.044 C 
ATOM     11  C   UNL     1       0.236   0.026   8.078  0.00  0.00    -0.050 A 
ATOM     12  C   UNL     1       0.785   1.294   8.081  0.00  0.00    +0.003 A 
ATOM     13  C   UNL     1       1.377   1.794   6.937  0.00  0.00    +0.000 A 
ATOM     14  C   UNL     1       1.420   1.025   5.789  0.00  0.00    +0.002 A 
ATOM     15  C   UNL     1       0.872  -0.244   5.786  0.00  0.00    -0.064 A 
ATOM     16  C   UNL     1       0.284  -0.745   6.932  0.00  0.00    +0.005 A 
ENDBRANCH   9  15
ENDBRANCH   7   9
BRANCH   7  17
ATOM     17  C   UNL     1       2.314  -2.475   3.168  0.00  0.00    -0.075 C 
BRANCH  17  18
ATOM     18  C   UNL     1       2.334  -1.461   2.022  0.00  0.00    -0.034 C 
ATOM     19  C   UNL     1       3.602  -0.610   2.115  0.00  0.00    +0.005 C 
ATOM     20  C   UNL     1       2.315  -2.204   0.684  0.00  0.00    +0.005 C 
ENDBRANCH  17  18
ENDBRANCH   7  17
ENDBRANCH   6   7
ENDBRANCH   1   6
BRANCH   4  21
ATOM     21  C   UNL     1       6.166  -5.843   4.519  0.00  0.00    +0.174 C 
BRANCH  21  22
ATOM     22  C   UNL     1       5.250  -7.023   4.318  0.00  0.00    -0.004 A 
ATOM     23  C   UNL     1       5.475  -8.198   5.012  0.00  0.00    +0.011 A 
ATOM     24  C   UNL     1       4.637  -9.281   4.829  0.00  0.00    +0.046 A 
ATOM     25  C   UNL     1       3.569  -9.189   3.949  0.00  0.00    +0.120 A 
ATOM     26  C   UNL     1       3.345  -8.009   3.254  0.00  0.00    +0.046 A 
ATOM     27  C   UNL     1       4.183  -6.927   3.444  0.00  0.00    +0.011 A 
BRANCH  25  28
ATOM     28  O   UNL     1       2.743 -10.253   3.767  0.00  0.00    -0.495 OA
ATOM     29  C   UNL     1       1.664 -10.086   2.845  0.00  0.00    +0.277 C 
ENDBRANCH  25  28
ENDBRANCH  21  22
BRANCH  21  30
ATOM     30  C   UNL     1       6.763  -5.440   3.196  0.00  0.00    -0.004 A 
ATOM     31  C   UNL     1       6.014  -4.703   2.297  0.00  0.00    +0.011 A 
ATOM     32  C   UNL     1       6.559  -4.332   1.083  0.00  0.00    +0.046 A 
ATOM     33  C   UNL     1       7.859  -4.699   0.766  0.00  0.00    +0.120 A 
ATOM     34  C   UNL     1       8.608  -5.438   1.670  0.00  0.00    +0.046 A 
ATOM     35  C   UNL     1       8.061  -5.802   2.885  0.00  0.00    +0.011 A 
BRANCH  33  36
ATOM     36  O   UNL     1       8.397  -4.336  -0.428  0.00  0.00    -0.495 OA
ATOM     37  C   UNL     1       9.740  -4.748  -0.686  0.00  0.00    +0.277 C 
ENDBRANCH  33  36
ENDBRANCH  21  30
BRANCH  21  38
ATOM     38  O   UNL     1       7.213  -6.202   5.424  0.00  0.00    -0.372 OA
ATOM     39  H   UNL     1       6.901  -6.473   6.298  0.00  0.00    +0.212 HD
ENDBRANCH  21  38
ENDBRANCH   4  21
TORSDOF 12
