REMARK  Name = ZINC35775043
REMARK  11 active torsions:
REMARK  status: ('A' for Active; 'I' for Inactive)
REMARK    1  A    between atoms: C_1  and  C_2
REMARK    2  A    between atoms: C_2  and  C_3
REMARK    3  A    between atoms: C_2  and  C_4
REMARK    4  A    between atoms: C_4  and  N_5
REMARK    5  A    between atoms: N_5  and  C_6
REMARK    6  A    between atoms: C_6  and  C_7
REMARK    7  A    between atoms: N_9  and  C_10
REMARK    8  A    between atoms: N_9  and  C_20
REMARK    9  A    between atoms: C_10  and  C_11
REMARK   10  A    between atoms: C_20  and  C_21
REMARK   11  A    between atoms: N_28  and  C_29
REMARK                            x       y       z     vdW  Elec       q    Type
REMARK                         _______ _______ _______ _____ _____    ______ ____
ROOT
ATOM      1  C   UNL     1      -2.786  -3.148   1.538  0.00  0.00    +0.234 C 
ATOM      2  O   UNL     1      -3.735  -2.712   0.921  0.00  0.00    -0.274 OA
ATOM      3  N   UNL     1      -2.986  -3.913   2.629  0.00  0.00    -0.291 N 
ENDROOT
BRANCH   1   4
ATOM      4  C   UNL     1      -1.384  -2.835   1.084  0.00  0.00    +0.205 C 
BRANCH   4   5
ATOM      5  N   UNL     1      -1.435  -1.994  -0.115  0.00  0.00    -0.276 N 
ATOM      6  C   UNL     1      -1.462  -2.563  -1.337  0.00  0.00    +0.307 C 
ATOM      7  O   UNL     1      -1.444  -3.774  -1.444  0.00  0.00    -0.252 OA
ATOM      8  N   UNL     1      -1.509  -1.790  -2.439  0.00  0.00    -0.267 N 
ATOM      9  H   UNL     1      -1.588  -0.827  -2.353  0.00  0.00    +0.156 HD
BRANCH   8  10
ATOM     10  C   UNL     1      -1.443  -2.376  -3.709  0.00  0.00    +0.070 A 
ATOM     11  C   UNL     1      -2.025  -3.616  -3.934  0.00  0.00    +0.026 A 
ATOM     12  C   UNL     1      -1.959  -4.192  -5.188  0.00  0.00    +0.002 A 
ATOM     13  C   UNL     1      -1.314  -3.536  -6.220  0.00  0.00    +0.003 A 
ATOM     14  C   UNL     1      -0.733  -2.300  -6.001  0.00  0.00    +0.040 A 
ATOM     15  C   UNL     1      -0.800  -1.715  -4.750  0.00  0.00    +0.145 A 
ATOM     16  F   UNL     1      -0.238  -0.505  -4.538  0.00  0.00    -0.204 F 
ENDBRANCH   8  10
BRANCH   5  17
ATOM     17  C   UNL     1      -1.457  -0.535   0.014  0.00  0.00    +0.113 C 
BRANCH  17  19
ATOM     18  C   UNL     1      -0.047   1.528   0.025  0.00  0.00    +0.009 C 
ATOM     19  C   UNL     1      -0.022  -0.002   0.015  0.00  0.00    +0.000 C 
ATOM     20  C   UNL     1       0.709  -0.507   1.261  0.00  0.00    +0.009 C 
ENDBRANCH  17  19
ENDBRANCH   5  17
ENDBRANCH   4   5
ENDBRANCH   1   4
BRANCH   3  21
ATOM     21  C   UNL     1      -4.349  -4.218   3.071  0.00  0.00    +0.143 C 
BRANCH  21  22
ATOM     22  C   UNL     1      -4.821  -5.485   2.406  0.00  0.00    -0.026 A 
ATOM     23  C   UNL     1      -5.471  -5.425   1.187  0.00  0.00    +0.009 A 
ATOM     24  C   UNL     1      -5.905  -6.585   0.574  0.00  0.00    +0.050 A 
ATOM     25  C   UNL     1      -5.690  -7.812   1.180  0.00  0.00    +0.166 A 
ATOM     26  C   UNL     1      -5.036  -7.873   2.408  0.00  0.00    +0.167 A 
ATOM     27  C   UNL     1      -4.598  -6.707   3.014  0.00  0.00    +0.054 A 
ATOM     28  O   UNL     1      -4.948  -9.180   2.791  0.00  0.00    -0.453 OA
ATOM     29  C   UNL     1      -5.914  -9.882   1.986  0.00  0.00    +0.466 C 
ATOM     30  O   UNL     1      -6.012  -9.081   0.794  0.00  0.00    -0.453 OA
ENDBRANCH  21  22
ENDBRANCH   3  21
BRANCH   3  31
ATOM     31  C   UNL     1      -1.840  -4.440   3.374  0.00  0.00    +0.150 C 
BRANCH  31  32
ATOM     32  C   UNL     1      -1.442  -3.457   4.446  0.00  0.00    +0.007 A 
ATOM     33  C   UNL     1      -1.869  -3.376   5.730  0.00  0.00    +0.013 A 
ATOM     34  C   UNL     1      -1.361  -2.380   6.543  0.00  0.00    +0.008 A 
ATOM     35  C   UNL     1      -0.451  -1.515   6.032  0.00  0.00    +0.045 A 
ATOM     36  S   UNL     1      -0.282  -2.104   4.355  0.00  0.00    -0.100 S 
ENDBRANCH  31  32
ENDBRANCH   3  31
TORSDOF 9
