REMARK  Name = ZINC35973767
REMARK  9 active torsions:
REMARK  status: ('A' for Active; 'I' for Inactive)
REMARK    1  A    between atoms: C_1  and  C_2
REMARK    2  A    between atoms: C_2  and  C_3
REMARK    3  A    between atoms: C_3  and  C_5
REMARK    4  A    between atoms: C_3  and  O_6
REMARK    5  A    between atoms: O_6  and  C_7
REMARK    6  A    between atoms: C_7  and  C_9
REMARK    7  A    between atoms: C_10  and  C_37
REMARK    8  A    between atoms: C_14  and  C_16
REMARK    9  A    between atoms: C_27  and  C_30
REMARK                            x       y       z     vdW  Elec       q    Type
REMARK                         _______ _______ _______ _____ _____    ______ ____
ROOT
ATOM      1  C   UNL     1      -4.134   0.576  -2.266  0.00  0.00    +0.065 C 
ATOM      2  C   UNL     1      -5.476   0.502  -2.254  0.00  0.00    +0.016 C 
ATOM      3  N   UNL     1      -6.190   0.683  -3.406  0.00  0.00    -0.321 N 
ATOM      4  C   UNL     1      -5.588   0.549  -4.628  0.00  0.00    +0.016 C 
ATOM      5  C   UNL     1      -4.245   0.620  -4.743  0.00  0.00    +0.024 C 
ATOM      6  C   UNL     1      -3.381   0.870  -3.530  0.00  0.00    +0.092 C 
ATOM      7  C   UNL     1      -3.614   0.467  -5.990  0.00  0.00    +0.162 C 
ATOM      8  O   UNL     1      -2.403   0.545  -6.059  0.00  0.00    -0.292 OA
ATOM      9  C   UNL     1      -4.410   0.209  -7.240  0.00  0.00    +0.088 C 
ATOM     10  C   UNL     1      -5.703  -0.522  -6.866  0.00  0.00    +0.032 C 
ATOM     11  C   UNL     1      -6.460   0.323  -5.839  0.00  0.00    +0.059 C 
ATOM     12  C   UNL     1      -6.199   0.217  -0.963  0.00  0.00    +0.061 C 
ATOM     13  H   UNL     1      -7.132   0.910  -3.357  0.00  0.00    +0.152 HD
ENDROOT
BRANCH   6  14
ATOM     14  C   UNL     1      -2.941   2.312  -3.519  0.00  0.00    -0.034 A 
ATOM     15  C   UNL     1      -3.882   3.321  -3.436  0.00  0.00    +0.006 A 
ATOM     16  C   UNL     1      -3.479   4.643  -3.426  0.00  0.00    +0.022 A 
ATOM     17  C   UNL     1      -2.133   4.957  -3.499  0.00  0.00    +0.059 A 
ATOM     18  C   UNL     1      -1.191   3.946  -3.581  0.00  0.00    +0.060 A 
ATOM     19  C   UNL     1      -1.596   2.623  -3.586  0.00  0.00    +0.026 A 
ATOM     20 CL   UNL     1       0.497   4.338  -3.673  0.00  0.00    -0.082 Cl
ATOM     21 CL   UNL     1      -1.627   6.617  -3.487  0.00  0.00    -0.082 Cl
ENDBRANCH   6  14
BRANCH  10  22
ATOM     22  C   UNL     1      -6.552  -0.710  -8.097  0.00  0.00    -0.043 A 
ATOM     23  C   UNL     1      -6.983   0.390  -8.814  0.00  0.00    +0.005 A 
ATOM     24  C   UNL     1      -7.762   0.218  -9.943  0.00  0.00    +0.020 A 
ATOM     25  C   UNL     1      -8.110  -1.056 -10.355  0.00  0.00    +0.041 A 
ATOM     26  C   UNL     1      -7.678  -2.157  -9.637  0.00  0.00    +0.020 A 
ATOM     27  C   UNL     1      -6.895  -1.984  -8.512  0.00  0.00    +0.005 A 
ATOM     28 CL   UNL     1      -9.088  -1.273 -11.773  0.00  0.00    -0.084 Cl
ENDBRANCH  10  22
BRANCH   1  29
ATOM     29  C   UNL     1      -3.418   0.377  -1.062  0.00  0.00    +0.338 C 
ATOM     30  O   UNL     1      -2.816  -0.664  -0.877  0.00  0.00    -0.245 OA
BRANCH  29  31
ATOM     31  O   UNL     1      -3.403   1.342  -0.119  0.00  0.00    -0.458 OA
BRANCH  31  32
ATOM     32  C   UNL     1      -2.660   1.074   1.072  0.00  0.00    +0.173 C 
ATOM     33  C   UNL     1      -1.218   1.552   0.891  0.00  0.00    +0.052 C 
BRANCH  32  35
ATOM     34  C   UNL     1      -4.696   1.248   2.508  0.00  0.00    +0.007 C 
ATOM     35  C   UNL     1      -3.299   1.814   2.249  0.00  0.00    +0.041 C 
ENDBRANCH  32  35
ENDBRANCH  31  32
ENDBRANCH  29  31
ENDBRANCH   1  29
TORSDOF 6
