REMARK  Name = ZINC35004409
REMARK  9 active torsions:
REMARK  status: ('A' for Active; 'I' for Inactive)
REMARK    1  A    between atoms: C_1  and  C_2
REMARK    2  A    between atoms: C_7  and  C_12
REMARK    3  A    between atoms: C_12  and  C_13
REMARK    4  A    between atoms: C_14  and  C_26
REMARK    5  A    between atoms: N_16  and  C_21
REMARK    6  A    between atoms: C_21  and  C_22
REMARK    7  A    between atoms: C_22  and  N_23
REMARK    8  A    between atoms: N_23  and  C_24
REMARK    9  A    between atoms: N_23  and  C_25
REMARK                            x       y       z     vdW  Elec       q    Type
REMARK                         _______ _______ _______ _____ _____    ______ ____
ROOT
ATOM      1  C   UNL     1       6.905  -1.363  -0.236  0.00  0.00    +0.076 C 
ATOM      2  C   UNL     1       6.959  -1.347   1.274  0.00  0.00    +0.145 C 
ATOM      3  N   UNL     1       8.377  -1.458   1.634  0.00  0.00    -0.285 N 
ATOM      4  C   UNL     1       9.089  -1.531   0.494  0.00  0.00    +0.288 C 
ATOM      5  O   UNL     1      10.298  -1.630   0.432  0.00  0.00    -0.266 OA
ATOM      6  C   UNL     1       8.181  -1.479  -0.671  0.00  0.00    +0.249 C 
ATOM      7  O   UNL     1       8.566  -1.535  -1.967  0.00  0.00    -0.282 OA
ENDROOT
BRANCH   2   8
ATOM      8  C   UNL     1       6.390  -0.054   1.798  0.00  0.00    -0.015 A 
ATOM      9  C   UNL     1       7.210   1.003   2.047  0.00  0.00    +0.006 A 
ATOM     10  C   UNL     1       6.703   2.207   2.532  0.00  0.00    +0.001 A 
ATOM     11  C   UNL     1       5.372   2.360   2.773  0.00  0.00    +0.008 A 
ATOM     12  C   UNL     1       4.494   1.290   2.528  0.00  0.00    -0.018 A 
ATOM     13  C   UNL     1       5.009   0.068   2.029  0.00  0.00    -0.013 A 
ATOM     14  C   UNL     1       4.130  -1.000   1.779  0.00  0.00    +0.009 A 
ATOM     15  C   UNL     1       2.799  -0.845   2.013  0.00  0.00    +0.001 A 
ATOM     16  C   UNL     1       2.291   0.359   2.499  0.00  0.00    +0.001 A 
ATOM     17  C   UNL     1       3.114   1.410   2.765  0.00  0.00    +0.008 A 
ENDBRANCH   2   8
BRANCH   1  18
ATOM     18  C   UNL     1       5.702  -1.277  -1.070  0.00  0.00    +0.195 C 
ATOM     19  O   UNL     1       5.155  -0.203  -1.239  0.00  0.00    -0.287 OA
BRANCH  18  25
ATOM     20  C   UNL     1       1.218  -5.835  -2.611  0.00  0.00    +0.052 C 
ATOM     21  C   UNL     1       2.097  -5.371  -3.774  0.00  0.00    +0.175 C 
ATOM     22  C   UNL     1       2.191  -3.827  -3.808  0.00  0.00    +0.083 C 
ATOM     23  C   UNL     1       3.447  -3.572  -2.998  0.00  0.00    -0.002 A 
ATOM     24  C   UNL     1       3.949  -2.436  -2.413  0.00  0.00    +0.019 A 
ATOM     25  C   UNL     1       5.153  -2.493  -1.703  0.00  0.00    +0.023 A 
ATOM     26  C   UNL     1       5.833  -3.710  -1.597  0.00  0.00    +0.015 A 
ATOM     27  C   UNL     1       5.323  -4.840  -2.189  0.00  0.00    +0.046 A 
ATOM     28  C   UNL     1       4.123  -4.785  -2.902  0.00  0.00    +0.124 A 
ATOM     29  O   UNL     1       3.462  -5.773  -3.572  0.00  0.00    -0.488 OA
ENDBRANCH  18  25
ENDBRANCH   1  18
BRANCH   3  30
ATOM     30  C   UNL     1       8.922  -1.484   2.994  0.00  0.00    +0.090 C 
BRANCH  30  31
ATOM     31  C   UNL     1       8.995  -2.930   3.486  0.00  0.00    -0.060 C 
BRANCH  31  32
ATOM     32  N   UNL     1       9.541  -2.956   4.850  0.00  0.00    +0.377 N 
ATOM     33  C   UNL     1       9.500  -4.330   5.368  0.00  0.00    -0.097 C 
ATOM     34  C   UNL     1      10.931  -2.482   4.829  0.00  0.00    -0.097 C 
ATOM     35  H   UNL     1       8.990  -2.356   5.444  0.00  0.00    -0.083 HD
ENDBRANCH  31  32
ENDBRANCH  30  31
ENDBRANCH   3  30
TORSDOF 6
