REMARK  Name = ZINC41502433
REMARK  10 active torsions:
REMARK  status: ('A' for Active; 'I' for Inactive)
REMARK    1  A    between atoms: C_1  and  C_2
REMARK    2  A    between atoms: C_7  and  C_8
REMARK    3  A    between atoms: C_15  and  O_20
REMARK    4  A    between atoms: C_16  and  C_19
REMARK    5  A    between atoms: O_20  and  C_21
REMARK    6  A    between atoms: C_21  and  C_22
REMARK    7  A    between atoms: C_22  and  O_24
REMARK    8  A    between atoms: O_24  and  C_25
REMARK    9  A    between atoms: C_25  and  C_26
REMARK   10  A    between atoms: C_25  and  C_27
REMARK                            x       y       z     vdW  Elec       q    Type
REMARK                         _______ _______ _______ _____ _____    ______ ____
ROOT
ATOM      1  C   UNL     1       0.026   0.010   2.489  0.00  0.00    +0.058 C 
ATOM      2  C   UNL     1      -0.056  -0.677   3.655  0.00  0.00    +0.176 C 
ATOM      3  C   UNL     1      -0.174  -0.095   5.002  0.00  0.00    +0.231 C 
ATOM      4  O   UNL     1      -0.218   1.085   5.303  0.00  0.00    -0.283 OA
ATOM      5  C   UNL     1      -0.227  -1.259   5.904  0.00  0.00    +0.068 A 
ATOM      6  C   UNL     1      -0.335  -1.389   7.290  0.00  0.00    +0.019 A 
ATOM      7  C   UNL     1      -0.359  -2.631   7.857  0.00  0.00    +0.047 A 
ATOM      8  C   UNL     1      -0.276  -3.768   7.057  0.00  0.00    +0.128 A 
ATOM      9  C   UNL     1      -0.168  -3.654   5.681  0.00  0.00    +0.034 A 
ATOM     10  C   UNL     1      -0.142  -2.398   5.087  0.00  0.00    +0.146 A 
ATOM     11  O   UNL     1      -0.050  -2.024   3.792  0.00  0.00    -0.451 OA
ATOM     12  C   UNL     1      -0.077  -4.893   4.827  0.00  0.00    +0.051 C 
ENDROOT
BRANCH   1  19
ATOM     13  C   UNL     1      -0.557   1.467   0.057  0.00  0.00    +0.044 C 
ATOM     14  C   UNL     1      -0.300  -0.018   0.024  0.00  0.00    -0.043 A 
ATOM     15  C   UNL     1      -0.336  -0.699  -1.175  0.00  0.00    +0.004 A 
ATOM     16  C   UNL     1      -0.101  -2.062  -1.208  0.00  0.00    +0.000 A 
ATOM     17  C   UNL     1       0.171  -2.754  -0.041  0.00  0.00    +0.001 A 
ATOM     18  C   UNL     1       0.210  -2.089   1.166  0.00  0.00    +0.008 A 
ATOM     19  C   UNL     1      -0.020  -0.709   1.208  0.00  0.00    -0.019 A 
ENDBRANCH   1  19
BRANCH   8  20
ATOM     20  O   UNL     1      -0.301  -4.997   7.631  0.00  0.00    -0.480 OA
BRANCH  20  21
ATOM     21  C   UNL     1      -0.414  -5.047   9.054  0.00  0.00    +0.349 C 
BRANCH  21  22
ATOM     22  C   UNL     1      -0.426  -6.484   9.507  0.00  0.00    +0.345 C 
ATOM     23  O   UNL     1      -0.346  -7.375   8.694  0.00  0.00    -0.247 OA
BRANCH  22  24
ATOM     24  O   UNL     1      -0.525  -6.776  10.814  0.00  0.00    -0.460 OA
BRANCH  24  25
ATOM     25  C   UNL     1      -0.530  -8.159  11.172  0.00  0.00    +0.170 C 
ATOM     26  C   UNL     1       0.906  -8.628  11.415  0.00  0.00    +0.052 C 
ATOM     27  C   UNL     1      -1.353  -8.353  12.447  0.00  0.00    +0.052 C 
ENDBRANCH  24  25
ENDBRANCH  22  24
ENDBRANCH  21  22
ENDBRANCH  20  21
ENDBRANCH   8  20
TORSDOF 6
