REMARK  Name = ZINC04222292
REMARK  12 active torsions:
REMARK  status: ('A' for Active; 'I' for Inactive)
REMARK    1  A    between atoms: C_1  and  C_2
REMARK    2  A    between atoms: C_5  and  O_42
REMARK    3  A    between atoms: C_7  and  C_39
REMARK    4  A    between atoms: C_7  and  C_40
REMARK    5  A    between atoms: C_17  and  C_19
REMARK    6  A    between atoms: C_19  and  O_20
REMARK    7  A    between atoms: O_20  and  C_21
REMARK    8  A    between atoms: C_27  and  C_29
REMARK    9  A    between atoms: C_29  and  C_30
REMARK   10  A    between atoms: N_32  and  C_33
REMARK   11  A    between atoms: C_33  and  C_34
REMARK   12  A    between atoms: C_40  and  O_41
REMARK                            x       y       z     vdW  Elec       q    Type
REMARK                         _______ _______ _______ _____ _____    ______ ____
ROOT
ATOM      1  C   UNL     1       3.022   3.977  -1.134  0.00  0.00    +0.012 C 
ATOM      2  C   UNL     1       1.958   4.434  -0.135  0.00  0.00    -0.019 C 
ATOM      3  C   UNL     1       2.365   4.028   1.285  0.00  0.00    +0.010 C 
ATOM      4  C   UNL     1       3.664   4.724   1.686  0.00  0.00    +0.032 C 
ATOM      5  C   UNL     1       3.442   6.239   1.653  0.00  0.00    +0.123 C 
ATOM      6  C   UNL     1       3.083   6.651   0.227  0.00  0.00    +0.021 C 
ATOM      7  C   UNL     1       1.794   5.954  -0.220  0.00  0.00    +0.011 C 
ATOM      8  C   UNL     1       1.549   6.349  -1.690  0.00  0.00    +0.049 C 
ATOM      9  C   UNL     1       0.524   5.441  -2.271  0.00  0.00    +0.015 A 
ATOM     10  C   UNL     1       0.074   4.264  -1.764  0.00  0.00    +0.058 A 
ATOM     11  N   UNL     1      -0.853   3.636  -2.483  0.00  0.00    -0.229 NA
ATOM     12  C   UNL     1      -1.310   4.122  -3.618  0.00  0.00    +0.165 A 
ATOM     13  S   UNL     1      -0.408   5.600  -3.770  0.00  0.00    -0.057 S 
ATOM     14  N   UNL     1      -2.267   3.590  -4.475  0.00  0.00    -0.262 N 
ATOM     15  C   UNL     1      -2.602   4.248  -5.603  0.00  0.00    +0.256 C 
ATOM     16  O   UNL     1      -2.068   5.303  -5.870  0.00  0.00    -0.272 OA
ATOM     17  C   UNL     1       0.626   3.740  -0.447  0.00  0.00    +0.054 C 
ATOM     18  C   UNL     1       2.884   8.167   0.173  0.00  0.00    +0.016 C 
ATOM     19  H   UNL     1      -2.694   2.746  -4.261  0.00  0.00    +0.157 HD
ENDROOT
BRANCH   5  20
ATOM     20  O   UNL     1       4.638   6.907   2.059  0.00  0.00    -0.391 OA
ATOM     21  H   UNL     1       4.931   6.683   2.952  0.00  0.00    +0.210 HD
ENDBRANCH   5  20
BRANCH  15  22
ATOM     22  C   UNL     1      -3.639   3.671  -6.531  0.00  0.00    +0.324 C 
BRANCH  22  23
ATOM     23  O   UNL     1      -3.818   4.545  -7.647  0.00  0.00    -0.483 OA
BRANCH  23  24
ATOM     24  C   UNL     1      -4.726   4.169  -8.586  0.00  0.00    +0.121 A 
ATOM     25  C   UNL     1      -5.426   2.981  -8.439  0.00  0.00    +0.045 A 
ATOM     26  C   UNL     1      -6.353   2.604  -9.392  0.00  0.00    +0.004 A 
ATOM     27  C   UNL     1      -6.574   3.404 -10.497  0.00  0.00    +0.000 A 
ATOM     28  C   UNL     1      -5.873   4.587 -10.649  0.00  0.00    +0.004 A 
ATOM     29  C   UNL     1      -4.950   4.971  -9.696  0.00  0.00    +0.045 A 
ENDBRANCH  23  24
ENDBRANCH  22  23
ENDBRANCH  15  22
BRANCH  17  30
ATOM     30  C   UNL     1       0.852   2.230  -0.555  0.00  0.00    +0.106 C 
BRANCH  30  31
ATOM     31  C   UNL     1      -0.478   1.530  -0.667  0.00  0.00    +0.214 C 
ATOM     32  O   UNL     1      -1.505   2.175  -0.666  0.00  0.00    -0.276 OA
ATOM     33  N   UNL     1      -0.526   0.188  -0.774  0.00  0.00    -0.308 N 
ATOM     34  H   UNL     1       0.296  -0.328  -0.778  0.00  0.00    +0.149 HD
BRANCH  33  35
ATOM     35  C   UNL     1      -1.818  -0.493  -0.882  0.00  0.00    +0.178 C 
BRANCH  35  36
ATOM     36  C   UNL     1      -1.596  -1.980  -0.989  0.00  0.00    +0.122 A 
ATOM     37  C   UNL     1      -1.522  -2.840   0.043  0.00  0.00    +0.046 A 
ATOM     38  C   UNL     1      -1.309  -4.124  -0.508  0.00  0.00    +0.041 A 
ATOM     39  C   UNL     1      -1.258  -3.971  -1.844  0.00  0.00    +0.195 A 
ATOM     40  O   UNL     1      -1.433  -2.670  -2.129  0.00  0.00    -0.466 OA
ENDBRANCH  35  36
ENDBRANCH  33  35
ENDBRANCH  30  31
ENDBRANCH  17  30
BRANCH   6  41
ATOM     41  C   UNL     1       4.223   6.260  -0.716  0.00  0.00    +0.165 C 
BRANCH  41  42
ATOM     42  O   UNL     1       5.385   7.030  -0.403  0.00  0.00    -0.394 OA
ATOM     43  H   UNL     1       6.149   6.835  -0.962  0.00  0.00    +0.209 HD
ENDBRANCH  41  42
ENDBRANCH   6  41
TORSDOF 10
