REMARK  Name = ZINC09189197
REMARK  11 active torsions:
REMARK  status: ('A' for Active; 'I' for Inactive)
REMARK    1  A    between atoms: C_1  and  C_2
REMARK    2  A    between atoms: C_2  and  C_3
REMARK    3  A    between atoms: C_2  and  C_4
REMARK    4  A    between atoms: C_2  and  C_5
REMARK    5  A    between atoms: C_7  and  C_16
REMARK    6  A    between atoms: C_9  and  C_12
REMARK    7  A    between atoms: C_10  and  O_11
REMARK    8  A    between atoms: C_12  and  C_13
REMARK    9  A    between atoms: C_12  and  C_14
REMARK   10  A    between atoms: C_12  and  C_15
REMARK   11  A    between atoms: N_20  and  C_24
REMARK                            x       y       z     vdW  Elec       q    Type
REMARK                         _______ _______ _______ _____ _____    ______ ____
ROOT
ATOM      1  C   UNL     1      -0.524   0.199   2.935  0.00  0.00    +0.000 A 
ATOM      2  C   UNL     1       0.701  -0.361   2.650  0.00  0.00    +0.015 A 
ATOM      3  C   UNL     1       1.697  -0.397   3.634  0.00  0.00    -0.023 A 
ATOM      4  C   UNL     1       1.438   0.128   4.906  0.00  0.00    +0.015 A 
ATOM      5  C   UNL     1       0.207   0.681   5.181  0.00  0.00    +0.000 A 
ATOM      6  C   UNL     1      -0.776   0.718   4.200  0.00  0.00    +0.124 A 
ENDROOT
BRANCH   3   7
ATOM      7  C   UNL     1       3.007  -0.988   3.334  0.00  0.00    +0.028 C 
ATOM      8  C   UNL     1       4.025  -0.870   4.225  0.00  0.00    +0.077 C 
ATOM      9  C   UNL     1       5.354  -1.513   4.226  0.00  0.00    +0.259 C 
ATOM     10  O   UNL     1       5.693  -2.283   3.346  0.00  0.00    -0.269 OA
ATOM     11  N   UNL     1       6.158  -1.211   5.232  0.00  0.00    -0.252 N 
ATOM     12  C   UNL     1       5.778  -0.358   6.206  0.00  0.00    +0.121 C 
ATOM     13  S   UNL     1       6.666   0.153   7.577  0.00  0.00    -0.027 S 
ATOM     14  S   UNL     1       4.128   0.114   5.714  0.00  0.00    -0.061 S 
BRANCH  11  15
ATOM     15  C   UNL     1       7.490  -1.817   5.291  0.00  0.00    +0.083 C 
ATOM     16  C   UNL     1       7.626  -2.628   6.581  0.00  0.00    +0.023 C 
ATOM     17  C   UNL     1       9.018  -3.260   6.642  0.00  0.00    +0.002 C 
ATOM     18  C   UNL     1      10.080  -2.159   6.618  0.00  0.00    +0.000 C 
ATOM     19  C   UNL     1       9.944  -1.347   5.328  0.00  0.00    +0.002 C 
ATOM     20  C   UNL     1       8.552  -0.715   5.267  0.00  0.00    +0.023 C 
ENDBRANCH  11  15
ENDBRANCH   3   7
BRANCH   1  22
ATOM     21  C   UNL     1      -1.065  -0.389   0.588  0.00  0.00    +0.015 C 
ATOM     22  C   UNL     1      -1.595   0.243   1.877  0.00  0.00    -0.009 C 
ATOM     23  C   UNL     1      -1.988   1.697   1.608  0.00  0.00    +0.015 C 
ATOM     24  C   UNL     1      -2.821  -0.535   2.359  0.00  0.00    +0.015 C 
ENDBRANCH   1  22
BRANCH   5  25
ATOM     25  C   UNL     1      -0.074   1.246   6.550  0.00  0.00    -0.009 C 
ATOM     26  C   UNL     1       1.164   1.081   7.434  0.00  0.00    +0.015 C 
ATOM     27  C   UNL     1      -0.418   2.732   6.427  0.00  0.00    +0.015 C 
ATOM     28  C   UNL     1      -1.253   0.500   7.178  0.00  0.00    +0.015 C 
ENDBRANCH   5  25
BRANCH   6  29
ATOM     29  O   UNL     1      -1.988   1.265   4.477  0.00  0.00    -0.506 OA
ATOM     30  H   UNL     1      -2.634   0.634   4.822  0.00  0.00    +0.292 HD
ENDBRANCH   6  29
TORSDOF 5
