REMARK  Name = ZINC20418764
REMARK  9 active torsions:
REMARK  status: ('A' for Active; 'I' for Inactive)
REMARK    1  A    between atoms: C_1  and  C_2
REMARK    2  A    between atoms: C_7  and  N_8
REMARK    3  A    between atoms: C_9  and  C_11
REMARK    4  A    between atoms: C_12  and  C_37
REMARK    5  A    between atoms: C_19  and  C_20
REMARK    6  A    between atoms: C_23  and  O_26
REMARK    7  A    between atoms: O_26  and  C_27
REMARK    8  A    between atoms: C_29  and  C_31
REMARK    9  A    between atoms: C_34  and  C_36
REMARK                            x       y       z     vdW  Elec       q    Type
REMARK                         _______ _______ _______ _____ _____    ______ ____
ROOT
ATOM      1  C   UNL     1       6.746   5.624  -0.508  0.00  0.00    +0.066 C 
ATOM      2  C   UNL     1       7.572   4.576  -0.219  0.00  0.00    +0.052 C 
ATOM      3  N   UNL     1       7.078   3.357  -0.039  0.00  0.00    -0.228 NA
ATOM      4  C   UNL     1       5.809   3.046  -0.115  0.00  0.00    +0.178 A 
ATOM      5  N   UNL     1       4.811   3.951  -0.395  0.00  0.00    -0.272 N 
ATOM      6  C   UNL     1       3.545   3.516  -0.447  0.00  0.00    +0.268 A 
ATOM      7  O   UNL     1       2.629   4.279  -0.691  0.00  0.00    -0.266 OA
ATOM      8  C   UNL     1       3.296   2.089  -0.201  0.00  0.00    +0.081 A 
ATOM      9  C   UNL     1       2.122   1.406  -0.196  0.00  0.00    +0.028 C 
ATOM     10  S   UNL     1       4.954   1.497   0.097  0.00  0.00    -0.046 S 
ATOM     11  C   UNL     1       5.263   5.354  -0.615  0.00  0.00    +0.195 C 
ATOM     12  C   UNL     1       9.057   4.804  -0.104  0.00  0.00    +0.066 C 
ENDROOT
BRANCH   9  13
ATOM     13  C   UNL     1       0.850   2.132  -0.287  0.00  0.00    -0.024 A 
ATOM     14  C   UNL     1      -0.171   1.660  -1.123  0.00  0.00    +0.011 A 
ATOM     15  C   UNL     1      -1.359   2.349  -1.210  0.00  0.00    +0.046 A 
ATOM     16  C   UNL     1      -1.553   3.505  -0.461  0.00  0.00    +0.120 A 
ATOM     17  C   UNL     1      -0.543   3.978   0.369  0.00  0.00    +0.046 A 
ATOM     18  C   UNL     1       0.652   3.300   0.460  0.00  0.00    +0.011 A 
BRANCH  16  19
ATOM     19  O   UNL     1      -2.729   4.177  -0.546  0.00  0.00    -0.495 OA
ATOM     20  C   UNL     1      -3.724   3.636  -1.418  0.00  0.00    +0.277 C 
ENDBRANCH  16  19
ENDBRANCH   9  13
BRANCH  11  21
ATOM     21  C   UNL     1       4.813   5.776  -1.990  0.00  0.00    +0.133 A 
ATOM     22  C   UNL     1       4.378   7.002  -2.333  0.00  0.00    +0.047 A 
ATOM     23  C   UNL     1       4.062   6.953  -3.710  0.00  0.00    +0.045 A 
ATOM     24  C   UNL     1       4.322   5.701  -4.126  0.00  0.00    +0.102 A 
ATOM     25  O   UNL     1       4.782   4.993  -3.081  0.00  0.00    -0.462 OA
ATOM     26  C   UNL     1       4.136   5.181  -5.528  0.00  0.00    +0.086 C 
ENDBRANCH  11  21
BRANCH   1  28
ATOM     27  N   UNL     1       7.892   7.229  -1.852  0.00  0.00    -0.281 N 
ATOM     28  C   UNL     1       7.261   6.919  -0.702  0.00  0.00    +0.248 C 
ATOM     29  O   UNL     1       7.137   7.761   0.171  0.00  0.00    -0.270 OA
ATOM     30  H   UNL     1       7.932   6.497  -2.672  0.00  0.00    +0.155 HD
BRANCH  27  37
ATOM     31  C   UNL     1       8.486   8.125  -4.486  0.00  0.00    +0.045 C 
ATOM     32  C   UNL     1       8.804   8.957  -3.270  0.00  0.00    -0.029 A 
ATOM     33  C   UNL     1       9.397  10.196  -3.416  0.00  0.00    +0.005 A 
ATOM     34  C   UNL     1       9.694  10.957  -2.300  0.00  0.00    +0.000 A 
ATOM     35  C   UNL     1       9.395  10.483  -1.036  0.00  0.00    +0.002 A 
ATOM     36  C   UNL     1       8.798   9.247  -0.884  0.00  0.00    +0.023 A 
ATOM     37  C   UNL     1       8.497   8.480  -2.002  0.00  0.00    +0.037 A 
ENDBRANCH  27  37
ENDBRANCH   1  28
TORSDOF 5
