REMARK  Name = ZINC04743226
REMARK  8 active torsions:
REMARK  status: ('A' for Active; 'I' for Inactive)
REMARK    1  A    between atoms: C_1  and  C_2
REMARK    2  A    between atoms: C_4  and  C_29
REMARK    3  A    between atoms: N_7  and  C_22
REMARK    4  A    between atoms: C_8  and  C_13
REMARK    5  A    between atoms: C_16  and  N_19
REMARK    6  A    between atoms: C_22  and  C_23
REMARK    7  A    between atoms: C_29  and  O_30
REMARK    8  A    between atoms: O_30  and  C_31
REMARK                            x       y       z     vdW  Elec       q    Type
REMARK                         _______ _______ _______ _____ _____    ______ ____
ROOT
ATOM      1  C   UNL     1      -4.501   3.084  -0.147  0.00  0.00    +0.063 C 
ATOM      2  C   UNL     1      -3.084   2.614   0.058  0.00  0.00    +0.015 A 
ATOM      3  C   UNL     1      -2.854   1.457   0.782  0.00  0.00    +0.027 A 
ATOM      4  C   UNL     1      -1.552   1.024   0.976  0.00  0.00    -0.005 A 
ATOM      5  C   UNL     1      -0.523   1.783   0.424  0.00  0.00    +0.080 A 
ATOM      6  C   UNL     1      -0.832   2.946  -0.301  0.00  0.00    +0.114 A 
ATOM      7  N   UNL     1       0.193   3.684  -0.859  0.00  0.00    -0.289 N 
ATOM      8  C   UNL     1       1.389   3.710  -0.015  0.00  0.00    +0.194 C 
ATOM      9  N   UNL     1       1.822   2.356   0.333  0.00  0.00    -0.289 N 
ATOM     10  C   UNL     1       0.893   1.402   0.584  0.00  0.00    +0.249 C 
ATOM     11  O   UNL     1       1.214   0.279   0.921  0.00  0.00    -0.270 OA
ATOM     12  H   UNL     1       2.767   2.144   0.384  0.00  0.00    +0.151 HD
ATOM     13  N   UNL     1      -2.111   3.384  -0.486  0.00  0.00    -0.346 N 
ATOM     14  H   UNL     1      -2.324   4.243  -1.006  0.00  0.00    +0.167 HD
ENDROOT
BRANCH   8  15
ATOM     15  C   UNL     1       2.500   4.409  -0.755  0.00  0.00    -0.009 A 
ATOM     16  C   UNL     1       2.842   4.004  -2.032  0.00  0.00    +0.009 A 
ATOM     17  C   UNL     1       3.858   4.649  -2.712  0.00  0.00    +0.033 A 
ATOM     18  C   UNL     1       4.539   5.691  -2.112  0.00  0.00    +0.126 A 
ATOM     19  C   UNL     1       4.201   6.093  -0.833  0.00  0.00    +0.033 A 
ATOM     20  C   UNL     1       3.181   5.451  -0.154  0.00  0.00    +0.009 A 
BRANCH  18  21
ATOM     21  N   UNL     1       5.631   6.378  -2.838  0.00  0.00    +0.056 N 
ATOM     22  O   UNL     1       6.231   7.296  -2.309  0.00  0.00    -0.126 OA
ATOM     23  O   UNL     1       5.929   6.024  -3.965  0.00  0.00    -0.126 OA
ENDBRANCH  18  21
ENDBRANCH   8  15
BRANCH   7  24
ATOM     24  C   UNL     1      -0.253   5.046  -1.181  0.00  0.00    +0.143 C 
BRANCH  24  25
ATOM     25  C   UNL     1      -0.696   5.741   0.081  0.00  0.00    -0.030 A 
ATOM     26  C   UNL     1      -2.035   5.764   0.424  0.00  0.00    +0.005 A 
ATOM     27  C   UNL     1      -2.440   6.399   1.583  0.00  0.00    +0.000 A 
ATOM     28  C   UNL     1      -1.508   7.017   2.395  0.00  0.00    +0.000 A 
ATOM     29  C   UNL     1      -0.169   6.998   2.049  0.00  0.00    +0.000 A 
ATOM     30  C   UNL     1       0.237   6.360   0.892  0.00  0.00    +0.005 A 
ENDBRANCH  24  25
ENDBRANCH   7  24
BRANCH   4  31
ATOM     31  C   UNL     1      -1.259  -0.230   1.759  0.00  0.00    +0.195 C 
BRANCH  31  32
ATOM     32  O   UNL     1      -2.486  -0.809   2.208  0.00  0.00    -0.378 OA
ATOM     33  C   UNL     1      -2.319  -2.010   2.965  0.00  0.00    +0.194 C 
ENDBRANCH  31  32
ENDBRANCH   4  31
TORSDOF 6
