REMARK  Name = ZINC17123782
REMARK  8 active torsions:
REMARK  status: ('A' for Active; 'I' for Inactive)
REMARK    1  A    between atoms: C_1  and  C_2
REMARK    2  A    between atoms: C_3  and  C_14
REMARK    3  A    between atoms: N_5  and  C_7
REMARK    4  A    between atoms: C_14  and  C_16
REMARK    5  A    between atoms: C_14  and  C_25
REMARK    6  A    between atoms: C_20  and  N_22
REMARK    7  A    between atoms: C_27  and  C_38
REMARK    8  A    between atoms: N_29  and  C_32
REMARK                            x       y       z     vdW  Elec       q    Type
REMARK                         _______ _______ _______ _____ _____    ______ ____
ROOT
ATOM      1  C   UNL     1      -0.489   4.072  -0.737  0.00  0.00    +0.074 C 
ENDROOT
BRANCH   1   4
ATOM      2  C   UNL     1      -0.156   1.378   0.790  0.00  0.00    +0.065 C 
ATOM      3  C   UNL     1      -0.833   1.558  -0.544  0.00  0.00    +0.039 A 
ATOM      4  C   UNL     1      -0.976   2.725  -1.205  0.00  0.00    +0.047 A 
ATOM      5  C   UNL     1      -1.664   2.464  -2.413  0.00  0.00    +0.276 A 
ATOM      6  N   UNL     1      -1.923   1.141  -2.458  0.00  0.00    -0.219 N 
ATOM      7  N   UNL     1      -1.400   0.566  -1.292  0.00  0.00    -0.294 N 
ATOM      8  O   UNL     1      -1.968   3.286  -3.259  0.00  0.00    -0.266 OA
ATOM      9  H   UNL     1      -1.437  -0.374  -1.056  0.00  0.00    +0.187 HD
BRANCH   6  10
ATOM     10  C   UNL     1      -2.588   0.465  -3.486  0.00  0.00    +0.067 A 
ATOM     11  C   UNL     1      -3.047   1.164  -4.595  0.00  0.00    +0.028 A 
ATOM     12  C   UNL     1      -3.703   0.493  -5.609  0.00  0.00    +0.002 A 
ATOM     13  C   UNL     1      -3.905  -0.872  -5.519  0.00  0.00    +0.000 A 
ATOM     14  C   UNL     1      -3.449  -1.570  -4.415  0.00  0.00    +0.002 A 
ATOM     15  C   UNL     1      -2.787  -0.907  -3.401  0.00  0.00    +0.028 A 
ENDBRANCH   6  10
ENDBRANCH   1   4
BRANCH   1  16
ATOM     16  C   UNL     1       0.360   4.717  -1.835  0.00  0.00    +0.135 C 
ATOM     17  C   UNL     1       0.907   6.050  -1.371  0.00  0.00    +0.047 C 
ATOM     18  N   UNL     1       2.180   5.960  -1.384  0.00  0.00    -0.181 NA
ATOM     19  N   UNL     1       2.636   4.714  -1.804  0.00  0.00    -0.160 N 
ATOM     20  C   UNL     1       1.604   3.891  -2.102  0.00  0.00    +0.249 C 
ATOM     21  O   UNL     1       1.659   2.745  -2.494  0.00  0.00    -0.273 OA
ATOM     22  C   UNL     1       0.100   7.258  -0.970  0.00  0.00    +0.063 C 
BRANCH  19  23
ATOM     23  C   UNL     1       3.986   4.359  -1.906  0.00  0.00    +0.060 A 
ATOM     24  C   UNL     1       4.340   3.089  -2.342  0.00  0.00    +0.025 A 
ATOM     25  C   UNL     1       5.673   2.741  -2.442  0.00  0.00    +0.002 A 
ATOM     26  C   UNL     1       6.655   3.656  -2.108  0.00  0.00    +0.000 A 
ATOM     27  C   UNL     1       6.305   4.922  -1.674  0.00  0.00    +0.002 A 
ATOM     28  C   UNL     1       4.974   5.278  -1.578  0.00  0.00    +0.025 A 
ENDBRANCH  19  23
ENDBRANCH   1  16
BRANCH   1  29
ATOM     29  C   UNL     1      -1.671   4.956  -0.432  0.00  0.00    -0.036 A 
ATOM     30  C   UNL     1      -2.472   5.418  -1.459  0.00  0.00    +0.004 A 
ATOM     31  C   UNL     1      -3.556   6.228  -1.179  0.00  0.00    +0.003 A 
ATOM     32  C   UNL     1      -3.839   6.576   0.129  0.00  0.00    +0.033 A 
ATOM     33  C   UNL     1      -3.039   6.114   1.156  0.00  0.00    +0.126 A 
ATOM     34  C   UNL     1      -1.957   5.300   0.876  0.00  0.00    +0.037 A 
BRANCH  33  35
ATOM     35  N   UNL     1      -3.342   6.487   2.556  0.00  0.00    +0.056 N 
ATOM     36  O   UNL     1      -4.290   7.197   2.801  0.00  0.00    -0.126 OA
ATOM     37  O   UNL     1      -2.642   6.082   3.454  0.00  0.00    -0.126 OA
ENDBRANCH  33  35
ENDBRANCH   1  29
TORSDOF 6
