REMARK  Name = ZINC36116298
REMARK  11 active torsions:
REMARK  status: ('A' for Active; 'I' for Inactive)
REMARK    1  A    between atoms: C_1  and  C_2
REMARK    2  A    between atoms: C_4  and  N_9
REMARK    3  A    between atoms: N_9  and  C_10
REMARK    4  A    between atoms: N_9  and  S_31
REMARK    5  A    between atoms: C_10  and  C_11
REMARK    6  A    between atoms: N_13  and  C_14
REMARK    7  A    between atoms: C_14  and  C_16
REMARK    8  A    between atoms: C_14  and  C_17
REMARK    9  A    between atoms: C_20  and  N_23
REMARK   10  A    between atoms: C_27  and  C_30
REMARK   11  A    between atoms: S_31  and  C_34
REMARK                            x       y       z     vdW  Elec       q    Type
REMARK                         _______ _______ _______ _____ _____    ______ ____
ROOT
ATOM      1  C   UNL     1      -0.482  -5.115  -2.062  0.00  0.00    +0.233 C 
ATOM      2  O   UNL     1      -1.594  -4.738  -1.760  0.00  0.00    -0.274 OA
ATOM      3  N   UNL     1      -0.190  -6.431  -2.054  0.00  0.00    -0.307 N 
ATOM      4  H   UNL     1       0.700  -6.732  -2.295  0.00  0.00    +0.149 HD
ENDROOT
BRANCH   3   5
ATOM      5  C   UNL     1      -1.218  -7.406  -1.681  0.00  0.00    +0.100 C 
ATOM      6  C   UNL     1      -2.063  -7.750  -2.909  0.00  0.00    +0.033 C 
BRANCH   5   7
ATOM      7  C   UNL     1      -0.558  -8.656  -1.159  0.00  0.00    -0.027 A 
ATOM      8  C   UNL     1       0.589  -9.136  -1.765  0.00  0.00    +0.007 A 
ATOM      9  C   UNL     1       1.196 -10.281  -1.289  0.00  0.00    +0.023 A 
ATOM     10  C   UNL     1       0.654 -10.952  -0.200  0.00  0.00    +0.030 A 
ATOM     11  C   UNL     1      -0.498 -10.467   0.407  0.00  0.00    +0.023 A 
ATOM     12  C   UNL     1      -1.097  -9.318  -0.071  0.00  0.00    +0.007 A 
BRANCH  10  13
ATOM     13  N   UNL     1       1.265 -12.111   0.283  0.00  0.00    -0.330 N 
ATOM     14  C   UNL     1       0.774 -12.762   1.506  0.00  0.00    +0.105 C 
ATOM     15  C   UNL     1       0.489 -14.235   1.199  0.00  0.00    +0.019 C 
ATOM     16  C   UNL     1       1.743 -14.880   0.603  0.00  0.00    +0.006 C 
ATOM     17  C   UNL     1       2.108 -14.176  -0.706  0.00  0.00    +0.003 C 
ATOM     18  C   UNL     1       2.408 -12.705  -0.423  0.00  0.00    +0.108 C 
ATOM     19  C   UNL     1       3.342 -14.843  -1.317  0.00  0.00    +0.009 C 
ENDBRANCH  10  13
ENDBRANCH   5   7
ENDBRANCH   3   5
BRANCH   1  20
ATOM     20  C   UNL     1       0.576  -4.111  -2.445  0.00  0.00    +0.226 C 
BRANCH  20  21
ATOM     21  N   UNL     1       0.014  -2.760  -2.376  0.00  0.00    -0.199 N 
BRANCH  21  25
ATOM     22  C   UNL     1      -0.080   1.498   0.077  0.00  0.00    +0.045 C 
ATOM     23  C   UNL     1      -0.052  -0.009   0.060  0.00  0.00    -0.035 A 
ATOM     24  C   UNL     1      -0.032  -0.685  -1.145  0.00  0.00    +0.029 A 
ATOM     25  C   UNL     1      -0.006  -2.073  -1.159  0.00  0.00    +0.052 A 
ATOM     26  C   UNL     1      -0.001  -2.778   0.038  0.00  0.00    +0.026 A 
ATOM     27  C   UNL     1      -0.022  -2.097   1.238  0.00  0.00    +0.017 A 
ATOM     28  C   UNL     1      -0.042  -0.713   1.250  0.00  0.00    +0.021 A 
ATOM     29 BR   UNL     1      -0.062   0.216   2.897  0.00  0.00    -0.050 Br
ENDBRANCH  21  25
BRANCH  21  30
ATOM     30  S   UNL     1      -0.597  -2.046  -3.740  0.00  0.00    +0.043 S 
ATOM     31  O   UNL     1      -1.076  -3.126  -4.530  0.00  0.00    -0.155 OA
ATOM     32  O   UNL     1      -1.487  -1.049  -3.260  0.00  0.00    -0.155 OA
ATOM     33  C   UNL     1       0.835  -1.272  -4.542  0.00  0.00    +0.218 C 
ENDBRANCH  21  30
ENDBRANCH  20  21
ENDBRANCH   1  20
TORSDOF 7
