REMARK  Name = ZINC45738302
REMARK  8 active torsions:
REMARK  status: ('A' for Active; 'I' for Inactive)
REMARK    1  A    between atoms: C_1  and  C_2
REMARK    2  A    between atoms: C_7  and  N_8
REMARK    3  A    between atoms: C_11  and  C_16
REMARK    4  A    between atoms: C_16  and  S_17
REMARK    5  A    between atoms: S_17  and  C_18
REMARK    6  A    between atoms: N_22  and  C_23
REMARK    7  A    between atoms: C_23  and  C_24
REMARK    8  A    between atoms: C_33  and  C_36
REMARK                            x       y       z     vdW  Elec       q    Type
REMARK                         _______ _______ _______ _____ _____    ______ ____
ROOT
ATOM      1  C   UNL     1      -0.523  -0.075   7.173  0.00  0.00    +0.153 C 
ENDROOT
BRANCH   1   5
ATOM      2  N   UNL     1      -0.303  -0.207   2.381  0.00  0.00    -0.283 N 
ATOM      3  C   UNL     1      -0.371  -0.882   3.584  0.00  0.00    +0.224 A 
ATOM      4  N   UNL     1      -0.412  -0.203   4.729  0.00  0.00    -0.198 NA
ATOM      5  C   UNL     1      -0.477  -0.848   5.880  0.00  0.00    +0.146 A 
ATOM      6  N   UNL     1      -0.502  -2.169   5.901  0.00  0.00    -0.199 NA
ATOM      7  C   UNL     1      -0.461  -2.855   4.761  0.00  0.00    +0.217 A 
ATOM      8  N   UNL     1      -0.402  -2.210   3.601  0.00  0.00    -0.181 NA
ATOM      9  N   UNL     1      -0.487  -4.235   4.784  0.00  0.00    -0.327 N 
ATOM     10  H   UNL     1      -0.233   0.760   2.371  0.00  0.00    +0.155 HD
ATOM     11  H   UNL     1      -0.535  -4.705   5.631  0.00  0.00    +0.145 HD
ATOM     12  H   UNL     1      -0.458  -4.734   3.953  0.00  0.00    +0.145 HD
BRANCH   2  19
ATOM     13  C   UNL     1      -1.603   0.987   0.150  0.00  0.00    +0.045 C 
ATOM     14  C   UNL     1      -0.959  -0.373   0.064  0.00  0.00    -0.029 A 
ATOM     15  C   UNL     1      -0.984  -1.075  -1.125  0.00  0.00    +0.005 A 
ATOM     16  C   UNL     1      -0.394  -2.323  -1.206  0.00  0.00    +0.000 A 
ATOM     17  C   UNL     1       0.224  -2.871  -0.096  0.00  0.00    +0.002 A 
ATOM     18  C   UNL     1       0.252  -2.175   1.095  0.00  0.00    +0.023 A 
ATOM     19  C   UNL     1      -0.335  -0.918   1.178  0.00  0.00    +0.036 A 
ENDBRANCH   2  19
ENDBRANCH   1   5
BRANCH   1  20
ATOM     20  S   UNL     1      -2.250   0.267   7.612  0.00  0.00    -0.078 S 
BRANCH  20  21
ATOM     21  C   UNL     1      -2.136   1.163   9.124  0.00  0.00    +0.193 A 
ATOM     22  N   UNL     1      -1.028   1.489   9.745  0.00  0.00    -0.121 NA
ATOM     23  N   UNL     1      -1.374   2.195  10.905  0.00  0.00    -0.112 NA
ATOM     24  C   UNL     1      -2.681   2.277  10.955  0.00  0.00    +0.220 A 
ATOM     25  N   UNL     1      -3.186   1.646   9.854  0.00  0.00    -0.288 N 
ATOM     26  N   UNL     1      -3.422   2.901  11.950  0.00  0.00    -0.300 N 
ATOM     27  C   UNL     1      -3.889   4.284  11.781  0.00  0.00    +0.108 C 
ATOM     28  C   UNL     1      -3.432   5.109  12.988  0.00  0.00    +0.022 C 
ATOM     29  C   UNL     1      -3.917   4.435  14.274  0.00  0.00    -0.011 C 
ATOM     30  C   UNL     1      -3.301   3.038  14.383  0.00  0.00    +0.022 C 
ATOM     31  C   UNL     1      -3.760   2.188  13.190  0.00  0.00    +0.108 C 
ATOM     32  C   UNL     1      -3.492   5.275  15.481  0.00  0.00    +0.007 C 
BRANCH  25  33
ATOM     33  C   UNL     1      -4.605   1.509   9.515  0.00  0.00    +0.158 C 
BRANCH  33  34
ATOM     34  C   UNL     1      -5.116   0.151  10.002  0.00  0.00    +0.138 C 
ATOM     35  C   UNL     1      -6.576  -0.053   9.544  0.00  0.00    +0.035 C 
ATOM     36  C   UNL     1      -7.215  -0.744  10.780  0.00  0.00    +0.031 C 
ATOM     37  C   UNL     1      -6.437  -0.062  11.933  0.00  0.00    +0.160 C 
ATOM     38  O   UNL     1      -5.100   0.111  11.434  0.00  0.00    -0.375 OA
ENDBRANCH  33  34
ENDBRANCH  25  33
ENDBRANCH  20  21
ENDBRANCH   1  20
TORSDOF 6
