REMARK  Name = ZINC35467283
REMARK  4 active torsions:
REMARK  status: ('A' for Active; 'I' for Inactive)
REMARK    1  A    between atoms: C_1  and  N_2
REMARK    2  A    between atoms: N_2  and  C_3
REMARK    3  A    between atoms: C_3  and  C_5
REMARK    4  A    between atoms: C_3  and  C_13
REMARK                            x       y       z     vdW  Elec       q    Type
REMARK                         _______ _______ _______ _____ _____    ______ ____
ROOT
ATOM      1  C   UNL     1      -1.376  -0.512   0.012  0.00  0.00    -0.034 C 
ENDROOT
BRANCH   1   2
ATOM      2  C   UNL     1      -1.356  -2.038   0.130  0.00  0.00    -0.037 C 
ATOM      3  C   UNL     1      -0.654  -2.440   1.428  0.00  0.00    +0.009 C 
ATOM      4  C   UNL     1      -0.634  -3.966   1.546  0.00  0.00    -0.010 C 
ATOM      5  C   UNL     1      -2.069  -4.495   1.557  0.00  0.00    +0.007 C 
ATOM      6  C   UNL     1      -2.771  -4.093   0.258  0.00  0.00    -0.010 C 
ATOM      7  C   UNL     1      -2.791  -2.567   0.141  0.00  0.00    +0.009 C 
ATOM      8  C   UNL     1      -2.018  -4.686  -0.934  0.00  0.00    +0.007 C 
ATOM      9  C   UNL     1      -0.583  -4.157  -0.945  0.00  0.00    -0.010 C 
ATOM     10  C   UNL     1       0.119  -4.559   0.354  0.00  0.00    +0.007 C 
ATOM     11  C   UNL     1      -0.603  -2.631  -1.062  0.00  0.00    +0.009 C 
ENDBRANCH   1   2
BRANCH   1  12
ATOM     12  C   UNL     1      -2.067  -0.116  -1.267  0.00  0.00    -0.046 A 
ATOM     13  C   UNL     1      -1.325   0.130  -2.406  0.00  0.00    +0.018 A 
ATOM     14  C   UNL     1      -1.959   0.494  -3.580  0.00  0.00    +0.018 A 
ATOM     15  C   UNL     1      -3.337   0.611  -3.614  0.00  0.00    +0.016 A 
ATOM     16  C   UNL     1      -4.080   0.365  -2.475  0.00  0.00    +0.016 A 
ATOM     17  C   UNL     1      -3.446  -0.004  -1.302  0.00  0.00    +0.020 A 
ATOM     18 BR   UNL     1      -4.462  -0.349   0.255  0.00  0.00    -0.050 Br
ATOM     19 BR   UNL     1      -0.943   0.832  -5.138  0.00  0.00    -0.050 Br
ENDBRANCH   1  12
BRANCH   1  21
ATOM     20  C   UNL     1      -0.018   1.465   0.010  0.00  0.00    -0.100 C 
ATOM     21  N   UNL     1       0.002  -0.004   0.002  0.00  0.00    +0.382 N 
ATOM     22  H   UNL     1       0.474  -0.330  -0.828  0.00  0.00    -0.085 HD
ATOM     23  H   UNL     1       0.490  -0.338   0.820  0.00  0.00    -0.085 HD
ENDBRANCH   1  21
TORSDOF 3
