REMARK  Name = ZINC14470756
REMARK  5 active torsions:
REMARK  status: ('A' for Active; 'I' for Inactive)
REMARK    1  A    between atoms: C_1  and  C_2
REMARK    2  A    between atoms: N_5  and  S_8
REMARK    3  A    between atoms: S_8  and  C_11
REMARK    4  A    between atoms: C_24  and  C_27
REMARK    5  A    between atoms: C_31  and  N_33
REMARK                            x       y       z     vdW  Elec       q    Type
REMARK                         _______ _______ _______ _____ _____    ______ ____
ROOT
ATOM      1  C   UNL     1       2.724  10.272  -0.255  0.00  0.00    +0.106 A 
ATOM      2  C   UNL     1       3.086   9.497  -1.342  0.00  0.00    +0.030 A 
ATOM      3  C   UNL     1       2.498   8.265  -1.541  0.00  0.00    +0.025 A 
ATOM      4  C   UNL     1       1.539   7.793  -0.653  0.00  0.00    +0.031 A 
ATOM      5  C   UNL     1       1.166   8.590   0.436  0.00  0.00    -0.018 A 
ATOM      6  C   UNL     1       1.766   9.815   0.630  0.00  0.00    +0.034 A 
ATOM      7  C   UNL     1       0.107   8.073   1.328  0.00  0.00    +0.049 C 
ATOM      8  C   UNL     1       0.003   8.488   2.750  0.00  0.00    -0.023 C 
ATOM      9  C   UNL     1      -0.510   7.481   3.449  0.00  0.00    -0.030 C 
ATOM     10  C   UNL     1      -0.761   6.283   2.532  0.00  0.00    +0.033 C 
ATOM     11  C   UNL     1       0.266   6.526   1.417  0.00  0.00    +0.029 C 
ATOM     12  C   UNL     1      -0.079   6.003   0.034  0.00  0.00    +0.105 C 
ATOM     13  N   UNL     1       0.968   6.533  -0.866  0.00  0.00    -0.336 N 
ATOM     14  H   UNL     1       1.266   5.997  -1.618  0.00  0.00    +0.147 HD
ENDROOT
BRANCH  12  15
ATOM     15  C   UNL     1      -0.059   4.497   0.026  0.00  0.00    -0.025 A 
ATOM     16  C   UNL     1       1.148   3.822   0.012  0.00  0.00    +0.007 A 
ATOM     17  C   UNL     1       1.167   2.440   0.004  0.00  0.00    +0.022 A 
ATOM     18  C   UNL     1      -0.021   1.732   0.012  0.00  0.00    +0.071 A 
ATOM     19  C   UNL     1      -1.229   2.407   0.021  0.00  0.00    +0.145 A 
ATOM     20  C   UNL     1      -1.247   3.789   0.034  0.00  0.00    +0.039 A 
ATOM     21 CL   UNL     1       0.002  -0.004   0.002  0.00  0.00    -0.081 Cl
BRANCH  19  22
ATOM     22  N   UNL     1      -2.500   1.650   0.023  0.00  0.00    +0.058 N 
ATOM     23  O   UNL     1      -3.563   2.245   0.031  0.00  0.00    -0.126 OA
ATOM     24  O   UNL     1      -2.484   0.432   0.016  0.00  0.00    -0.126 OA
ENDBRANCH  19  22
ENDBRANCH  12  15
BRANCH   1  25
ATOM     25  S   UNL     1       3.486  11.840   0.001  0.00  0.00    +0.061 S 
ATOM     26  O   UNL     1       3.954  12.277  -1.267  0.00  0.00    -0.153 OA
ATOM     27  O   UNL     1       2.582  12.607   0.785  0.00  0.00    -0.153 OA
BRANCH  25  32
ATOM     28  C   UNL     1       7.322   8.859   3.048  0.00  0.00    +0.007 C 
ATOM     29  C   UNL     1       6.731  10.136   2.446  0.00  0.00    -0.012 C 
ATOM     30  C   UNL     1       6.689  10.010   0.922  0.00  0.00    +0.020 C 
ATOM     31  C   UNL     1       6.129  11.303   0.322  0.00  0.00    +0.110 C 
ATOM     32  N   UNL     1       4.827  11.586   0.939  0.00  0.00    -0.177 NA
ATOM     33  C   UNL     1       4.737  11.645   2.405  0.00  0.00    +0.110 C 
ATOM     34  C   UNL     1       5.312  10.342   2.982  0.00  0.00    +0.020 C 
ENDBRANCH  25  32
ENDBRANCH   1  25
TORSDOF 4
