REMARK  Name = ZINC54201271
REMARK  7 active torsions:
REMARK  status: ('A' for Active; 'I' for Inactive)
REMARK    1  A    between atoms: C_1  and  O_2
REMARK    2  A    between atoms: O_2  and  C_3
REMARK    3  A    between atoms: C_6  and  C_9
REMARK    4  A    between atoms: C_12  and  C_15
REMARK    5  A    between atoms: C_20  and  O_21
REMARK    6  A    between atoms: C_28  and  C_29
REMARK    7  A    between atoms: C_32  and  O_35
REMARK                            x       y       z     vdW  Elec       q    Type
REMARK                         _______ _______ _______ _____ _____    ______ ____
ROOT
ATOM      1  C   UNL     1       2.342  -2.428  -4.387  0.00  0.00    +0.069 C 
ATOM      2  N   UNL     1       2.849  -1.818  -5.404  0.00  0.00    -0.182 NA
ATOM      3  N   UNL     1       2.914  -2.595  -6.559  0.00  0.00    -0.200 N 
ATOM      4  C   UNL     1       2.364  -3.928  -6.267  0.00  0.00    +0.139 C 
ATOM      5  C   UNL     1       1.971  -3.840  -4.779  0.00  0.00    +0.087 C 
ATOM      6  C   UNL     1       3.409  -2.183  -7.772  0.00  0.00    +0.149 C 
ATOM      7  N   UNL     1       3.425  -2.974  -8.804  0.00  0.00    -0.153 NA
ATOM      8  C   UNL     1       3.905  -2.586  -9.993  0.00  0.00    +0.302 C 
ATOM      9  O   UNL     1       3.977  -3.226 -11.029  0.00  0.00    -0.260 OA
ATOM     10  S   UNL     1       4.414  -0.901  -9.688  0.00  0.00    -0.026 S 
ATOM     11  C   UNL     1       3.940  -0.821  -7.966  0.00  0.00    +0.057 C 
ATOM     12  C   UNL     1       4.042   0.208  -7.081  0.00  0.00    +0.026 C 
ENDROOT
BRANCH   1  16
ATOM     13  C   UNL     1       1.813  -0.737  -0.530  0.00  0.00    +0.120 A 
ATOM     14  C   UNL     1       2.368   0.025  -1.550  0.00  0.00    +0.046 A 
ATOM     15  C   UNL     1       2.542  -0.519  -2.803  0.00  0.00    +0.013 A 
ATOM     16  C   UNL     1       2.159  -1.841  -3.048  0.00  0.00    -0.002 A 
ATOM     17  C   UNL     1       1.601  -2.605  -2.018  0.00  0.00    +0.013 A 
ATOM     18  C   UNL     1       1.436  -2.053  -0.767  0.00  0.00    +0.046 A 
BRANCH  13  20
ATOM     19  C   UNL     1       2.052   1.162   0.880  0.00  0.00    +0.277 C 
ATOM     20  O   UNL     1       1.643  -0.196   0.705  0.00  0.00    -0.495 OA
ENDBRANCH  13  20
ENDBRANCH   1  16
BRANCH   4  21
ATOM     21  C   UNL     1       3.413  -4.991  -6.475  0.00  0.00    +0.017 A 
ATOM     22  C   UNL     1       4.753  -4.664  -6.397  0.00  0.00    +0.009 A 
ATOM     23  C   UNL     1       5.715  -5.638  -6.588  0.00  0.00    +0.001 A 
ATOM     24  C   UNL     1       5.340  -6.941  -6.856  0.00  0.00    +0.004 A 
ATOM     25  C   UNL     1       4.001  -7.273  -6.934  0.00  0.00    +0.046 A 
ATOM     26  C   UNL     1       3.033  -6.298  -6.738  0.00  0.00    +0.122 A 
BRANCH  26  27
ATOM     27  O   UNL     1       1.716  -6.624  -6.809  0.00  0.00    -0.506 OA
ATOM     28  H   UNL     1       1.338  -6.545  -7.696  0.00  0.00    +0.292 HD
ENDBRANCH  26  27
ENDBRANCH   4  21
BRANCH  12  29
ATOM     29  C   UNL     1       4.436   1.541  -7.549  0.00  0.00    -0.024 A 
ATOM     30  C   UNL     1       4.723   2.554  -6.625  0.00  0.00    +0.011 A 
ATOM     31  C   UNL     1       5.093   3.803  -7.069  0.00  0.00    +0.046 A 
ATOM     32  C   UNL     1       5.181   4.060  -8.433  0.00  0.00    +0.117 A 
ATOM     33  C   UNL     1       4.898   3.059  -9.355  0.00  0.00    +0.046 A 
ATOM     34  C   UNL     1       4.533   1.804  -8.922  0.00  0.00    +0.011 A 
BRANCH  32  35
ATOM     35  O   UNL     1       5.545   5.294  -8.866  0.00  0.00    -0.507 OA
ATOM     36  H   UNL     1       6.499   5.404  -8.983  0.00  0.00    +0.292 HD
ENDBRANCH  32  35
ENDBRANCH  12  29
TORSDOF 6
