REMARK  Name = ZINC49019531
REMARK  6 active torsions:
REMARK  status: ('A' for Active; 'I' for Inactive)
REMARK    1  A    between atoms: C_1  and  C_2
REMARK    2  A    between atoms: C_2  and  C_3
REMARK    3  A    between atoms: C_6  and  N_9
REMARK    4  A    between atoms: N_9  and  C_10
REMARK    5  A    between atoms: N_9  and  C_11
REMARK    6  A    between atoms: C_16  and  N_17
REMARK                            x       y       z     vdW  Elec       q    Type
REMARK                         _______ _______ _______ _____ _____    ______ ____
ROOT
ATOM      1  C   UNL     1       4.591  -3.441  -3.632  0.00  0.00    +0.054 A 
ATOM      2  C   UNL     1       4.383  -4.812  -3.641  0.00  0.00    +0.074 A 
ATOM      3  C   UNL     1       5.459  -5.680  -3.533  0.00  0.00    +0.164 A 
ATOM      4  C   UNL     1       6.748  -5.176  -3.416  0.00  0.00    +0.164 A 
ATOM      5  C   UNL     1       6.958  -3.805  -3.405  0.00  0.00    +0.074 A 
ATOM      6  C   UNL     1       5.884  -2.936  -3.518  0.00  0.00    +0.050 A 
ATOM      7  O   UNL     1       7.818  -6.014  -3.316  0.00  0.00    -0.485 OA
ATOM      8  C   UNL     1       7.540  -7.372  -2.955  0.00  0.00    +0.270 C 
ATOM      9  C   UNL     1       6.362  -7.864  -3.807  0.00  0.00    +0.270 C 
ATOM     10  O   UNL     1       5.234  -7.024  -3.539  0.00  0.00    -0.485 OA
ENDROOT
BRANCH   6  11
ATOM     11  N   UNL     1       6.099  -1.550  -3.513  0.00  0.00    -0.356 N 
ATOM     12  H   UNL     1       5.346  -0.942  -3.589  0.00  0.00    +0.142 HD
ATOM     13  H   UNL     1       6.999  -1.198  -3.434  0.00  0.00    +0.142 HD
ENDBRANCH   6  11
BRANCH   1  14
ATOM     14  N   UNL     1       3.501  -2.565  -3.743  0.00  0.00    -0.328 N 
ATOM     15  C   UNL     1       3.049  -2.122  -5.064  0.00  0.00    +0.129 C 
BRANCH  14  19
ATOM     16  C   UNL     1       0.718  -0.497  -1.257  0.00  0.00    -0.011 C 
ATOM     17  C   UNL     1       2.187  -0.073  -1.207  0.00  0.00    +0.005 C 
ATOM     18  C   UNL     1       2.904  -0.566  -2.466  0.00  0.00    +0.023 C 
ATOM     19  C   UNL     1       2.816  -2.092  -2.538  0.00  0.00    +0.073 C 
ATOM     20  C   UNL     1       1.347  -2.517  -2.587  0.00  0.00    +0.023 C 
ATOM     21  C   UNL     1       0.630  -2.023  -1.329  0.00  0.00    +0.005 C 
BRANCH  16  23
ATOM     22  C   UNL     1      -0.019   1.526   0.010  0.00  0.00    +0.004 C 
ATOM     23  C   UNL     1       0.002  -0.004   0.002  0.00  0.00    -0.000 C 
ENDBRANCH  16  23
ENDBRANCH  14  19
ENDBRANCH   1  14
TORSDOF 4
