REMARK  Name = ZINC39697742
REMARK  5 active torsions:
REMARK  status: ('A' for Active; 'I' for Inactive)
REMARK    1  A    between atoms: C_1  and  O_2
REMARK    2  A    between atoms: O_2  and  C_3
REMARK    3  A    between atoms: C_8  and  C_15
REMARK    4  A    between atoms: C_17  and  N_26
REMARK    5  A    between atoms: N_26  and  C_27
REMARK                            x       y       z     vdW  Elec       q    Type
REMARK                         _______ _______ _______ _____ _____    ______ ____
ROOT
ATOM      1  C   UNL     1       3.873  -4.367  -4.370  0.00  0.00    +0.126 C 
ATOM      2  C   UNL     1       4.123  -5.885  -4.423  0.00  0.00    +0.049 C 
ATOM      3  N   UNL     1       4.894  -6.064  -5.665  0.00  0.00    -0.304 N 
ATOM      4  C   UNL     1       5.399  -7.197  -6.234  0.00  0.00    +0.075 C 
ATOM      5  C   UNL     1       6.087  -7.144  -7.393  0.00  0.00    +0.015 C 
ATOM      6  C   UNL     1       6.293  -5.909  -8.032  0.00  0.00    +0.005 C 
ATOM      7  C   UNL     1       5.799  -4.774  -7.480  0.00  0.00    +0.043 C 
ATOM      8  C   UNL     1       5.073  -4.841  -6.257  0.00  0.00    +0.119 C 
ATOM      9  N   UNL     1       4.525  -3.852  -5.578  0.00  0.00    -0.265 NA
ENDROOT
BRANCH   1  15
ATOM     10  C   UNL     1      -0.096  -1.980  -8.266  0.00  0.00    +0.122 A 
ATOM     11  C   UNL     1       0.010  -3.334  -8.619  0.00  0.00    +0.046 A 
ATOM     12  C   UNL     1       0.626  -4.227  -7.807  0.00  0.00    +0.013 A 
ATOM     13  C   UNL     1       1.190  -3.763  -6.537  0.00  0.00    -0.007 A 
ATOM     14  C   UNL     1       1.816  -4.631  -5.697  0.00  0.00    -0.003 C 
ATOM     15  C   UNL     1       2.372  -4.069  -4.403  0.00  0.00    +0.123 C 
ATOM     16  C   UNL     1       2.187  -2.590  -4.150  0.00  0.00    +0.226 C 
ATOM     17  O   UNL     1       2.615  -2.087  -3.128  0.00  0.00    -0.275 OA
ATOM     18  N   UNL     1       1.560  -1.846  -5.044  0.00  0.00    -0.284 N 
ATOM     19  C   UNL     1       1.069  -2.336  -6.184  0.00  0.00    +0.044 A 
ATOM     20  C   UNL     1       0.420  -1.484  -7.088  0.00  0.00    +0.069 A 
ATOM     21  H   UNL     1       1.452  -0.899  -4.863  0.00  0.00    +0.155 HD
BRANCH  10  23
ATOM     22  C   UNL     1      -1.241  -1.686 -10.324  0.00  0.00    +0.277 C 
ATOM     23  O   UNL     1      -0.722  -1.130  -9.114  0.00  0.00    -0.495 OA
ENDBRANCH  10  23
ENDBRANCH   1  15
BRANCH   2  24
ATOM     24  N   UNL     1       4.904  -6.321  -3.258  0.00  0.00    +0.395 N 
ATOM     25  H   UNL     1       5.833  -5.931  -3.311  0.00  0.00    -0.083 HD
ATOM     26  H   UNL     1       4.454  -6.003  -2.413  0.00  0.00    -0.083 HD
BRANCH  24  27
ATOM     27  C   UNL     1       4.988  -7.788  -3.246  0.00  0.00    -0.069 C 
ATOM     28  C   UNL     1       3.589  -8.395  -3.018  0.00  0.00    -0.016 C 
ATOM     29  C   UNL     1       3.853  -9.630  -2.121  0.00  0.00    -0.002 C 
ATOM     30  C   UNL     1       4.972  -9.132  -1.173  0.00  0.00    -0.002 C 
ATOM     31  C   UNL     1       5.867  -8.256  -2.074  0.00  0.00    -0.016 C 
ENDBRANCH  24  27
ENDBRANCH   2  24
TORSDOF 4
