REMARK  Name = ZINC39699217
REMARK  9 active torsions:
REMARK  status: ('A' for Active; 'I' for Inactive)
REMARK    1  A    between atoms: C_1  and  C_2
REMARK    2  A    between atoms: C_2  and  C_3
REMARK    3  A    between atoms: C_10  and  C_15
REMARK    4  A    between atoms: C_15  and  C_17
REMARK    5  A    between atoms: C_15  and  N_27
REMARK    6  A    between atoms: N_22  and  C_23
REMARK    7  A    between atoms: C_23  and  C_24
REMARK    8  A    between atoms: C_23  and  C_25
REMARK    9  A    between atoms: C_23  and  C_26
REMARK                            x       y       z     vdW  Elec       q    Type
REMARK                         _______ _______ _______ _____ _____    ______ ____
ROOT
ATOM      1  C   UNL     1       1.485   0.143   6.876  0.00  0.00    -0.010 C 
ENDROOT
BRANCH   1   9
ATOM      2  C   UNL     1       3.062  -2.054   1.705  0.00  0.00    -0.047 A 
ATOM      3  C   UNL     1       4.022  -1.059   1.521  0.00  0.00    +0.005 A 
ATOM      4  C   UNL     1       4.416  -0.227   2.520  0.00  0.00    +0.024 A 
ATOM      5  C   UNL     1       3.858  -0.340   3.806  0.00  0.00    +0.040 A 
ATOM      6  N   UNL     1       4.251   0.482   4.778  0.00  0.00    -0.285 N 
ATOM      7  C   UNL     1       3.768   0.429   6.008  0.00  0.00    +0.223 C 
ATOM      8  O   UNL     1       4.167   1.207   6.854  0.00  0.00    -0.275 OA
ATOM      9  C   UNL     1       2.718  -0.601   6.358  0.00  0.00    +0.088 C 
ATOM     10  C   UNL     1       2.267  -1.538   5.256  0.00  0.00    -0.006 C 
ATOM     11  C   UNL     1       2.841  -1.383   4.029  0.00  0.00    -0.007 A 
ATOM     12  C   UNL     1       2.460  -2.242   2.907  0.00  0.00    +0.013 A 
ATOM     13  H   UNL     1       4.924   1.150   4.574  0.00  0.00    +0.155 HD
BRANCH   2  15
ATOM     14  C   UNL     1       1.519  -2.298  -0.221  0.00  0.00    +0.009 C 
ATOM     15  C   UNL     1       2.681  -2.936   0.543  0.00  0.00    +0.032 C 
ENDBRANCH   2  15
ENDBRANCH   1   9
BRANCH   1  16
ATOM     16  C   UNL     1       1.403   1.519   6.211  0.00  0.00    +0.205 C 
ATOM     17  N   UNL     1       0.933   2.525   7.173  0.00  0.00    -0.152 NA
ATOM     18  N   UNL     1      -0.126   3.004   6.763  0.00  0.00    -0.070 NA
ATOM     19  N   UNL     1      -0.536   2.455   5.548  0.00  0.00    -0.179 N 
ATOM     20  N   UNL     1       0.381   1.516   5.144  0.00  0.00    -0.183 NA
ATOM     21  H   UNL     1      -1.341   2.698   5.065  0.00  0.00    +0.191 HD
BRANCH  20  22
ATOM     22  C   UNL     1      -0.242   0.192   5.015  0.00  0.00    +0.035 C 
ATOM     23  C   UNL     1      -1.255  -0.007   6.145  0.00  0.00    +0.029 C 
ATOM     24  C   UNL     1      -0.957   0.093   3.666  0.00  0.00    +0.029 C 
ATOM     25  C   UNL     1       0.836  -0.890   5.101  0.00  0.00    +0.029 C 
ENDBRANCH  20  22
ENDBRANCH   1  16
BRANCH   1  26
ATOM     26  N   UNL     1       1.588   0.308   8.332  0.00  0.00    +0.385 N 
ATOM     27  C   UNL     1       0.359   0.950   8.863  0.00  0.00    -0.078 C 
ATOM     28  C   UNL     1       0.364   0.546  10.358  0.00  0.00    -0.020 C 
ATOM     29  C   UNL     1       0.904  -0.903  10.322  0.00  0.00    -0.020 C 
ATOM     30  C   UNL     1       1.668  -1.014   8.990  0.00  0.00    -0.078 C 
ATOM     31  H   UNL     1       2.399   0.861   8.563  0.00  0.00    -0.081 HD
ENDBRANCH   1  26
TORSDOF 5
