REMARK  Name = ZINC14991360
REMARK  12 active torsions:
REMARK  status: ('A' for Active; 'I' for Inactive)
REMARK    1  A    between atoms: C_1  and  C_2
REMARK    2  A    between atoms: C_2  and  O_3
REMARK    3  A    between atoms: O_3  and  C_4
REMARK    4  A    between atoms: C_4  and  C_6
REMARK    5  A    between atoms: C_13  and  C_26
REMARK    6  A    between atoms: C_16  and  O_24
REMARK    7  A    between atoms: C_19  and  O_22
REMARK    8  A    between atoms: O_22  and  C_23
REMARK    9  A    between atoms: O_24  and  C_25
REMARK   10  A    between atoms: C_26  and  N_27
REMARK   11  A    between atoms: N_27  and  C_28
REMARK   12  A    between atoms: C_28  and  C_29
REMARK                            x       y       z     vdW  Elec       q    Type
REMARK                         _______ _______ _______ _____ _____    ______ ____
ROOT
ATOM      1  C   UNL     1       3.623   6.084  -0.423  0.00  0.00    +0.101 C 
ATOM      2  C   UNL     1       3.356   5.228  -1.664  0.00  0.00    +0.033 C 
ATOM      3  C   UNL     1       2.011   4.514  -1.507  0.00  0.00    +0.107 C 
ATOM      4  N   UNL     1       2.042   3.670  -0.305  0.00  0.00    -0.315 N 
ATOM      5  C   UNL     1       2.249   4.476   0.905  0.00  0.00    +0.107 C 
ATOM      6  C   UNL     1       3.601   5.188   0.819  0.00  0.00    +0.033 C 
ATOM      7  C   UNL     1       0.886   2.908  -0.203  0.00  0.00    +0.123 A 
ATOM      8  C   UNL     1       0.992   1.514  -0.102  0.00  0.00    -0.024 A 
ATOM      9  C   UNL     1      -0.135   0.754  -0.001  0.00  0.00    +0.018 A 
ATOM     10  C   UNL     1      -1.383   1.406  -0.009  0.00  0.00    +0.046 A 
ATOM     11  C   UNL     1      -2.586   0.680   0.086  0.00  0.00    +0.129 A 
ATOM     12  C   UNL     1      -3.787   1.353   0.074  0.00  0.00    +0.050 A 
ATOM     13  C   UNL     1      -3.823   2.740  -0.030  0.00  0.00    +0.051 A 
ATOM     14  C   UNL     1      -2.672   3.470  -0.110  0.00  0.00    +0.146 A 
ATOM     15  C   UNL     1      -1.424   2.817  -0.108  0.00  0.00    +0.118 A 
ATOM     16  N   UNL     1      -0.284   3.512  -0.204  0.00  0.00    -0.228 NA
ENDROOT
BRANCH   1  17
ATOM     17  C   UNL     1       4.973   6.742  -0.546  0.00  0.00    +0.310 C 
ATOM     18  O   UNL     1       5.653   6.547  -1.525  0.00  0.00    -0.251 OA
BRANCH  17  19
ATOM     19  O   UNL     1       5.420   7.545   0.433  0.00  0.00    -0.465 OA
BRANCH  19  21
ATOM     20  C   UNL     1       7.065   9.020   1.457  0.00  0.00    +0.048 C 
ATOM     21  C   UNL     1       6.729   8.145   0.247  0.00  0.00    +0.229 C 
ENDBRANCH  19  21
ENDBRANCH  17  19
ENDBRANCH   1  17
BRANCH  14  22
ATOM     22  O   UNL     1      -2.731   4.825  -0.210  0.00  0.00    -0.493 OA
ATOM     23  C   UNL     1      -4.030   5.420  -0.206  0.00  0.00    +0.277 C 
ENDBRANCH  14  22
BRANCH  11  24
ATOM     24  O   UNL     1      -2.562  -0.675   0.187  0.00  0.00    -0.494 OA
ATOM     25  C   UNL     1      -3.823  -1.342   0.279  0.00  0.00    +0.277 C 
ENDBRANCH  11  24
BRANCH   8  26
ATOM     26  C   UNL     1       2.348   0.858  -0.104  0.00  0.00    -0.043 C 
BRANCH  26  27
ATOM     27  N   UNL     1       2.877   0.830  -1.474  0.00  0.00    +0.382 N 
ATOM     28  H   UNL     1       2.154   0.331  -2.136  0.00  0.00    -0.085 HD
ATOM     29  H   UNL     1       3.044   1.860  -1.823  0.00  0.00    -0.085 HD
BRANCH  27  30
ATOM     30  C   UNL     1       4.151   0.101  -1.532  0.00  0.00    -0.078 C 
BRANCH  30  31
ATOM     31  C   UNL     1       4.737   0.210  -2.942  0.00  0.00    -0.020 C 
ATOM     32  C   UNL     1       3.830  -0.519  -3.967  0.00  0.00    +0.010 C 
ATOM     33  C   UNL     1       4.758  -1.640  -4.549  0.00  0.00    +0.018 C 
ATOM     34  C   UNL     1       5.822  -0.844  -5.324  0.00  0.00    -0.027 C 
ATOM     35  C   UNL     1       6.595  -0.223  -4.450  0.00  0.00    -0.027 C 
ATOM     36  C   UNL     1       6.096  -0.565  -3.035  0.00  0.00    +0.019 C 
ATOM     37  C   UNL     1       5.577  -2.000  -3.287  0.00  0.00    -0.017 C 
ATOM     38  C   UNL     1       6.375  -3.253  -3.102  0.00  0.00    +0.008 C 
ATOM     39  C   UNL     1       5.147  -2.962  -2.223  0.00  0.00    +0.008 C 
ENDBRANCH  30  31
ENDBRANCH  27  30
ENDBRANCH  26  27
ENDBRANCH   8  26
TORSDOF 9
