REMARK  Name = ZINC08901198
REMARK  7 active torsions:
REMARK  status: ('A' for Active; 'I' for Inactive)
REMARK    1  A    between atoms: C_1  and  C_2
REMARK    2  A    between atoms: C_5  and  N_9
REMARK    3  A    between atoms: C_6  and  C_8
REMARK    4  A    between atoms: C_10  and  S_14
REMARK    5  A    between atoms: S_14  and  C_15
REMARK    6  A    between atoms: C_15  and  C_16
REMARK    7  A    between atoms: C_29  and  C_31
REMARK                            x       y       z     vdW  Elec       q    Type
REMARK                         _______ _______ _______ _____ _____    ______ ____
ROOT
ATOM      1  C   UNL     1       6.588   0.994  -0.734  0.00  0.00    +0.230 C 
ATOM      2  O   UNL     1       5.975  -0.041  -0.579  0.00  0.00    -0.274 OA
ATOM      3  N   UNL     1       7.925   0.967  -0.905  0.00  0.00    -0.266 N 
ATOM      4  C   UNL     1       8.646   2.154  -1.091  0.00  0.00    +0.058 A 
ATOM      5  C   UNL     1       8.562   2.850  -2.286  0.00  0.00    +0.025 A 
ATOM      6  C   UNL     1       9.305   4.002  -2.464  0.00  0.00    +0.002 A 
ATOM      7  C   UNL     1      10.132   4.462  -1.455  0.00  0.00    +0.002 A 
ATOM      8  C   UNL     1      10.214   3.776  -0.241  0.00  0.00    +0.025 A 
ATOM      9  C   UNL     1       9.462   2.628  -0.056  0.00  0.00    +0.055 A 
ATOM     10  N   UNL     1       9.498   1.930   1.157  0.00  0.00    -0.284 N 
ATOM     11  C   UNL     1       9.682   0.591   1.175  0.00  0.00    +0.219 C 
ATOM     12  O   UNL     1       9.634  -0.009   2.228  0.00  0.00    -0.275 OA
ATOM     13  C   UNL     1       9.945  -0.162  -0.102  0.00  0.00    +0.118 C 
ATOM     14  C   UNL     1       8.651  -0.303  -0.906  0.00  0.00    +0.087 C 
ATOM     15  C   UNL     1       8.988  -0.696  -2.346  0.00  0.00    +0.029 C 
ATOM     16  H   UNL     1       9.390   2.412   1.992  0.00  0.00    +0.155 HD
ENDROOT
BRANCH   1  17
ATOM     17  C   UNL     1       5.855   2.311  -0.735  0.00  0.00    +0.173 C 
BRANCH  17  18
ATOM     18  S   UNL     1       4.087   2.017  -0.485  0.00  0.00    -0.075 S 
BRANCH  18  20
ATOM     19  N   UNL     1       2.202   4.073  -0.391  0.00  0.00    -0.187 N 
ATOM     20  C   UNL     1       3.492   3.675  -0.529  0.00  0.00    +0.214 A 
ATOM     21  N   UNL     1       4.214   4.761  -0.705  0.00  0.00    -0.101 NA
ATOM     22  N   UNL     1       3.468   5.806  -0.677  0.00  0.00    -0.022 NA
ATOM     23  N   UNL     1       2.237   5.475  -0.491  0.00  0.00    -0.038 NA
BRANCH  19  28
ATOM     24  C   UNL     1      -2.357   0.792   0.429  0.00  0.00    +0.044 C 
ATOM     25  C   UNL     1      -1.145   1.662   0.213  0.00  0.00    -0.050 A 
ATOM     26  C   UNL     1      -0.237   1.346  -0.782  0.00  0.00    +0.005 A 
ATOM     27  C   UNL     1       0.871   2.144  -0.986  0.00  0.00    +0.028 A 
ATOM     28  C   UNL     1       1.077   3.261  -0.187  0.00  0.00    +0.073 A 
ATOM     29  C   UNL     1       0.167   3.573   0.814  0.00  0.00    -0.025 A 
ATOM     30  C   UNL     1      -0.940   2.771   1.013  0.00  0.00    +0.008 A 
ATOM     31  C   UNL     1       0.387   4.785   1.682  0.00  0.00    +0.046 C 
ENDBRANCH  19  28
ENDBRANCH  18  20
ENDBRANCH  17  18
ENDBRANCH   1  17
TORSDOF 4
