REMARK  Name = ZINC06793077
REMARK  7 active torsions:
REMARK  status: ('A' for Active; 'I' for Inactive)
REMARK    1  A    between atoms: C_1  and  C_2
REMARK    2  A    between atoms: C_5  and  N_9
REMARK    3  A    between atoms: C_6  and  C_8
REMARK    4  A    between atoms: N_9  and  C_10
REMARK    5  A    between atoms: C_10  and  C_11
REMARK    6  A    between atoms: N_13  and  N_14
REMARK    7  A    between atoms: C_18  and  C_26
REMARK                            x       y       z     vdW  Elec       q    Type
REMARK                         _______ _______ _______ _____ _____    ______ ____
ROOT
ATOM      1  C   UNL     1       0.216  -6.373  -1.042  0.00  0.00    +0.249 C 
ATOM      2  O   UNL     1       0.485  -6.777   0.068  0.00  0.00    -0.272 OA
ATOM      3  N   UNL     1       0.011  -7.248  -2.047  0.00  0.00    -0.205 N 
ATOM      4  H   UNL     1      -0.205  -6.924  -2.936  0.00  0.00    +0.177 HD
ENDROOT
BRANCH   3   5
ATOM      5  N   UNL     1       0.108  -8.625  -1.807  0.00  0.00    -0.174 NA
ATOM      6  C   UNL     1       0.016  -9.472  -2.803  0.00  0.00    +0.153 C 
ATOM      7  C   UNL     1      -0.006  -9.162  -4.252  0.00  0.00    +0.028 A 
ATOM      8  C   UNL     1       0.057  -7.974  -4.972  0.00  0.00    +0.016 A 
ATOM      9  C   UNL     1       0.011  -8.006  -6.352  0.00  0.00    -0.036 A 
ATOM     10  C   UNL     1      -0.097  -9.218  -7.014  0.00  0.00    +0.023 A 
ATOM     11  C   UNL     1      -0.161 -10.403  -6.307  0.00  0.00    +0.039 A 
ATOM     12  C   UNL     1      -0.116 -10.389  -4.917  0.00  0.00    +0.044 A 
ATOM     13  N   UNL     1      -0.161 -11.417  -3.982  0.00  0.00    -0.280 N 
ATOM     14  C   UNL     1      -0.083 -10.943  -2.727  0.00  0.00    +0.269 C 
ATOM     15  O   UNL     1      -0.093 -11.609  -1.708  0.00  0.00    -0.268 OA
ATOM     16 BR   UNL     1      -0.158  -9.251  -8.904  0.00  0.00    -0.050 Br
ATOM     17  C   UNL     1       0.079  -6.722  -7.137  0.00  0.00    +0.045 C 
ATOM     18  H   UNL     1      -0.236 -12.358  -4.207  0.00  0.00    +0.155 HD
ENDBRANCH   3   5
BRANCH   1  19
ATOM     19  C   UNL     1       0.111  -4.892  -1.300  0.00  0.00    +0.199 C 
BRANCH  19  20
ATOM     20  N   UNL     1       0.375  -4.160  -0.059  0.00  0.00    -0.335 N 
ATOM     21  H   UNL     1       0.579  -4.645   0.756  0.00  0.00    +0.147 HD
BRANCH  20  26
ATOM     22  C   UNL     1       0.208   1.508  -0.018  0.00  0.00    +0.044 C 
ATOM     23  C   UNL     1       0.253   0.002  -0.029  0.00  0.00    -0.050 A 
ATOM     24  C   UNL     1       0.003  -0.687  -1.202  0.00  0.00    +0.005 A 
ATOM     25  C   UNL     1       0.043  -2.067  -1.215  0.00  0.00    +0.023 A 
ATOM     26  C   UNL     1       0.334  -2.764  -0.049  0.00  0.00    +0.030 A 
ATOM     27  C   UNL     1       0.585  -2.069   1.127  0.00  0.00    -0.029 A 
ATOM     28  C   UNL     1       0.548  -0.688   1.132  0.00  0.00    +0.008 A 
ATOM     29  C   UNL     1       0.900  -2.820   2.395  0.00  0.00    +0.045 C 
ENDBRANCH  20  26
ENDBRANCH  19  20
ENDBRANCH   1  19
TORSDOF 4
