REMARK  Name = ZINC13128619
REMARK  10 active torsions:
REMARK  status: ('A' for Active; 'I' for Inactive)
REMARK    1  A    between atoms: C_8  and  N_11
REMARK    2  A    between atoms: N_11  and  N_12
REMARK    3  A    between atoms: C_13  and  S_22
REMARK    4  A    between atoms: N_14  and  C_15
REMARK    5  A    between atoms: C_15  and  C_16
REMARK    6  A    between atoms: S_22  and  C_23
REMARK    7  A    between atoms: C_23  and  C_24
REMARK    8  A    between atoms: C_24  and  C_25
REMARK    9  A    between atoms: C_25  and  C_26
REMARK   10  A    between atoms: C_26  and  N_27
REMARK                            x       y       z     vdW  Elec       q    Type
REMARK                         _______ _______ _______ _____ _____    ______ ____
ROOT
ATOM      1  N   UNL     1      -0.542  -2.859   0.041  0.00  0.00    -0.247 N 
ATOM      2  C   UNL     1      -1.307  -4.001  -0.026  0.00  0.00    +0.144 C 
ATOM      3  N   UNL     1      -0.740  -5.172   0.066  0.00  0.00    -0.364 N 
ATOM      4  H   UNL     1       0.426  -2.925   0.070  0.00  0.00    +0.172 HD
ATOM      5  H   UNL     1      -1.286  -5.973   0.102  0.00  0.00    +0.161 HD
ENDROOT
BRANCH   1   6
ATOM      6  N   UNL     1      -1.160  -1.602   0.066  0.00  0.00    -0.260 N 
ATOM      7  H   UNL     1      -1.337  -1.132  -0.763  0.00  0.00    +0.170 HD
BRANCH   6  15
ATOM      8  C   UNL     1      -0.454  -2.889   4.368  0.00  0.00    +0.001 A 
ATOM      9  C   UNL     1      -1.005  -1.985   5.262  0.00  0.00    +0.002 A 
ATOM     10  C   UNL     1      -1.672  -0.857   4.812  0.00  0.00    +0.024 A 
ATOM     11  C   UNL     1      -1.796  -0.616   3.447  0.00  0.00    +0.043 A 
ATOM     12  N   UNL     1      -2.392   0.398   2.756  0.00  0.00    -0.280 N 
ATOM     13  C   UNL     1      -2.271   0.225   1.452  0.00  0.00    +0.264 C 
ATOM     14  O   UNL     1      -2.700   0.964   0.586  0.00  0.00    -0.268 OA
ATOM     15  C   UNL     1      -1.505  -1.052   1.233  0.00  0.00    +0.116 C 
ATOM     16  C   UNL     1      -1.230  -1.542   2.533  0.00  0.00    +0.024 A 
ATOM     17  C   UNL     1      -0.560  -2.677   3.007  0.00  0.00    +0.012 A 
ATOM     18  H   UNL     1      -2.847   1.149   3.169  0.00  0.00    +0.155 HD
ENDBRANCH   6  15
ENDBRANCH   1   6
BRANCH   3  19
ATOM     19  C   UNL     1       0.720  -5.277   0.114  0.00  0.00    +0.146 C 
BRANCH  19  20
ATOM     20  C   UNL     1       1.126  -6.752   0.106  0.00  0.00    +0.137 C 
ATOM     21  C   UNL     1       2.667  -6.887   0.192  0.00  0.00    +0.035 C 
ATOM     22  C   UNL     1       2.805  -8.306   0.807  0.00  0.00    +0.031 C 
ATOM     23  C   UNL     1       1.577  -8.380   1.739  0.00  0.00    +0.160 C 
ATOM     24  O   UNL     1       0.623  -7.413   1.278  0.00  0.00    -0.375 OA
ENDBRANCH  19  20
ENDBRANCH   3  19
BRANCH   2  25
ATOM     25  S   UNL     1      -3.052  -3.880  -0.236  0.00  0.00    -0.091 S 
BRANCH  25  26
ATOM     26  C   UNL     1      -3.611  -5.606  -0.266  0.00  0.00    +0.077 C 
BRANCH  26  27
ATOM     27  C   UNL     1      -5.129  -5.648  -0.445  0.00  0.00    +0.013 C 
BRANCH  27  28
ATOM     28  C   UNL     1      -5.600  -7.103  -0.470  0.00  0.00    +0.020 C 
BRANCH  28  29
ATOM     29  C   UNL     1      -7.119  -7.145  -0.649  0.00  0.00    +0.117 C 
BRANCH  29  30
ATOM     30  N   UNL     1      -7.570  -8.538  -0.674  0.00  0.00    -0.234 N 
ATOM     31  C   UNL     1      -7.668  -9.287  -1.787  0.00  0.00    +0.254 C 
ATOM     32  O   UNL     1      -7.402  -8.921  -2.914  0.00  0.00    -0.270 OA
ATOM     33  C   UNL     1      -8.155 -10.631  -1.409  0.00  0.00    +0.049 A 
ATOM     34  C   UNL     1      -8.440 -11.790  -2.113  0.00  0.00    +0.014 A 
ATOM     35  C   UNL     1      -8.893 -12.911  -1.435  0.00  0.00    +0.001 A 
ATOM     36  C   UNL     1      -9.062 -12.881  -0.064  0.00  0.00    +0.001 A 
ATOM     37  C   UNL     1      -8.781 -11.728   0.653  0.00  0.00    +0.014 A 
ATOM     38  C   UNL     1      -8.327 -10.600  -0.011  0.00  0.00    +0.049 A 
ATOM     39  C   UNL     1      -7.935  -9.239   0.415  0.00  0.00    +0.254 C 
ATOM     40  O   UNL     1      -7.943  -8.824   1.556  0.00  0.00    -0.270 OA
ENDBRANCH  29  30
ENDBRANCH  28  29
ENDBRANCH  27  28
ENDBRANCH  26  27
ENDBRANCH  25  26
ENDBRANCH   2  25
TORSDOF 10
