REMARK  Name = ZINC12136815
REMARK  15 active torsions:
REMARK  status: ('A' for Active; 'I' for Inactive)
REMARK    1  A    between atoms: C_1  and  C_2
REMARK    2  A    between atoms: C_2  and  C_3
REMARK    3  A    between atoms: C_3  and  C_4
REMARK    4  A    between atoms: C_4  and  C_5
REMARK    5  A    between atoms: C_5  and  C_6
REMARK    6  A    between atoms: C_6  and  C_8
REMARK    7  A    between atoms: C_6  and  N_9
REMARK    8  A    between atoms: C_10  and  C_12
REMARK    9  A    between atoms: C_12  and  S_13
REMARK   10  A    between atoms: S_13  and  C_14
REMARK   11  A    between atoms: C_17  and  C_29
REMARK   12  A    between atoms: N_18  and  C_19
REMARK   13  A    between atoms: C_22  and  O_25
REMARK   14  A    between atoms: O_25  and  C_26
REMARK   15  A    between atoms: C_29  and  N_69
REMARK                            x       y       z     vdW  Elec       q    Type
REMARK                         _______ _______ _______ _____ _____    ______ ____
ROOT
ATOM      1  C   UNL     1      -2.579  -3.190   0.010  0.00  0.00    +0.197 A 
ATOM      2  N   UNL     1      -3.690  -2.491   0.030  0.00  0.00    -0.122 NA
ATOM      3  N   UNL     1      -4.705  -3.280   0.031  0.00  0.00    -0.135 NA
ATOM      4  C   UNL     1      -4.307  -4.521   0.020  0.00  0.00    +0.122 A 
ATOM      5  N   UNL     1      -2.938  -4.510   0.006  0.00  0.00    -0.276 N 
ENDROOT
BRANCH   5   6
ATOM      6  C   UNL     1      -2.080  -5.622  -0.009  0.00  0.00    +0.050 A 
ATOM      7  C   UNL     1      -2.074  -6.479  -1.100  0.00  0.00    +0.030 A 
ATOM      8  C   UNL     1      -1.227  -7.570  -1.116  0.00  0.00    +0.048 A 
ATOM      9  C   UNL     1      -0.391  -7.814  -0.037  0.00  0.00    +0.127 A 
ATOM     10  C   UNL     1      -0.401  -6.961   1.057  0.00  0.00    +0.048 A 
ATOM     11  C   UNL     1      -1.243  -5.867   1.071  0.00  0.00    +0.030 A 
BRANCH   9  12
ATOM     12  O   UNL     1       0.440  -8.891  -0.051  0.00  0.00    -0.434 OA
BRANCH  12  13
ATOM     13  C   UNL     1       0.398  -9.727  -1.209  0.00  0.00    +0.541 C 
ATOM     14  F   UNL     1      -0.892 -10.246  -1.364  0.00  0.00    -0.166 F 
ATOM     15  F   UNL     1       0.738  -8.976  -2.339  0.00  0.00    -0.166 F 
ENDBRANCH  12  13
ENDBRANCH   9  12
ENDBRANCH   5   6
BRANCH   1  16
ATOM     16  S   UNL     1      -0.938  -2.550  -0.003  0.00  0.00    -0.076 S 
BRANCH  16  17
ATOM     17  C   UNL     1      -1.293  -0.775   0.010  0.00  0.00    +0.173 C 
BRANCH  17  19
ATOM     18  N   UNL     1      -0.016   1.344   0.009  0.00  0.00    -0.312 N 
ATOM     19  C   UNL     1       0.002  -0.004   0.002  0.00  0.00    +0.224 C 
ATOM     20  O   UNL     1       1.060  -0.596  -0.011  0.00  0.00    -0.275 OA
ATOM     21  H   UNL     1      -0.863   1.817   0.016  0.00  0.00    +0.149 HD
BRANCH  18  22
ATOM     22  C   UNL     1       1.242   2.093   0.001  0.00  0.00    +0.070 C 
ATOM     23  C   UNL     1       1.731   2.254  -1.440  0.00  0.00    +0.028 C 
BRANCH  22  24
ATOM     24  C   UNL     1       1.018   3.474   0.621  0.00  0.00    +0.022 C 
BRANCH  24  25
ATOM     25  C   UNL     1       0.649   3.317   2.097  0.00  0.00    +0.002 C 
BRANCH  25  26
ATOM     26  C   UNL     1       0.424   4.698   2.717  0.00  0.00    -0.000 C 
BRANCH  26  28
ATOM     27  C   UNL     1      -0.169   5.922   4.812  0.00  0.00    +0.004 C 
ATOM     28  C   UNL     1       0.056   4.541   4.193  0.00  0.00    -0.003 C 
ENDBRANCH  26  28
ENDBRANCH  25  26
ENDBRANCH  24  25
ENDBRANCH  22  24
ENDBRANCH  18  22
ENDBRANCH  17  19
ENDBRANCH  16  17
ENDBRANCH   1  16
BRANCH   4  29
ATOM     29  C   UNL     1      -5.190  -5.742   0.022  0.00  0.00    -0.001 C 
BRANCH  29  35
ATOM     30  C   UNL     1      -4.236  -6.595   2.077  0.00  0.00    -0.078 C 
ATOM     31  C   UNL     1      -4.529  -6.869   3.554  0.00  0.00    -0.019 C 
ATOM     32  C   UNL     1      -5.614  -7.943   3.664  0.00  0.00    -0.004 C 
ATOM     33  C   UNL     1      -6.865  -7.471   2.918  0.00  0.00    -0.019 C 
ATOM     34  C   UNL     1      -6.505  -7.180   1.460  0.00  0.00    -0.078 C 
ATOM     35  N   UNL     1      -5.474  -6.122   1.422  0.00  0.00    +0.384 N 
ATOM     36  H   UNL     1      -5.823  -5.298   1.926  0.00  0.00    -0.081 HD
ENDBRANCH  29  35
ENDBRANCH   4  29
TORSDOF 13
