REMARK  Name = ZINC00893382
REMARK  6 active torsions:
REMARK  status: ('A' for Active; 'I' for Inactive)
REMARK    1  A    between atoms: C_1  and  C_2
REMARK    2  A    between atoms: C_2  and  C_3
REMARK    3  A    between atoms: C_10  and  C_15
REMARK    4  A    between atoms: C_15  and  C_17
REMARK    5  A    between atoms: C_15  and  N_63
REMARK    6  A    between atoms: N_21  and  C_22
REMARK                            x       y       z     vdW  Elec       q    Type
REMARK                         _______ _______ _______ _____ _____    ______ ____
ROOT
ATOM      1  C   UNL     1       6.159  -0.614  -0.059  0.00  0.00    +0.039 C 
ENDROOT
BRANCH   1   9
ATOM      2  C   UNL     1       0.002  -0.004   0.002  0.00  0.00    -0.047 A 
ATOM      3  C   UNL     1      -0.017   1.384   0.010  0.00  0.00    +0.005 A 
ATOM      4  C   UNL     1       1.159   2.104   0.002  0.00  0.00    +0.026 A 
ATOM      5  C   UNL     1       2.378   1.434  -0.013  0.00  0.00    +0.049 A 
ATOM      6  C   UNL     1       2.393   0.026  -0.021  0.00  0.00    -0.001 A 
ATOM      7  C   UNL     1       1.187  -0.683  -0.013  0.00  0.00    +0.013 A 
ATOM      8  C   UNL     1       3.681  -0.669  -0.036  0.00  0.00    +0.017 A 
ATOM      9  C   UNL     1       4.817   0.071  -0.043  0.00  0.00    +0.011 A 
ATOM     10  C   UNL     1       4.747   1.480  -0.034  0.00  0.00    +0.251 A 
ATOM     11  O   UNL     1       5.780   2.127  -0.040  0.00  0.00    -0.268 OA
ATOM     12  N   UNL     1       3.569   2.128  -0.020  0.00  0.00    -0.322 N 
ATOM     13  H   UNL     1       3.556   3.128  -0.014  0.00  0.00    +0.169 HD
BRANCH   2  15
ATOM     14  C   UNL     1      -1.750  -1.020  -1.429  0.00  0.00    +0.009 C 
ATOM     15  C   UNL     1      -1.297  -0.769   0.011  0.00  0.00    +0.032 C 
ENDBRANCH   2  15
ENDBRANCH   1   9
BRANCH   1  21
ATOM     16  C   UNL     1       6.218  -0.308  -2.460  0.00  0.00    -0.077 C 
ATOM     17  C   UNL     1       7.000   0.344  -3.602  0.00  0.00    -0.019 C 
ATOM     18  C   UNL     1       8.388  -0.296  -3.694  0.00  0.00    -0.004 C 
ATOM     19  C   UNL     1       9.107  -0.132  -2.352  0.00  0.00    -0.019 C 
ATOM     20  C   UNL     1       8.264  -0.770  -1.246  0.00  0.00    -0.077 C 
ATOM     21  N   UNL     1       6.950  -0.093  -1.193  0.00  0.00    +0.389 N 
ATOM     22  H   UNL     1       7.099   0.914  -1.061  0.00  0.00    -0.080 HD
ENDBRANCH   1  21
BRANCH   1  23
ATOM     23  C   UNL     1       6.891  -0.314   1.224  0.00  0.00    +0.143 A 
ATOM     24  N   UNL     1       7.475   0.814   1.546  0.00  0.00    -0.115 NA
ATOM     25  N   UNL     1       7.988   0.675   2.720  0.00  0.00    -0.023 NA
ATOM     26  N   UNL     1       7.746  -0.512   3.155  0.00  0.00    -0.044 NA
ATOM     27  N   UNL     1       7.068  -1.151   2.263  0.00  0.00    -0.227 N 
BRANCH  27  28
ATOM     28  C   UNL     1       6.583  -2.530   2.361  0.00  0.00    +0.111 C 
ATOM     29  C   UNL     1       5.644  -2.657   3.563  0.00  0.00    +0.027 C 
ATOM     30  C   UNL     1       5.138  -4.097   3.666  0.00  0.00    +0.002 C 
ATOM     31  C   UNL     1       6.327  -5.043   3.845  0.00  0.00    +0.000 C 
ATOM     32  C   UNL     1       7.266  -4.917   2.644  0.00  0.00    +0.002 C 
ATOM     33  C   UNL     1       7.772  -3.477   2.541  0.00  0.00    +0.027 C 
ENDBRANCH  27  28
ENDBRANCH   1  23
TORSDOF 5
