REMARK  Name = ZINC16079418
REMARK  5 active torsions:
REMARK  status: ('A' for Active; 'I' for Inactive)
REMARK    1  A    between atoms: C_4  and  C_7
REMARK    2  A    between atoms: C_9  and  C_24
REMARK    3  A    between atoms: C_11  and  N_13
REMARK    4  A    between atoms: N_16  and  C_19
REMARK    5  A    between atoms: C_26  and  C_30
REMARK                            x       y       z     vdW  Elec       q    Type
REMARK                         _______ _______ _______ _____ _____    ______ ____
ROOT
ATOM      1  C   UNL     1       1.452  11.117  -0.052  0.00  0.00    +0.162 A 
ATOM      2  N   UNL     1       0.841  11.845  -0.974  0.00  0.00    -0.227 NA
ATOM      3  C   UNL     1       0.155  11.264  -1.957  0.00  0.00    +0.078 A 
ATOM      4  C   UNL     1       0.087   9.873  -2.006  0.00  0.00    +0.072 A 
ATOM      5  C   UNL     1       0.744   9.142  -1.016  0.00  0.00    +0.126 A 
ATOM      6  N   UNL     1       1.405   9.792  -0.064  0.00  0.00    -0.213 NA
ENDROOT
BRANCH   1  10
ATOM      7  C   UNL     1       3.611  13.082   3.039  0.00  0.00    +0.000 A 
ATOM      8  C   UNL     1       2.967  13.826   2.068  0.00  0.00    +0.001 A 
ATOM      9  C   UNL     1       2.265  13.194   1.062  0.00  0.00    +0.011 A 
ATOM     10  C   UNL     1       2.206  11.802   1.026  0.00  0.00    +0.019 A 
ATOM     11  C   UNL     1       2.852  11.057   2.011  0.00  0.00    +0.011 A 
ATOM     12  C   UNL     1       3.556  11.700   3.009  0.00  0.00    +0.001 A 
ENDBRANCH   1  10
BRANCH   5  13
ATOM     13  N   UNL     1       0.704   7.756  -1.024  0.00  0.00    -0.312 N 
ATOM     14  C   UNL     1       1.462   7.202   0.107  0.00  0.00    +0.125 C 
ATOM     15  C   UNL     1       1.460   5.674   0.018  0.00  0.00    +0.125 C 
ATOM     16  N   UNL     1       0.073   5.187   0.028  0.00  0.00    -0.314 N 
ATOM     17  C   UNL     1      -0.685   5.742  -1.102  0.00  0.00    +0.125 C 
ATOM     18  C   UNL     1      -0.683   7.270  -1.014  0.00  0.00    +0.125 C 
BRANCH  16  19
ATOM     19  C   UNL     1       0.033   3.798   0.021  0.00  0.00    +0.099 A 
ATOM     20  C   UNL     1      -1.195   3.144   0.029  0.00  0.00    +0.042 A 
ATOM     21  C   UNL     1      -1.221   1.761   0.017  0.00  0.00    +0.005 A 
ATOM     22  C   UNL     1      -0.013   1.076   0.008  0.00  0.00    +0.018 A 
ATOM     23  C   UNL     1       1.169   1.789   0.001  0.00  0.00    +0.084 A 
ATOM     24  N   UNL     1       1.232   3.147   0.007  0.00  0.00    -0.350 N 
ATOM     25  H   UNL     1       2.126   3.652   0.001  0.00  0.00    +0.166 HD
ENDBRANCH  16  19
ENDBRANCH   5  13
BRANCH   3  26
ATOM     26  C   UNL     1      -0.527  12.087  -2.987  0.00  0.00    +0.019 A 
ATOM     27  C   UNL     1      -0.378  13.475  -2.996  0.00  0.00    +0.021 A 
ATOM     28  C   UNL     1      -1.037  14.202  -3.988  0.00  0.00    +0.001 A 
ATOM     29  C   UNL     1      -1.820  13.521  -4.919  0.00  0.00    +0.119 A 
ATOM     30  N   UNL     1      -1.938  12.209  -4.872  0.00  0.00    -0.262 NA
ATOM     31  C   UNL     1      -1.329  11.486  -3.955  0.00  0.00    +0.120 A 
BRANCH  28  32
ATOM     32  C   UNL     1      -0.909  15.679  -4.049  0.00  0.00    -0.016 A 
ATOM     33  C   UNL     1      -0.128  16.352  -3.112  0.00  0.00    +0.011 A 
ATOM     34  C   UNL     1      -0.008  17.725  -3.176  0.00  0.00    +0.039 A 
ATOM     35  C   UNL     1      -0.670  18.436  -4.163  0.00  0.00    +0.123 A 
ATOM     36  C   UNL     1      -1.452  17.771  -5.094  0.00  0.00    +0.039 A 
ATOM     37  C   UNL     1      -1.574  16.397  -5.041  0.00  0.00    +0.011 A 
ATOM     38  F   UNL     1      -0.554  19.780  -4.219  0.00  0.00    -0.205 F 
ENDBRANCH  28  32
ENDBRANCH   3  26
TORSDOF 5
