REMARK  Name = ZINC24842342
REMARK  8 active torsions:
REMARK  status: ('A' for Active; 'I' for Inactive)
REMARK    1  A    between atoms: C_1  and  C_2
REMARK    2  A    between atoms: C_9  and  C_16
REMARK    3  A    between atoms: C_11  and  O_12
REMARK    4  A    between atoms: C_16  and  O_17
REMARK    5  A    between atoms: O_17  and  C_18
REMARK    6  A    between atoms: C_18  and  C_20
REMARK    7  A    between atoms: C_21  and  C_22
REMARK    8  A    between atoms: C_26  and  N_28
REMARK                            x       y       z     vdW  Elec       q    Type
REMARK                         _______ _______ _______ _____ _____    ______ ____
ROOT
ATOM      1  C   UNL     1      17.315   3.313  -0.538  0.00  0.00    +0.109 C 
ATOM      2  C   UNL     1      15.899   2.805  -0.630  0.00  0.00    +0.214 C 
ATOM      3  O   UNL     1      15.671   1.738  -1.160  0.00  0.00    -0.276 OA
ATOM      4  N   UNL     1      14.887   3.536  -0.122  0.00  0.00    -0.286 N 
ATOM      5  C   UNL     1      13.591   3.018  -0.108  0.00  0.00    +0.037 A 
ATOM      6  C   UNL     1      12.502   3.872  -0.276  0.00  0.00    +0.024 A 
ATOM      7  C   UNL     1      11.229   3.380  -0.264  0.00  0.00    +0.014 A 
ATOM      8  C   UNL     1      11.016   2.008  -0.087  0.00  0.00    +0.024 A 
ATOM      9  C   UNL     1       9.661   1.454  -0.063  0.00  0.00    +0.007 A 
ATOM     10  C   UNL     1       9.518   0.115   0.118  0.00  0.00    +0.095 A 
ATOM     11  C   UNL     1      10.659  -0.696   0.282  0.00  0.00    +0.285 A 
ATOM     12  O   UNL     1      11.899  -0.181   0.265  0.00  0.00    -0.425 OA
ATOM     13  C   UNL     1      12.110   1.141   0.089  0.00  0.00    +0.141 A 
ATOM     14  C   UNL     1      13.397   1.657   0.074  0.00  0.00    +0.070 A 
ATOM     15  H   UNL     1      15.082   4.541   0.280  0.00  0.00    +0.155 HD
ENDROOT
BRANCH  11  16
ATOM     16  O   UNL     1      10.517  -1.895   0.444  0.00  0.00    -0.480 OA
ATOM     17  H   UNL     1      11.399  -2.541   0.574  0.00  0.00    +0.295 HD
ENDBRANCH  11  16
BRANCH   9  18
ATOM     18  C   UNL     1       8.457   2.343  -0.241  0.00  0.00    +0.268 C 
BRANCH  18  19
ATOM     19  O   UNL     1       7.268   1.553  -0.183  0.00  0.00    -0.457 OA
BRANCH  19  20
ATOM     20  C   UNL     1       6.094   2.202  -0.327  0.00  0.00    +0.332 C 
ATOM     21  O   UNL     1       6.081   3.406  -0.496  0.00  0.00    -0.246 OA
BRANCH  20  22
ATOM     22  C   UNL     1       4.837   1.457  -0.278  0.00  0.00    +0.092 C 
ATOM     23  C   UNL     1       3.662   2.106  -0.421  0.00  0.00    +0.015 C 
BRANCH  23  24
ATOM     24  C   UNL     1       2.397   1.357  -0.373  0.00  0.00    -0.023 A 
ATOM     25  C   UNL     1       2.407  -0.028  -0.178  0.00  0.00    +0.009 A 
ATOM     26  C   UNL     1       1.218  -0.724  -0.133  0.00  0.00    +0.023 A 
ATOM     27  C   UNL     1       0.014  -0.054  -0.281  0.00  0.00    +0.071 A 
ATOM     28  C   UNL     1      -0.004   1.318  -0.474  0.00  0.00    +0.145 A 
ATOM     29  C   UNL     1       1.178   2.027  -0.520  0.00  0.00    +0.042 A 
ATOM     30 CL   UNL     1      -1.479  -0.938  -0.224  0.00  0.00    -0.081 Cl
BRANCH  28  31
ATOM     31  N   UNL     1      -1.295   2.024  -0.636  0.00  0.00    +0.058 N 
ATOM     32  O   UNL     1      -1.312   3.230  -0.806  0.00  0.00    -0.126 OA
ATOM     33  O   UNL     1      -2.340   1.398  -0.600  0.00  0.00    -0.126 OA
ENDBRANCH  28  31
ENDBRANCH  23  24
ENDBRANCH  20  22
ENDBRANCH  19  20
ENDBRANCH  18  19
ENDBRANCH   9  18
TORSDOF 7
