REMARK  Name = ZINC41586413
REMARK  10 active torsions:
REMARK  status: ('A' for Active; 'I' for Inactive)
REMARK    1  A    between atoms: C_1  and  C_2
REMARK    2  A    between atoms: C_2  and  O_3
REMARK    3  A    between atoms: O_3  and  C_4
REMARK    4  A    between atoms: C_4  and  C_6
REMARK    5  A    between atoms: N_11  and  C_13
REMARK    6  A    between atoms: C_13  and  C_14
REMARK    7  A    between atoms: C_15  and  O_32
REMARK    8  A    between atoms: C_17  and  C_31
REMARK    9  A    between atoms: C_22  and  C_23
REMARK   10  A    between atoms: C_24  and  C_28
REMARK                            x       y       z     vdW  Elec       q    Type
REMARK                         _______ _______ _______ _____ _____    ______ ____
ROOT
ATOM      1  C   UNL     1       2.968  -6.452  -4.723  0.00  0.00    +0.020 A 
ATOM      2  C   UNL     1       2.342  -6.778  -5.915  0.00  0.00    +0.122 A 
ATOM      3  C   UNL     1       3.074  -7.292  -6.982  0.00  0.00    +0.050 A 
ATOM      4  C   UNL     1       4.422  -7.481  -6.864  0.00  0.00    -0.033 A 
ATOM      5  C   UNL     1       5.066  -7.156  -5.670  0.00  0.00    +0.071 A 
ATOM      6  C   UNL     1       4.338  -6.632  -4.589  0.00  0.00    +0.145 A 
ATOM      7  O   UNL     1       5.187  -6.398  -3.566  0.00  0.00    -0.451 OA
ATOM      8  C   UNL     1       6.458  -6.731  -3.891  0.00  0.00    +0.177 C 
ATOM      9  C   UNL     1       7.546  -6.614  -3.076  0.00  0.00    +0.065 C 
ATOM     10  C   UNL     1       6.467  -7.233  -5.219  0.00  0.00    +0.232 C 
ATOM     11  O   UNL     1       7.429  -7.630  -5.855  0.00  0.00    -0.283 OA
ATOM     12  C   UNL     1       5.211  -8.038  -8.020  0.00  0.00    +0.045 C 
ENDROOT
BRANCH   9  13
ATOM     13  C   UNL     1       7.396  -6.107  -1.766  0.00  0.00    +0.019 A 
ATOM     14  C   UNL     1       8.365  -5.904  -0.786  0.00  0.00    -0.036 A 
ATOM     15  C   UNL     1       7.909  -5.391   0.403  0.00  0.00    +0.011 A 
ATOM     16  C   UNL     1       6.586  -5.125   0.543  0.00  0.00    +0.046 A 
ATOM     17  S   UNL     1       5.918  -5.554  -0.937  0.00  0.00    -0.097 S 
ATOM     18  C   UNL     1       9.819  -6.226  -1.017  0.00  0.00    +0.045 C 
ENDBRANCH   9  13
BRANCH   2  19
ATOM     19  O   UNL     1       1.003  -6.596  -6.044  0.00  0.00    -0.506 OA
ATOM     20  H   UNL     1       0.755  -5.724  -6.380  0.00  0.00    +0.292 HD
ENDBRANCH   2  19
BRANCH   1  21
ATOM     21  C   UNL     1       2.165  -5.896  -3.576  0.00  0.00    -0.036 C 
BRANCH  21  26
ATOM     22  C   UNL     1       1.468  -2.353  -2.550  0.00  0.00    +0.081 C 
ATOM     23  C   UNL     1       0.740  -1.887  -3.814  0.00  0.00    +0.011 C 
ATOM     24  C   UNL     1       1.403  -2.524  -5.038  0.00  0.00    -0.018 C 
ATOM     25  C   UNL     1       1.385  -4.046  -4.887  0.00  0.00    -0.078 C 
ATOM     26  N   UNL     1       2.119  -4.431  -3.675  0.00  0.00    +0.383 N 
ATOM     27  C   UNL     1       1.448  -3.882  -2.490  0.00  0.00    -0.064 C 
ATOM     28  H   UNL     1       3.059  -4.069  -3.724  0.00  0.00    -0.081 HD
BRANCH  22  29
ATOM     29  C   UNL     1       0.775  -1.794  -1.334  0.00  0.00    +0.308 C 
ATOM     30  O   UNL     1       0.314  -2.540  -0.504  0.00  0.00    -0.251 OA
BRANCH  29  31
ATOM     31  O   UNL     1       0.671  -0.465  -1.174  0.00  0.00    -0.465 OA
BRANCH  31  33
ATOM     32  C   UNL     1      -0.019   1.526   0.010  0.00  0.00    +0.048 C 
ATOM     33  C   UNL     1       0.002  -0.004   0.002  0.00  0.00    +0.229 C 
ENDBRANCH  31  33
ENDBRANCH  29  31
ENDBRANCH  22  29
ENDBRANCH  21  26
ENDBRANCH   1  21
TORSDOF 7
