REMARK  Name = ZINC09345637
REMARK  7 active torsions:
REMARK  status: ('A' for Active; 'I' for Inactive)
REMARK    1  A    between atoms: C_1  and  C_2
REMARK    2  A    between atoms: C_10  and  C_18
REMARK    3  A    between atoms: C_25  and  C_28
REMARK    4  A    between atoms: C_32  and  O_36
REMARK    5  A    between atoms: C_33  and  O_34
REMARK    6  A    between atoms: O_34  and  C_35
REMARK    7  A    between atoms: O_36  and  C_37
REMARK                            x       y       z     vdW  Elec       q    Type
REMARK                         _______ _______ _______ _____ _____    ______ ____
ROOT
ATOM      1  C   UNL     1      -0.374   1.564   1.005  0.00  0.00    +0.044 C 
ATOM      2  C   UNL     1      -0.290   0.092   0.694  0.00  0.00    -0.050 A 
ATOM      3  C   UNL     1      -0.325  -0.337  -0.622  0.00  0.00    +0.007 A 
ATOM      4  C   UNL     1      -0.249  -1.685  -0.922  0.00  0.00    +0.046 A 
ATOM      5  C   UNL     1      -0.138  -2.614   0.097  0.00  0.00    +0.131 A 
ATOM      6  C   UNL     1      -0.102  -2.178   1.428  0.00  0.00    +0.043 A 
ATOM      7  C   UNL     1      -0.174  -0.824   1.722  0.00  0.00    +0.017 A 
ATOM      8  C   UNL     1       0.024  -3.200   2.498  0.00  0.00    +0.083 C 
ATOM      9  C   UNL     1       0.417  -4.438   2.135  0.00  0.00    +0.028 C 
ATOM     10  C   UNL     1       0.540  -5.490   3.214  0.00  0.00    +0.166 C 
ATOM     11  N   UNL     1       0.214  -5.054   4.580  0.00  0.00    -0.182 N 
ATOM     12  C   UNL     1      -0.165  -3.758   4.783  0.00  0.00    +0.209 C 
ATOM     13  N   UNL     1      -0.248  -2.899   3.792  0.00  0.00    -0.216 NA
ATOM     14  N   UNL     1      -0.402  -3.632   6.127  0.00  0.00    -0.275 N 
ATOM     15  C   UNL     1      -0.166  -4.849   6.720  0.00  0.00    +0.208 C 
ATOM     16  N   UNL     1       0.200  -5.701   5.816  0.00  0.00    -0.169 NA
ATOM     17  C   UNL     1       0.729  -4.750   0.701  0.00  0.00    +0.238 C 
ATOM     18  O   UNL     1      -0.066  -3.942  -0.170  0.00  0.00    -0.479 OA
ATOM     19  H   UNL     1      -0.687  -2.824   6.581  0.00  0.00    +0.156 HD
ENDROOT
BRANCH  10  20
ATOM     20  C   UNL     1       1.958  -6.000   3.214  0.00  0.00    +0.014 A 
ATOM     21  C   UNL     1       2.897  -5.433   4.055  0.00  0.00    +0.009 A 
ATOM     22  C   UNL     1       4.198  -5.900   4.055  0.00  0.00    +0.001 A 
ATOM     23  C   UNL     1       4.562  -6.936   3.214  0.00  0.00    +0.003 A 
ATOM     24  C   UNL     1       3.625  -7.505   2.373  0.00  0.00    +0.039 A 
ATOM     25  C   UNL     1       2.320  -7.040   2.376  0.00  0.00    +0.129 A 
ATOM     26  F   UNL     1       1.402  -7.599   1.557  0.00  0.00    -0.205 F 
ENDBRANCH  10  20
BRANCH  17  27
ATOM     27  C   UNL     1       2.187  -4.476   0.436  0.00  0.00    +0.042 A 
ATOM     28  C   UNL     1       2.847  -3.494   1.153  0.00  0.00    +0.011 A 
ATOM     29  C   UNL     1       4.184  -3.240   0.913  0.00  0.00    +0.004 A 
ATOM     30  C   UNL     1       4.868  -3.965  -0.045  0.00  0.00    +0.049 A 
ATOM     31  C   UNL     1       4.213  -4.950  -0.767  0.00  0.00    +0.162 A 
ATOM     32  C   UNL     1       2.868  -5.210  -0.521  0.00  0.00    +0.168 A 
BRANCH  32  33
ATOM     33  O   UNL     1       2.222  -6.180  -1.222  0.00  0.00    -0.491 OA
ATOM     34  C   UNL     1       1.690  -5.813  -2.497  0.00  0.00    +0.277 C 
ENDBRANCH  32  33
BRANCH  31  35
ATOM     35  O   UNL     1       4.884  -5.664  -1.709  0.00  0.00    -0.491 OA
ATOM     36  C   UNL     1       6.264  -5.346  -1.904  0.00  0.00    +0.277 C 
ENDBRANCH  31  35
ENDBRANCH  17  27
TORSDOF 4
