REMARK  Name = ZINC49590201
REMARK  2 active torsions:
REMARK  status: ('A' for Active; 'I' for Inactive)
REMARK    1  A    between atoms: C_1  and  C_2
REMARK    2  A    between atoms: C_8  and  C_9
REMARK                            x       y       z     vdW  Elec       q    Type
REMARK                         _______ _______ _______ _____ _____    ______ ____
ROOT
ATOM      1  C   UNL     1      -0.018   1.503   0.010  0.00  0.00    +0.044 C 
ATOM      2  C   UNL     1       0.002  -0.004   0.002  0.00  0.00    -0.050 A 
ATOM      3  C   UNL     1       0.006  -0.688  -1.203  0.00  0.00    +0.005 A 
ATOM      4  C   UNL     1       0.025  -2.068  -1.229  0.00  0.00    +0.026 A 
ATOM      5  C   UNL     1       0.040  -2.785  -0.039  0.00  0.00    +0.050 A 
ATOM      6  C   UNL     1       0.036  -2.090   1.181  0.00  0.00    +0.013 A 
ATOM      7  C   UNL     1       0.023  -0.698   1.194  0.00  0.00    +0.014 A 
ATOM      8  C   UNL     1       0.055  -3.119   2.239  0.00  0.00    +0.077 A 
ATOM      9  C   UNL     1       0.069  -4.356   1.577  0.00  0.00    +0.259 A 
ATOM     10  O   UNL     1       0.088  -5.563   2.177  0.00  0.00    -0.267 OA
ATOM     11  N   UNL     1       0.060  -4.143   0.240  0.00  0.00    -0.322 N 
ATOM     12  H   UNL     1       0.066  -4.843  -0.431  0.00  0.00    +0.169 HD
ENDROOT
BRANCH   8  13
ATOM     13  C   UNL     1       0.058  -2.902   3.633  0.00  0.00    +0.132 C 
ATOM     14  C   UNL     1       1.247  -2.742   4.515  0.00  0.00    +0.286 C 
ATOM     15  O   UNL     1       2.545  -2.774   4.144  0.00  0.00    -0.267 OA
ATOM     16  N   UNL     1       0.777  -2.562   5.726  0.00  0.00    -0.151 NA
ATOM     17  C   UNL     1      -0.565  -2.594   5.686  0.00  0.00    +0.182 C 
ATOM     18  S   UNL     1      -1.584  -2.401   7.049  0.00  0.00    -0.015 S 
ATOM     19  N   UNL     1      -1.000  -2.793   4.431  0.00  0.00    -0.185 NA
ENDBRANCH   8  13
TORSDOF 1
