REMARK  Name = ZINC39623695
REMARK  9 active torsions:
REMARK  status: ('A' for Active; 'I' for Inactive)
REMARK    1  A    between atoms: C_1  and  C_2
REMARK    2  A    between atoms: C_2  and  C_3
REMARK    3  A    between atoms: C_3  and  C_5
REMARK    4  A    between atoms: C_3  and  C_11
REMARK    5  A    between atoms: C_15  and  C_24
REMARK    6  A    between atoms: N_26  and  C_27
REMARK    7  A    between atoms: C_27  and  C_28
REMARK    8  A    between atoms: C_28  and  C_29
REMARK    9  A    between atoms: C_29  and  C_30
REMARK                            x       y       z     vdW  Elec       q    Type
REMARK                         _______ _______ _______ _____ _____    ______ ____
ROOT
ATOM      1  C   UNL     1      -2.058  -0.056  -1.030  0.00  0.00    +0.223 C 
ATOM      2  O   UNL     1      -2.682  -0.871  -1.676  0.00  0.00    -0.275 OA
ATOM      3  N   UNL     1      -2.105   1.249  -1.365  0.00  0.00    -0.300 N 
ATOM      4  C   UNL     1      -1.488   2.392  -0.652  0.00  0.00    +0.121 C 
ATOM      5  C   UNL     1      -0.963   3.315  -1.775  0.00  0.00    +0.100 C 
ATOM      6  C   UNL     1      -1.819   2.965  -3.003  0.00  0.00    -0.004 C 
ATOM      7  C   UNL     1      -2.780   1.864  -2.533  0.00  0.00    +0.115 C 
ATOM      8  C   UNL     1      -0.936   2.439  -4.131  0.00  0.00    -0.010 C 
ATOM      9  C   UNL     1      -1.804   2.152  -5.360  0.00  0.00    -0.082 C 
ATOM     10  N   UNL     1      -2.486   3.383  -5.778  0.00  0.00    +0.379 N 
ATOM     11  C   UNL     1      -3.403   3.831  -4.723  0.00  0.00    -0.082 C 
ATOM     12  C   UNL     1      -2.603   4.189  -3.467  0.00  0.00    -0.010 C 
ATOM     13  H   UNL     1      -1.800   4.103  -5.954  0.00  0.00    -0.086 HD
ATOM     14  H   UNL     1      -3.008   3.206  -6.623  0.00  0.00    -0.086 HD
ENDROOT
BRANCH   5  15
ATOM     15  C   UNL     1      -1.150   4.761  -1.397  0.00  0.00    +0.218 C 
ATOM     16  O   UNL     1      -2.047   5.080  -0.644  0.00  0.00    -0.275 OA
ATOM     17  N   UNL     1      -0.322   5.701  -1.894  0.00  0.00    -0.315 N 
ATOM     18  H   UNL     1       0.395   5.446  -2.495  0.00  0.00    +0.149 HD
BRANCH  17  19
ATOM     19  C   UNL     1      -0.504   7.107  -1.526  0.00  0.00    +0.104 C 
BRANCH  19  20
ATOM     20  C   UNL     1       0.560   7.958  -2.221  0.00  0.00    +0.023 C 
BRANCH  20  21
ATOM     21  C   UNL     1       0.370   9.427  -1.837  0.00  0.00    +0.036 C 
BRANCH  21  22
ATOM     22  C   UNL     1       1.418  10.266  -2.522  0.00  0.00    -0.047 A 
ATOM     23  C   UNL     1       2.632  10.495  -1.903  0.00  0.00    +0.003 A 
ATOM     24  C   UNL     1       3.594  11.265  -2.531  0.00  0.00    +0.000 A 
ATOM     25  C   UNL     1       3.341  11.804  -3.779  0.00  0.00    +0.000 A 
ATOM     26  C   UNL     1       2.127  11.573  -4.399  0.00  0.00    +0.000 A 
ATOM     27  C   UNL     1       1.167  10.800  -3.772  0.00  0.00    +0.003 A 
ENDBRANCH  21  22
ENDBRANCH  20  21
ENDBRANCH  19  20
ENDBRANCH  17  19
ENDBRANCH   5  15
BRANCH   1  28
ATOM     28  C   UNL     1      -1.228  -0.502   0.146  0.00  0.00    +0.105 C 
BRANCH  28  29
ATOM     29  C   UNL     1      -2.090  -0.543   1.382  0.00  0.00    -0.036 A 
ATOM     30  C   UNL     1      -3.196  -1.371   1.426  0.00  0.00    +0.004 A 
ATOM     31  C   UNL     1      -3.987  -1.408   2.559  0.00  0.00    +0.000 A 
ATOM     32  C   UNL     1      -3.671  -0.619   3.649  0.00  0.00    +0.000 A 
ATOM     33  C   UNL     1      -2.564   0.208   3.605  0.00  0.00    +0.000 A 
ATOM     34  C   UNL     1      -1.771   0.243   2.473  0.00  0.00    +0.004 A 
ENDBRANCH  28  29
BRANCH  28  36
ATOM     35  C   UNL     1       0.322  -1.828  -1.296  0.00  0.00    +0.005 C 
ATOM     36  C   UNL     1      -0.663  -1.898  -0.128  0.00  0.00    +0.014 C 
ENDBRANCH  28  36
ENDBRANCH   1  28
TORSDOF 8
