REMARK  Name = ZINC13065387
REMARK  10 active torsions:
REMARK  status: ('A' for Active; 'I' for Inactive)
REMARK    1  A    between atoms: C_1  and  O_2
REMARK    2  A    between atoms: O_2  and  C_3
REMARK    3  A    between atoms: C_6  and  C_9
REMARK    4  A    between atoms: C_9  and  N_10
REMARK    5  A    between atoms: C_11  and  C_15
REMARK    6  A    between atoms: C_15  and  N_65
REMARK    7  A    between atoms: C_16  and  C_17
REMARK    8  A    between atoms: C_16  and  N_65
REMARK    9  A    between atoms: C_32  and  C_33
REMARK   10  A    between atoms: C_32  and  N_65
REMARK                            x       y       z     vdW  Elec       q    Type
REMARK                         _______ _______ _______ _____ _____    ______ ____
ROOT
ATOM      1  N   UNL     1       2.940   0.827   1.394  0.00  0.00    +0.389 N 
ATOM      2  H   UNL     1       2.976   1.603   2.065  0.00  0.00    -0.081 HD
ENDROOT
BRANCH   1   3
ATOM      3  C   UNL     1       4.269   0.183   1.334  0.00  0.00    +0.001 C 
BRANCH   3   5
ATOM      4  N   UNL     1       5.407   0.398   3.606  0.00  0.00    -0.227 N 
ATOM      5  C   UNL     1       4.653  -0.275   2.717  0.00  0.00    +0.135 A 
ATOM      6  N   UNL     1       4.322  -1.408   3.287  0.00  0.00    -0.115 NA
ATOM      7  N   UNL     1       4.841  -1.427   4.466  0.00  0.00    -0.023 NA
ATOM      8  N   UNL     1       5.495  -0.336   4.663  0.00  0.00    -0.044 NA
BRANCH   4   9
ATOM      9  C   UNL     1       6.012   1.718   3.411  0.00  0.00    +0.182 C 
BRANCH   9  13
ATOM     10  C   UNL     1       3.287   4.741   4.716  0.00  0.00    +0.120 A 
ATOM     11  C   UNL     1       4.201   4.197   5.607  0.00  0.00    +0.046 A 
ATOM     12  C   UNL     1       5.080   3.220   5.183  0.00  0.00    +0.009 A 
ATOM     13  C   UNL     1       5.051   2.784   3.871  0.00  0.00    -0.026 A 
ATOM     14  C   UNL     1       4.145   3.329   2.979  0.00  0.00    +0.009 A 
ATOM     15  C   UNL     1       3.260   4.302   3.400  0.00  0.00    +0.046 A 
BRANCH  10  17
ATOM     16  C   UNL     1       1.508   6.216   4.159  0.00  0.00    +0.277 C 
ATOM     17  O   UNL     1       2.420   5.702   5.131  0.00  0.00    -0.495 OA
ENDBRANCH  10  17
ENDBRANCH   9  13
ENDBRANCH   4   9
ENDBRANCH   3   5
ENDBRANCH   1   3
BRANCH   1  18
ATOM     18  C   UNL     1       2.576   1.358   0.063  0.00  0.00    -0.037 C 
BRANCH  18  19
ATOM     19  C   UNL     1       1.330   2.196   0.199  0.00  0.00    +0.001 A 
ATOM     20  C   UNL     1       1.433   3.538   0.375  0.00  0.00    +0.017 A 
ATOM     21  C   UNL     1       0.206   4.322   0.504  0.00  0.00    +0.002 A 
ATOM     22  C   UNL     1       0.252   5.710   0.689  0.00  0.00    +0.059 A 
ATOM     23  C   UNL     1      -0.920   6.423   0.806  0.00  0.00    +0.167 A 
ATOM     24  C   UNL     1      -2.155   5.765   0.743  0.00  0.00    +0.168 A 
ATOM     25  C   UNL     1      -2.210   4.395   0.561  0.00  0.00    +0.075 A 
ATOM     26  C   UNL     1      -1.036   3.662   0.440  0.00  0.00    +0.053 A 
ATOM     27  N   UNL     1      -1.072   2.295   0.253  0.00  0.00    -0.322 N 
ATOM     28  H   UNL     1      -1.928   1.842   0.204  0.00  0.00    +0.169 HD
ATOM     29  C   UNL     1       0.062   1.582   0.142  0.00  0.00    +0.251 A 
ATOM     30  O   UNL     1      -0.007   0.376  -0.017  0.00  0.00    -0.268 OA
ATOM     31  O   UNL     1      -3.147   6.691   0.886  0.00  0.00    -0.453 OA
ATOM     32  C   UNL     1      -2.510   7.854   1.448  0.00  0.00    +0.466 C 
ATOM     33  O   UNL     1      -1.149   7.757   0.990  0.00  0.00    -0.453 OA
ENDBRANCH  18  19
ENDBRANCH   1  18
BRANCH   1  34
ATOM     34  C   UNL     1       1.925  -0.150   1.843  0.00  0.00    -0.046 C 
BRANCH  34  35
ATOM     35  C   UNL     1       1.855  -1.333   0.875  0.00  0.00    +0.102 C 
ATOM     36  C   UNL     1       0.674  -2.258   1.243  0.00  0.00    +0.032 C 
ATOM     37  C   UNL     1       1.210  -3.680   0.967  0.00  0.00    +0.030 C 
ATOM     38  C   UNL     1       2.652  -3.446   0.465  0.00  0.00    +0.160 C 
ATOM     39  O   UNL     1       3.029  -2.163   1.010  0.00  0.00    -0.378 OA
ENDBRANCH  34  35
ENDBRANCH   1  34
TORSDOF 9
