REMARK  Name = ZINC58945111
REMARK  6 active torsions:
REMARK  status: ('A' for Active; 'I' for Inactive)
REMARK    1  A    between atoms: C_4  and  N_7
REMARK    2  A    between atoms: C_8  and  C_10
REMARK    3  A    between atoms: N_15  and  C_26
REMARK    4  A    between atoms: N_17  and  C_18
REMARK    5  A    between atoms: C_26  and  C_27
REMARK    6  A    between atoms: C_27  and  C_28
REMARK                            x       y       z     vdW  Elec       q    Type
REMARK                         _______ _______ _______ _____ _____    ______ ____
ROOT
ATOM      1  C   UNL     1       4.962  -2.721   0.153  0.00  0.00    +0.149 C 
ATOM      2  C   UNL     1       4.865  -4.066  -0.570  0.00  0.00    +0.120 C 
ATOM      3  C   UNL     1       6.060  -4.925  -0.336  0.00  0.00    +0.223 C 
ATOM      4  O   UNL     1       6.321  -5.713  -1.220  0.00  0.00    -0.275 OA
ATOM      5  N   UNL     1       6.875  -4.942   0.708  0.00  0.00    -0.250 N 
ATOM      6  C   UNL     1       6.828  -4.029   1.746  0.00  0.00    +0.164 C 
ATOM      7  N   UNL     1       7.831  -3.892   2.581  0.00  0.00    -0.226 NA
ATOM      8  S   UNL     1       5.359  -3.050   1.902  0.00  0.00    -0.077 S 
ENDROOT
BRANCH   7   9
ATOM      9  C   UNL     1       7.755  -2.980   3.599  0.00  0.00    +0.068 A 
ATOM     10  C   UNL     1       7.272  -1.693   3.353  0.00  0.00    +0.028 A 
ATOM     11  C   UNL     1       7.197  -0.778   4.382  0.00  0.00    +0.003 A 
ATOM     12  C   UNL     1       7.601  -1.132   5.657  0.00  0.00    +0.020 A 
ATOM     13  C   UNL     1       8.082  -2.406   5.909  0.00  0.00    +0.043 A 
ATOM     14  C   UNL     1       8.155  -3.333   4.889  0.00  0.00    +0.047 A 
ATOM     15 CL   UNL     1       8.586  -2.840   7.513  0.00  0.00    -0.083 Cl
ENDBRANCH   7   9
BRANCH   1  17
ATOM     16  N   UNL     1       3.622  -0.651  -0.037  0.00  0.00    -0.285 N 
ATOM     17  C   UNL     1       3.645  -1.995   0.057  0.00  0.00    +0.231 C 
ATOM     18  O   UNL     1       2.606  -2.620   0.064  0.00  0.00    -0.274 OA
ATOM     19  H   UNL     1       4.452  -0.156  -0.121  0.00  0.00    +0.155 HD
BRANCH  16  23
ATOM     20  C   UNL     1      -0.015   1.381   0.029  0.00  0.00    +0.000 A 
ATOM     21  C   UNL     1       0.140   0.218   0.763  0.00  0.00    +0.002 A 
ATOM     22  C   UNL     1       1.344  -0.457   0.743  0.00  0.00    +0.023 A 
ATOM     23  C   UNL     1       2.400   0.031  -0.015  0.00  0.00    +0.033 A 
ATOM     24  C   UNL     1       2.241   1.198  -0.751  0.00  0.00    +0.023 A 
ATOM     25  C   UNL     1       1.034   1.870  -0.727  0.00  0.00    +0.002 A 
ENDBRANCH  16  23
ENDBRANCH   1  17
BRANCH   5  26
ATOM     26  C   UNL     1       7.890  -5.996   0.767  0.00  0.00    +0.120 C 
BRANCH  26  27
ATOM     27  C   UNL     1       9.169  -5.511   0.080  0.00  0.00    +0.054 C 
BRANCH  27  28
ATOM     28  C   UNL     1      10.214  -6.595   0.142  0.00  0.00    -0.042 A 
ATOM     29  C   UNL     1      11.082  -6.656   1.216  0.00  0.00    +0.007 A 
ATOM     30  C   UNL     1      12.042  -7.649   1.276  0.00  0.00    +0.050 A 
ATOM     31  C   UNL     1      12.136  -8.586   0.260  0.00  0.00    +0.166 A 
ATOM     32  C   UNL     1      11.261  -8.525  -0.821  0.00  0.00    +0.166 A 
ATOM     33  C   UNL     1      10.298  -7.530  -0.873  0.00  0.00    +0.053 A 
ATOM     34  O   UNL     1      11.554  -9.547  -1.678  0.00  0.00    -0.453 OA
ATOM     35  C   UNL     1      12.876  -9.986  -1.314  0.00  0.00    +0.466 C 
ATOM     36  O   UNL     1      12.977  -9.646   0.082  0.00  0.00    -0.453 OA
ENDBRANCH  27  28
ENDBRANCH  26  27
ENDBRANCH   5  26
TORSDOF 6
