REMARK  Name = ZINC12327172
REMARK  9 active torsions:
REMARK  status: ('A' for Active; 'I' for Inactive)
REMARK    1  A    between atoms: C_1  and  C_2
REMARK    2  A    between atoms: C_2  and  O_3
REMARK    3  A    between atoms: O_3  and  C_4
REMARK    4  A    between atoms: C_9  and  N_74
REMARK    5  A    between atoms: C_18  and  C_30
REMARK    6  A    between atoms: C_20  and  O_21
REMARK    7  A    between atoms: O_21  and  C_22
REMARK    8  A    between atoms: C_22  and  C_23
REMARK    9  A    between atoms: C_33  and  C_35
REMARK                            x       y       z     vdW  Elec       q    Type
REMARK                         _______ _______ _______ _____ _____    ______ ____
ROOT
ATOM      1  C   UNL     1       1.096   5.804  -2.103  0.00  0.00    -0.036 C 
ATOM      2  C   UNL     1       1.306   6.604  -3.370  0.00  0.00    +0.211 C 
ATOM      3  O   UNL     1       0.243   7.545  -3.560  0.00  0.00    -0.490 OA
ATOM      4  C   UNL     1      -0.861   7.057  -4.192  0.00  0.00    +0.163 A 
ATOM      5  C   UNL     1      -1.663   6.126  -3.559  0.00  0.00    -0.018 A 
ATOM      6  C   UNL     1      -2.750   5.580  -4.206  0.00  0.00    +0.014 A 
ATOM      7  C   UNL     1      -3.053   5.983  -5.509  0.00  0.00    -0.007 A 
ATOM      8  C   UNL     1      -2.255   6.935  -6.145  0.00  0.00    +0.058 A 
ATOM      9  C   UNL     1      -1.162   7.472  -5.488  0.00  0.00    +0.163 A 
ATOM     10  C   UNL     1      -1.337   5.710  -2.137  0.00  0.00    -0.039 C 
ATOM     11  N   UNL     1      -0.086   4.918  -2.171  0.00  0.00    +0.387 N 
ATOM     12  H   UNL     1      -0.053   4.392  -3.052  0.00  0.00    -0.081 HD
ENDROOT
BRANCH  11  18
ATOM     13  C   UNL     1      -2.180   2.112   1.943  0.00  0.00    +0.403 C 
ATOM     14  O   UNL     1      -2.897   1.173   1.659  0.00  0.00    -0.226 OA
ATOM     15  N   UNL     1      -1.223   2.514   1.083  0.00  0.00    -0.268 N 
ATOM     16  C   UNL     1      -0.353   3.652   1.410  0.00  0.00    +0.109 C 
ATOM     17  C   UNL     1      -0.408   4.665   0.269  0.00  0.00    +0.004 C 
ATOM     18  C   UNL     1      -0.062   3.966  -1.048  0.00  0.00    -0.065 C 
ATOM     19  C   UNL     1      -1.086   2.865  -1.328  0.00  0.00    +0.004 C 
ATOM     20  C   UNL     1      -1.035   1.827  -0.202  0.00  0.00    +0.109 C 
BRANCH  13  21
ATOM     21  O   UNL     1      -2.341   2.751   3.117  0.00  0.00    -0.451 OA
BRANCH  21  23
ATOM     22  C   UNL     1      -3.423   3.107   5.270  0.00  0.00    +0.048 C 
ATOM     23  C   UNL     1      -3.391   2.264   3.994  0.00  0.00    +0.230 C 
ENDBRANCH  21  23
ENDBRANCH  13  21
ENDBRANCH  11  18
BRANCH   7  24
ATOM     24  C   UNL     1      -4.215   5.401  -6.213  0.00  0.00    +0.020 A 
ATOM     25  C   UNL     1      -4.676   5.658  -7.476  0.00  0.00    +0.016 A 
ATOM     26  C   UNL     1      -5.792   4.985  -7.924  0.00  0.00    +0.011 A 
ATOM     27  C   UNL     1      -6.399   4.091  -7.102  0.00  0.00    -0.013 A 
ATOM     28  S   UNL     1      -5.380   4.175  -5.640  0.00  0.00    -0.093 S 
ATOM     29  C   UNL     1      -7.618   3.243  -7.361  0.00  0.00    +0.051 C 
ENDBRANCH   7  24
BRANCH   9  30
ATOM     30  O   UNL     1      -0.384   8.401  -6.104  0.00  0.00    -0.486 OA
BRANCH  30  31
ATOM     31  C   UNL     1      -0.753   8.779  -7.432  0.00  0.00    +0.260 C 
BRANCH  31  32
ATOM     32  C   UNL     1       0.231   9.826  -7.957  0.00  0.00    +0.156 C 
ATOM     33  C   UNL     1      -0.234  10.321  -9.329  0.00  0.00    +0.035 C 
ATOM     34  C   UNL     1       0.787  11.324  -9.874  0.00  0.00    +0.005 C 
ATOM     35  C   UNL     1       2.163  10.653  -9.935  0.00  0.00    +0.028 C 
ATOM     36  C   UNL     1       2.535  10.145  -8.540  0.00  0.00    +0.160 C 
ATOM     37  O   UNL     1       1.529   9.241  -8.079  0.00  0.00    -0.373 OA
ENDBRANCH  31  32
ENDBRANCH  30  31
ENDBRANCH   9  30
TORSDOF 7
