REMARK  Name = ZINC60348273
REMARK  7 active torsions:
REMARK  status: ('A' for Active; 'I' for Inactive)
REMARK    1  A    between atoms: C_1  and  C_2
REMARK    2  A    between atoms: C_5  and  S_8
REMARK    3  A    between atoms: S_8  and  N_11
REMARK    4  A    between atoms: N_11  and  C_12
REMARK    5  A    between atoms: C_12  and  C_13
REMARK    6  A    between atoms: C_20  and  C_22
REMARK    7  A    between atoms: C_23  and  C_31
REMARK                            x       y       z     vdW  Elec       q    Type
REMARK                         _______ _______ _______ _____ _____    ______ ____
ROOT
ATOM      1  C   UNL     1       3.152  -6.835   0.373  0.00  0.00    +0.022 C 
ATOM      2  C   UNL     1       3.571  -7.512   1.680  0.00  0.00    +0.008 C 
ATOM      3  C   UNL     1       4.859  -8.307   1.454  0.00  0.00    +0.019 C 
ATOM      4  C   UNL     1       5.976  -7.351   1.025  0.00  0.00    +0.108 C 
ATOM      5  N   UNL     1       5.523  -6.589  -0.147  0.00  0.00    -0.297 N 
ATOM      6  C   UNL     1       4.249  -5.861  -0.069  0.00  0.00    +0.113 C 
ATOM      7  C   UNL     1       6.262  -6.559  -1.274  0.00  0.00    +0.254 C 
ATOM      8  O   UNL     1       5.829  -6.013  -2.271  0.00  0.00    -0.269 OA
ENDROOT
BRANCH   7   9
ATOM      9  C   UNL     1       7.591  -7.187  -1.298  0.00  0.00    +0.078 A 
ATOM     10  C   UNL     1       8.194  -7.855  -2.317  0.00  0.00    -0.024 A 
ATOM     11  C   UNL     1       9.484  -8.387  -2.141  0.00  0.00    -0.007 A 
ATOM     12  C   UNL     1      10.271  -9.109  -3.075  0.00  0.00    +0.009 A 
ATOM     13  C   UNL     1      11.508  -9.558  -2.740  0.00  0.00    +0.001 A 
ATOM     14  C   UNL     1      12.050  -9.331  -1.480  0.00  0.00    +0.001 A 
ATOM     15  C   UNL     1      11.319  -8.633  -0.542  0.00  0.00    +0.015 A 
ATOM     16  C   UNL     1      10.061  -8.171  -0.867  0.00  0.00    +0.020 A 
ATOM     17  S   UNL     1       8.814  -7.253   0.000  0.00  0.00    -0.083 S 
ATOM     18  C   UNL     1       7.481  -8.025  -3.634  0.00  0.00    +0.046 C 
ENDBRANCH   7   9
BRANCH   1  19
ATOM     19  C   UNL     1       1.846  -6.067   0.592  0.00  0.00    +0.111 C 
BRANCH  19  20
ATOM     20  N   UNL     1       1.384  -5.517  -0.685  0.00  0.00    -0.190 NA
ATOM     21  H   UNL     1       1.987  -5.477  -1.443  0.00  0.00    +0.148 HD
BRANCH  20  22
ATOM     22  S   UNL     1      -0.170  -4.963  -0.833  0.00  0.00    +0.058 S 
ATOM     23  O   UNL     1      -1.015  -5.977  -0.307  0.00  0.00    -0.153 OA
ATOM     24  O   UNL     1      -0.302  -4.475  -2.161  0.00  0.00    -0.153 OA
BRANCH  22  29
ATOM     25  C   UNL     1      -0.724  -0.192   2.819  0.00  0.00    +0.044 C 
ATOM     26  C   UNL     1      -0.585  -1.384   1.907  0.00  0.00    -0.050 A 
ATOM     27  C   UNL     1      -0.178  -1.208   0.597  0.00  0.00    +0.005 A 
ATOM     28  C   UNL     1      -0.051  -2.301  -0.239  0.00  0.00    +0.029 A 
ATOM     29  C   UNL     1      -0.331  -3.570   0.233  0.00  0.00    +0.105 A 
ATOM     30  C   UNL     1      -0.737  -3.746   1.543  0.00  0.00    +0.029 A 
ATOM     31  C   UNL     1      -0.860  -2.653   2.381  0.00  0.00    +0.005 A 
ENDBRANCH  22  29
ENDBRANCH  20  22
ENDBRANCH  19  20
ENDBRANCH   1  19
TORSDOF 5
