REMARK  Name = ZINC38831835
REMARK  7 active torsions:
REMARK  status: ('A' for Active; 'I' for Inactive)
REMARK    1  A    between atoms: C_1  and  S_2
REMARK    2  A    between atoms: S_2  and  N_5
REMARK    3  A    between atoms: C_7  and  C_16
REMARK    4  A    between atoms: N_18  and  C_19
REMARK    5  A    between atoms: C_19  and  C_20
REMARK    6  A    between atoms: C_23  and  C_26
REMARK    7  A    between atoms: C_26  and  N_27
REMARK                            x       y       z     vdW  Elec       q    Type
REMARK                         _______ _______ _______ _____ _____    ______ ____
ROOT
ATOM      1  C   UNL     1      -0.921  -0.192  -6.762  0.00  0.00    +0.139 C 
ENDROOT
BRANCH   1   2
ATOM      2  C   UNL     1      -2.281   0.429  -6.943  0.00  0.00    -0.030 A 
ATOM      3  C   UNL     1      -3.417  -0.282  -6.603  0.00  0.00    +0.005 A 
ATOM      4  C   UNL     1      -4.665   0.289  -6.769  0.00  0.00    +0.002 A 
ATOM      5  C   UNL     1      -4.778   1.571  -7.274  0.00  0.00    -0.064 A 
ATOM      6  C   UNL     1      -3.642   2.282  -7.613  0.00  0.00    +0.002 A 
ATOM      7  C   UNL     1      -2.394   1.713  -7.443  0.00  0.00    +0.005 A 
BRANCH   5   8
ATOM      8  C   UNL     1      -6.138   2.192  -7.456  0.00  0.00    -0.043 C 
BRANCH   8   9
ATOM      9  N   UNL     1      -6.519   2.906  -6.230  0.00  0.00    +0.385 N 
ATOM     10  C   UNL     1      -7.890   3.421  -6.365  0.00  0.00    -0.073 C 
ATOM     11  C   UNL     1      -8.375   3.884  -4.991  0.00  0.00    +0.017 C 
ATOM     12  C   UNL     1      -7.354   4.806  -4.374  0.00  0.00    -0.048 A 
ATOM     13  C   UNL     1      -7.737   5.602  -3.305  0.00  0.00    +0.004 A 
ATOM     14  C   UNL     1      -6.829   6.456  -2.713  0.00  0.00    +0.000 A 
ATOM     15  C   UNL     1      -5.532   6.519  -3.188  0.00  0.00    +0.000 A 
ATOM     16  C   UNL     1      -5.151   5.728  -4.253  0.00  0.00    +0.002 A 
ATOM     17  C   UNL     1      -6.062   4.870  -4.850  0.00  0.00    -0.061 A 
ATOM     18  C   UNL     1      -5.605   4.032  -6.015  0.00  0.00    -0.042 C 
ATOM     19  H   UNL     1      -6.469   2.276  -5.444  0.00  0.00    -0.081 HD
ENDBRANCH   8   9
ENDBRANCH   5   8
ENDBRANCH   1   2
BRANCH   1  22
ATOM     20  C   UNL     1       0.788  -0.345  -5.032  0.00  0.00    +0.256 C 
ATOM     21  O   UNL     1       1.459  -1.008  -5.794  0.00  0.00    -0.272 OA
ATOM     22  N   UNL     1      -0.419   0.112  -5.420  0.00  0.00    -0.308 N 
ATOM     23  H   UNL     1      -0.956   0.642  -4.810  0.00  0.00    +0.149 HD
BRANCH  20  26
ATOM     24  N   UNL     1       0.975  -0.409  -1.275  0.00  0.00    -0.200 N 
ATOM     25  C   UNL     1       0.408  -0.706  -2.602  0.00  0.00    +0.185 C 
ATOM     26  C   UNL     1       1.304  -0.032  -3.651  0.00  0.00    +0.277 C 
ATOM     27  O   UNL     1       2.635  -0.532  -3.509  0.00  0.00    -0.476 OA
ATOM     28  C   UNL     1       3.179  -0.540  -2.263  0.00  0.00    +0.144 A 
ATOM     29  C   UNL     1       2.370  -0.477  -1.133  0.00  0.00    +0.093 A 
ATOM     30  C   UNL     1       2.940  -0.485   0.130  0.00  0.00    +0.028 A 
ATOM     31  C   UNL     1       4.315  -0.549   0.266  0.00  0.00    +0.002 A 
ATOM     32  C   UNL     1       5.119  -0.604  -0.857  0.00  0.00    +0.004 A 
ATOM     33  C   UNL     1       4.556  -0.608  -2.116  0.00  0.00    +0.047 A 
BRANCH  24  35
ATOM     34  C   UNL     1      -0.220  -1.548   0.927  0.00  0.00    +0.218 C 
ATOM     35  S   UNL     1       0.002  -0.004   0.002  0.00  0.00    +0.043 S 
ATOM     36  O   UNL     1      -1.227   0.393  -0.590  0.00  0.00    -0.155 OA
ATOM     37  O   UNL     1       0.769   0.917   0.764  0.00  0.00    -0.155 OA
ENDBRANCH  24  35
ENDBRANCH  20  26
ENDBRANCH   1  22
TORSDOF 6
