REMARK  Name = ZINC01516500
REMARK  3 active torsions:
REMARK  status: ('A' for Active; 'I' for Inactive)
REMARK    1  A    between atoms: C_8  and  C_10
REMARK    2  A    between atoms: C_13  and  C_15
REMARK    3  A    between atoms: C_20  and  O_21
REMARK                            x       y       z     vdW  Elec       q    Type
REMARK                         _______ _______ _______ _____ _____    ______ ____
ROOT
ATOM      1  C   UNL     1       3.772  -3.280  -0.053  0.00  0.00    +0.111 C 
ATOM      2  N   UNL     1       3.365  -4.526  -0.061  0.00  0.00    -0.150 NA
ATOM      3  N   UNL     1       4.307  -5.386  -0.074  0.00  0.00    -0.153 NA
ATOM      4  C   UNL     1       5.509  -4.869  -0.076  0.00  0.00    +0.080 C 
ATOM      5  C   UNL     1       5.289  -3.365  -0.069  0.00  0.00    +0.119 C 
ENDROOT
BRANCH   1  13
ATOM      6  C   UNL     1      -0.017   1.362   0.009  0.00  0.00    +0.001 A 
ATOM      7  C   UNL     1       1.171   2.082   0.002  0.00  0.00    +0.004 A 
ATOM      8  C   UNL     1       2.388   1.433  -0.013  0.00  0.00    +0.047 A 
ATOM      9  C   UNL     1       2.432   0.045  -0.021  0.00  0.00    +0.136 A 
ATOM     10  C   UNL     1       1.225  -0.680  -0.013  0.00  0.00    +0.021 A 
ATOM     11  C   UNL     1       0.002  -0.004   0.002  0.00  0.00    +0.011 A 
ATOM     12  C   UNL     1       1.609  -2.090  -0.025  0.00  0.00    +0.059 A 
ATOM     13  C   UNL     1       2.972  -2.110  -0.039  0.00  0.00    +0.152 A 
ATOM     14  O   UNL     1       3.444  -0.846  -0.036  0.00  0.00    -0.454 OA
ENDBRANCH   1  13
BRANCH   4  15
ATOM     15  C   UNL     1       6.790  -5.586  -0.089  0.00  0.00    +0.040 A 
ATOM     16  C   UNL     1       7.996  -4.874  -0.083  0.00  0.00    +0.013 A 
ATOM     17  C   UNL     1       9.194  -5.554  -0.094  0.00  0.00    +0.001 A 
ATOM     18  C   UNL     1       9.212  -6.939  -0.112  0.00  0.00    +0.004 A 
ATOM     19  C   UNL     1       8.030  -7.655  -0.118  0.00  0.00    +0.046 A 
ATOM     20  C   UNL     1       6.815  -6.990  -0.101  0.00  0.00    +0.126 A 
BRANCH  20  21
ATOM     21  O   UNL     1       5.653  -7.692  -0.101  0.00  0.00    -0.506 OA
ATOM     22  H   UNL     1       5.312  -7.888  -0.984  0.00  0.00    +0.292 HD
ENDBRANCH  20  21
ENDBRANCH   4  15
TORSDOF 3
