REMARK  Name = ZINC65009262
REMARK  7 active torsions:
REMARK  status: ('A' for Active; 'I' for Inactive)
REMARK    1  A    between atoms: C_1  and  C_2
REMARK    2  A    between atoms: C_5  and  C_17
REMARK    3  A    between atoms: C_7  and  S_8
REMARK    4  A    between atoms: S_8  and  N_11
REMARK    5  A    between atoms: C_20  and  N_23
REMARK    6  A    between atoms: N_23  and  C_24
REMARK    7  A    between atoms: C_24  and  C_25
REMARK                            x       y       z     vdW  Elec       q    Type
REMARK                         _______ _______ _______ _____ _____    ______ ____
ROOT
ATOM      1  C   UNL     1       0.432  -4.202  -0.109  0.00  0.00    +0.091 A 
ATOM      2  C   UNL     1       0.426  -4.872  -1.337  0.00  0.00    +0.033 A 
ATOM      3  C   UNL     1       0.637  -6.239  -1.331  0.00  0.00    +0.045 A 
ATOM      4  C   UNL     1       0.843  -6.865  -0.101  0.00  0.00    +0.113 A 
ATOM      5  N   UNL     1       0.832  -6.149   1.015  0.00  0.00    -0.264 N 
ATOM      6  N   UNL     1       0.641  -4.880   1.011  0.00  0.00    -0.172 NA
ATOM      7  H   UNL     1       0.976  -6.599   1.862  0.00  0.00    +0.190 HD
ENDROOT
BRANCH   1  12
ATOM      8  C   UNL     1      -0.426   1.490   0.078  0.00  0.00    +0.046 C 
ATOM      9  C   UNL     1      -0.201   0.001   0.029  0.00  0.00    -0.024 A 
ATOM     10  C   UNL     1      -0.310  -0.674  -1.174  0.00  0.00    +0.006 A 
ATOM     11  C   UNL     1      -0.105  -2.037  -1.225  0.00  0.00    +0.010 A 
ATOM     12  C   UNL     1       0.212  -2.736  -0.061  0.00  0.00    +0.004 A 
ATOM     13  C   UNL     1       0.320  -2.051   1.148  0.00  0.00    +0.039 A 
ATOM     14  C   UNL     1       0.119  -0.686   1.186  0.00  0.00    +0.109 A 
BRANCH  14  15
ATOM     15  S   UNL     1       0.263   0.182   2.713  0.00  0.00    +0.061 S 
ATOM     16  O   UNL     1      -0.844   1.069   2.781  0.00  0.00    -0.153 OA
ATOM     17  O   UNL     1       0.520  -0.795   3.712  0.00  0.00    -0.153 OA
BRANCH  15  18
ATOM     18  N   UNL     1       1.621   1.125   2.613  0.00  0.00    -0.177 NA
ATOM     19  C   UNL     1       2.942   0.573   2.942  0.00  0.00    +0.109 C 
ATOM     20  C   UNL     1       3.889   0.826   1.766  0.00  0.00    +0.017 C 
ATOM     21  C   UNL     1       3.897   2.320   1.435  0.00  0.00    +0.003 C 
ATOM     22  C   UNL     1       2.490   2.761   1.026  0.00  0.00    +0.017 C 
ATOM     23  C   UNL     1       1.528   2.528   2.188  0.00  0.00    +0.109 C 
ENDBRANCH  15  18
ENDBRANCH  14  15
ENDBRANCH   1  12
BRANCH   4  24
ATOM     24  N   UNL     1       1.058  -8.237  -0.045  0.00  0.00    -0.325 N 
ATOM     25  H   UNL     1       1.201  -8.671   0.811  0.00  0.00    +0.148 HD
BRANCH  24  26
ATOM     26  C   UNL     1       1.070  -9.027  -1.278  0.00  0.00    +0.138 C 
BRANCH  26  27
ATOM     27  C   UNL     1       1.322 -10.475  -0.945  0.00  0.00    -0.027 A 
ATOM     28  C   UNL     1       2.617 -10.955  -0.892  0.00  0.00    +0.009 A 
ATOM     29  C   UNL     1       2.853 -12.283  -0.586  0.00  0.00    +0.050 A 
ATOM     30  C   UNL     1       1.791 -13.135  -0.333  0.00  0.00    +0.166 A 
ATOM     31  C   UNL     1       0.486 -12.652  -0.386  0.00  0.00    +0.167 A 
ATOM     32  C   UNL     1       0.257 -11.319  -0.688  0.00  0.00    +0.054 A 
ATOM     33  O   UNL     1      -0.371 -13.675  -0.102  0.00  0.00    -0.453 OA
ATOM     34  C   UNL     1       0.398 -14.880  -0.275  0.00  0.00    +0.466 C 
ATOM     35  O   UNL     1       1.752 -14.462  -0.014  0.00  0.00    -0.453 OA
ENDBRANCH  26  27
ENDBRANCH  24  26
ENDBRANCH   4  24
TORSDOF 6
