REMARK  Name = ZINC03978051
REMARK  16 active torsions:
REMARK  status: ('A' for Active; 'I' for Inactive)
REMARK    1  A    between atoms: C_1  and  O_2
REMARK    2  A    between atoms: O_2  and  C_3
REMARK    3  A    between atoms: C_24  and  O_36
REMARK    4  A    between atoms: C_26  and  O_34
REMARK    5  A    between atoms: C_28  and  C_30
REMARK    6  A    between atoms: C_30  and  O_32
REMARK    7  A    between atoms: O_32  and  C_33
REMARK    8  A    between atoms: O_34  and  C_35
REMARK    9  A    between atoms: O_36  and  C_37
REMARK   10  A    between atoms: C_37  and  C_39
REMARK   11  A    between atoms: C_41  and  O_49
REMARK   12  A    between atoms: C_42  and  O_47
REMARK   13  A    between atoms: C_43  and  O_45
REMARK   14  A    between atoms: O_45  and  C_46
REMARK   15  A    between atoms: O_47  and  C_48
REMARK   16  A    between atoms: O_49  and  C_50
REMARK                            x       y       z     vdW  Elec       q    Type
REMARK                         _______ _______ _______ _____ _____    ______ ____
ROOT
ATOM      1  C   UNL     1      -0.016   1.988   5.319  0.00  0.00    +0.122 A 
ATOM      2  C   UNL     1       1.026   1.446   4.576  0.00  0.00    +0.046 A 
ATOM      3  C   UNL     1       0.930   1.252   3.221  0.00  0.00    +0.014 A 
ATOM      4  C   UNL     1      -0.270   1.627   2.610  0.00  0.00    +0.003 A 
ATOM      5  C   UNL     1      -1.339   2.180   3.361  0.00  0.00    +0.050 A 
ATOM      6  C   UNL     1      -1.218   2.367   4.736  0.00  0.00    +0.071 A 
ATOM      7  N   UNL     1      -2.362   2.437   2.489  0.00  0.00    -0.359 N 
ATOM      8  H   UNL     1      -3.220   2.820   2.731  0.00  0.00    +0.166 HD
ATOM      9  C   UNL     1      -1.990   2.074   1.222  0.00  0.00    +0.007 A 
ATOM     10  C   UNL     1      -0.731   1.578   1.239  0.00  0.00    -0.022 A 
ATOM     11  C   UNL     1      -0.013   1.086   0.008  0.00  0.00    +0.019 C 
ATOM     12  C   UNL     1      -0.767   1.601  -1.226  0.00  0.00    -0.073 C 
ATOM     13  C   UNL     1      -2.809   2.183  -0.041  0.00  0.00    -0.020 C 
ATOM     14  C   UNL     1      -4.240   1.712   0.224  0.00  0.00    -0.005 C 
ATOM     15  C   UNL     1      -5.041   1.799  -1.078  0.00  0.00    +0.006 C 
ATOM     16  C   UNL     1      -4.359   0.952  -2.154  0.00  0.00    -0.020 C 
ATOM     17  C   UNL     1      -2.919   1.443  -2.344  0.00  0.00    -0.074 C 
ATOM     18  C   UNL     1      -4.333  -0.513  -1.714  0.00  0.00    +0.049 C 
ATOM     19  C   UNL     1      -5.764  -1.009  -1.495  0.00  0.00    +0.206 C 
ATOM     20  C   UNL     1      -6.431  -0.167  -0.404  0.00  0.00    +0.172 C 
ATOM     21  C   UNL     1      -6.465   1.298  -0.845  0.00  0.00    +0.133 C 
ATOM     22  N   UNL     1      -2.208   1.291  -1.057  0.00  0.00    +0.386 N 
ATOM     23  H   UNL     1      -2.302   0.319  -0.740  0.00  0.00    -0.081 HD
ENDROOT
BRANCH   1  25
ATOM     24  C   UNL     1       1.399   1.748   7.214  0.00  0.00    +0.277 C 
ATOM     25  O   UNL     1       0.146   2.152   6.659  0.00  0.00    -0.495 OA
ENDBRANCH   1  25
BRANCH  21  26
ATOM     26  C   UNL     1      -7.120   2.128   0.229  0.00  0.00    +0.313 C 
ATOM     27  O   UNL     1      -6.508   3.029   0.752  0.00  0.00    -0.250 OA
BRANCH  26  28
ATOM     28  O   UNL     1      -8.382   1.868   0.603  0.00  0.00    -0.468 OA
ATOM     29  C   UNL     1      -8.949   2.708   1.642  0.00  0.00    +0.280 C 
ENDBRANCH  26  28
ENDBRANCH  21  26
BRANCH  20  30
ATOM     30  O   UNL     1      -7.765  -0.633  -0.192  0.00  0.00    -0.375 OA
ATOM     31  C   UNL     1      -7.873  -1.654   0.802  0.00  0.00    +0.194 C 
ENDBRANCH  20  30
BRANCH  19  32
ATOM     32  O   UNL     1      -5.737  -2.401  -1.084  0.00  0.00    -0.455 OA
BRANCH  32  33
ATOM     33  C   UNL     1      -5.783  -3.328  -2.060  0.00  0.00    +0.340 C 
ATOM     34  O   UNL     1      -5.845  -2.983  -3.224  0.00  0.00    -0.245 OA
BRANCH  33  35
ATOM     35  C   UNL     1      -5.759  -4.762  -1.717  0.00  0.00    +0.066 A 
ATOM     36  C   UNL     1      -5.683  -5.161  -0.380  0.00  0.00    +0.064 A 
ATOM     37  C   UNL     1      -5.665  -6.506  -0.061  0.00  0.00    +0.166 A 
ATOM     38  C   UNL     1      -5.713  -7.463  -1.071  0.00  0.00    +0.204 A 
ATOM     39  C   UNL     1      -5.785  -7.068  -2.405  0.00  0.00    +0.166 A 
ATOM     40  C   UNL     1      -5.808  -5.725  -2.729  0.00  0.00    +0.064 A 
BRANCH  39  41
ATOM     41  O   UNL     1      -5.832  -8.006  -3.389  0.00  0.00    -0.491 OA
ATOM     42  C   UNL     1      -5.905  -7.531  -4.734  0.00  0.00    +0.277 C 
ENDBRANCH  39  41
BRANCH  38  43
ATOM     43  O   UNL     1      -5.691  -8.784  -0.755  0.00  0.00    -0.488 OA
ATOM     44  C   UNL     1      -4.410  -9.410  -0.670  0.00  0.00    +0.277 C 
ENDBRANCH  38  43
BRANCH  37  45
ATOM     45  O   UNL     1      -5.596  -6.894   1.241  0.00  0.00    -0.491 OA
ATOM     46  C   UNL     1      -5.549  -5.860   2.225  0.00  0.00    +0.277 C 
ENDBRANCH  37  45
ENDBRANCH  33  35
ENDBRANCH  32  33
ENDBRANCH  19  32
TORSDOF 10
