REMARK  Name = ZINC39530402
REMARK  8 active torsions:
REMARK  status: ('A' for Active; 'I' for Inactive)
REMARK    1  A    between atoms: C_4  and  O_7
REMARK    2  A    between atoms: O_7  and  S_8
REMARK    3  A    between atoms: S_8  and  C_11
REMARK    4  A    between atoms: C_13  and  C_31
REMARK    5  A    between atoms: C_16  and  N_17
REMARK    6  A    between atoms: C_21  and  C_24
REMARK    7  A    between atoms: C_29  and  O_30
REMARK    8  A    between atoms: C_36  and  O_37
REMARK                            x       y       z     vdW  Elec       q    Type
REMARK                         _______ _______ _______ _____ _____    ______ ____
ROOT
ATOM      1  C   UNL     1       3.192  -2.273   2.002  0.00  0.00    +0.150 A 
ATOM      2  C   UNL     1       2.054  -2.014   2.735  0.00  0.00    +0.041 A 
ATOM      3  C   UNL     1       1.304  -3.068   3.253  0.00  0.00    -0.012 A 
ATOM      4  C   UNL     1       1.707  -4.384   3.029  0.00  0.00    +0.010 A 
ATOM      5  C   UNL     1       2.846  -4.639   2.296  0.00  0.00    +0.026 A 
ATOM      6  C   UNL     1       3.590  -3.586   1.776  0.00  0.00    +0.058 A 
ENDROOT
BRANCH   6   7
ATOM      7  N   UNL     1       4.740  -3.847   1.029  0.00  0.00    -0.331 N 
ATOM      8  C   UNL     1       6.053  -3.967   1.680  0.00  0.00    +0.086 C 
ATOM      9  C   UNL     1       6.715  -5.264   1.202  0.00  0.00    -0.063 C 
ATOM     10  N   UNL     1       6.763  -5.276  -0.266  0.00  0.00    +0.386 N 
ATOM     11  C   UNL     1       5.400  -5.304  -0.810  0.00  0.00    -0.020 C 
ATOM     12  C   UNL     1       4.672  -4.015  -0.431  0.00  0.00    +0.094 C 
ATOM     13  H   UNL     1       7.237  -4.447  -0.592  0.00  0.00    -0.085 HD
ATOM     14  H   UNL     1       7.266  -6.093  -0.578  0.00  0.00    -0.085 HD
BRANCH  11  15
ATOM     15  C   UNL     1       5.461  -5.426  -2.311  0.00  0.00    -0.018 A 
ATOM     16  C   UNL     1       6.618  -5.089  -2.986  0.00  0.00    +0.005 A 
ATOM     17  C   UNL     1       6.675  -5.200  -4.363  0.00  0.00    +0.000 A 
ATOM     18  C   UNL     1       5.573  -5.650  -5.068  0.00  0.00    +0.004 A 
ATOM     19  C   UNL     1       4.414  -5.989  -4.398  0.00  0.00    +0.045 A 
ATOM     20  C   UNL     1       4.357  -5.883  -3.016  0.00  0.00    +0.118 A 
BRANCH  20  21
ATOM     21  O   UNL     1       3.219  -6.221  -2.354  0.00  0.00    -0.507 OA
ATOM     22  H   UNL     1       2.597  -5.489  -2.241  0.00  0.00    +0.292 HD
ENDBRANCH  20  21
ENDBRANCH  11  15
ENDBRANCH   6   7
BRANCH   3  23
ATOM     23  C   UNL     1       0.079  -2.791   4.042  0.00  0.00    +0.024 A 
ATOM     24  C   UNL     1       0.114  -1.873   5.090  0.00  0.00    +0.012 A 
ATOM     25  C   UNL     1      -1.028  -1.619   5.821  0.00  0.00    +0.001 A 
ATOM     26  C   UNL     1      -2.210  -2.272   5.518  0.00  0.00    +0.004 A 
ATOM     27  C   UNL     1      -2.256  -3.185   4.481  0.00  0.00    +0.046 A 
ATOM     28  C   UNL     1      -1.118  -3.445   3.735  0.00  0.00    +0.125 A 
BRANCH  28  29
ATOM     29  O   UNL     1      -1.163  -4.338   2.711  0.00  0.00    -0.506 OA
ATOM     30  H   UNL     1      -0.964  -5.247   2.973  0.00  0.00    +0.292 HD
ENDBRANCH  28  29
ENDBRANCH   3  23
BRANCH   1  31
ATOM     31  S   UNL     1       4.140  -0.941   1.346  0.00  0.00    +0.153 S 
ATOM     32  O   UNL     1       5.458  -1.436   1.154  0.00  0.00    -0.131 OA
ATOM     33  O   UNL     1       3.863   0.192   2.158  0.00  0.00    -0.131 OA
BRANCH  31  34
ATOM     34  O   UNL     1       3.586  -0.632  -0.037  0.00  0.00    -0.342 OA
BRANCH  34  38
ATOM     35  C   UNL     1      -0.017   1.378   0.010  0.00  0.00    +0.000 A 
ATOM     36  C   UNL     1       1.170   2.088   0.002  0.00  0.00    +0.004 A 
ATOM     37  C   UNL     1       2.377   1.417  -0.013  0.00  0.00    +0.048 A 
ATOM     38  C   UNL     1       2.399   0.030  -0.021  0.00  0.00    +0.157 A 
ATOM     39  C   UNL     1       1.207  -0.680  -0.013  0.00  0.00    +0.048 A 
ATOM     40  C   UNL     1       0.002  -0.004   0.002  0.00  0.00    +0.004 A 
ENDBRANCH  34  38
ENDBRANCH  31  34
ENDBRANCH   1  31
TORSDOF 8
