REMARK  Name = ZINC38672996
REMARK  10 active torsions:
REMARK  status: ('A' for Active; 'I' for Inactive)
REMARK    1  A    between atoms: C_1  and  C_2
REMARK    2  A    between atoms: C_5  and  N_9
REMARK    3  A    between atoms: C_7  and  C_8
REMARK    4  A    between atoms: C_11  and  C_16
REMARK    5  A    between atoms: N_18  and  C_19
REMARK    6  A    between atoms: C_19  and  C_20
REMARK    7  A    between atoms: C_20  and  C_22
REMARK    8  A    between atoms: C_20  and  N_33
REMARK    9  A    between atoms: N_31  and  C_32
REMARK   10  A    between atoms: N_36  and  C_39
REMARK                            x       y       z     vdW  Elec       q    Type
REMARK                         _______ _______ _______ _____ _____    ______ ____
ROOT
ATOM      1  C   UNL     1      -0.388 -11.184  -1.450  0.00  0.00    +0.104 C 
ENDROOT
BRANCH   1   2
ATOM      2  C   UNL     1      -0.940 -12.173  -2.444  0.00  0.00    -0.028 A 
ATOM      3  C   UNL     1      -0.367 -12.283  -3.698  0.00  0.00    +0.007 A 
ATOM      4  C   UNL     1      -0.874 -13.188  -4.609  0.00  0.00    +0.024 A 
ATOM      5  C   UNL     1      -1.959 -13.988  -4.266  0.00  0.00    +0.033 A 
ATOM      6  C   UNL     1      -2.530 -13.879  -3.008  0.00  0.00    -0.026 A 
ATOM      7  C   UNL     1      -2.013 -12.971  -2.099  0.00  0.00    +0.010 A 
ATOM      8  C   UNL     1      -3.699 -14.736  -2.598  0.00  0.00    +0.038 C 
ATOM      9  C   UNL     1      -4.422 -15.280  -3.830  0.00  0.00    +0.024 C 
ATOM     10  C   UNL     1      -3.394 -15.938  -4.759  0.00  0.00    +0.105 C 
ATOM     11  N   UNL     1      -2.461 -14.895  -5.206  0.00  0.00    -0.333 N 
ATOM     12  C   UNL     1      -2.062 -14.805  -6.613  0.00  0.00    +0.129 C 
ENDBRANCH   1   2
BRANCH   1  13
ATOM     13  N   UNL     1       1.014 -11.514  -1.158  0.00  0.00    -0.297 NA
ATOM     14  C   UNL     1       1.226 -12.969  -1.171  0.00  0.00    +0.066 C 
ATOM     15  C   UNL     1       2.681 -13.272  -0.804  0.00  0.00    -0.064 C 
ATOM     16  N   UNL     1       3.575 -12.621  -1.771  0.00  0.00    +0.379 N 
ATOM     17  C   UNL     1       3.369 -11.167  -1.729  0.00  0.00    -0.064 C 
ATOM     18  C   UNL     1       1.920 -10.847  -2.103  0.00  0.00    +0.066 C 
ATOM     19  C   UNL     1       4.971 -12.927  -1.429  0.00  0.00    -0.096 C 
ATOM     20  H   UNL     1       3.373 -12.963  -2.699  0.00  0.00    -0.082 HD
ENDBRANCH   1  13
BRANCH   1  21
ATOM     21  C   UNL     1      -0.468  -9.773  -2.035  0.00  0.00    +0.127 C 
BRANCH  21  24
ATOM     22  C   UNL     1       0.189  -7.513  -1.405  0.00  0.00    +0.218 C 
ATOM     23  O   UNL     1      -0.401  -7.101  -2.382  0.00  0.00    -0.275 OA
ATOM     24  N   UNL     1       0.216  -8.834  -1.142  0.00  0.00    -0.313 N 
ATOM     25  H   UNL     1       0.687  -9.164  -0.361  0.00  0.00    +0.149 HD
BRANCH  22  28
ATOM     26  N   UNL     1       0.601  -4.277   0.231  0.00  0.00    -0.271 N 
ATOM     27  C   UNL     1       0.728  -5.093  -0.983  0.00  0.00    +0.127 C 
ATOM     28  C   UNL     1       0.892  -6.547  -0.487  0.00  0.00    +0.101 C 
ATOM     29  C   UNL     1       0.197  -6.489   0.893  0.00  0.00    +0.110 C 
ATOM     30  C   UNL     1       0.303  -5.036   1.300  0.00  0.00    +0.221 C 
ATOM     31  O   UNL     1       0.140  -4.616   2.426  0.00  0.00    -0.275 OA
BRANCH  26  36
ATOM     32  C   UNL     1       1.300   1.350   0.393  0.00  0.00    +0.044 C 
ATOM     33  C   UNL     1       1.114  -0.145   0.350  0.00  0.00    -0.047 A 
ATOM     34  C   UNL     1       0.688  -0.820   1.479  0.00  0.00    +0.005 A 
ATOM     35  C   UNL     1       0.517  -2.190   1.443  0.00  0.00    +0.024 A 
ATOM     36  C   UNL     1       0.773  -2.889   0.270  0.00  0.00    +0.037 A 
ATOM     37  C   UNL     1       1.200  -2.208  -0.862  0.00  0.00    +0.027 A 
ATOM     38  C   UNL     1       1.364  -0.838  -0.821  0.00  0.00    -0.046 A 
ATOM     39  C   UNL     1       1.822  -0.097  -2.050  0.00  0.00    +0.044 C 
ENDBRANCH  26  36
ENDBRANCH  22  28
ENDBRANCH  21  24
ENDBRANCH   1  21
TORSDOF 6
