REMARK  Name = ZINC41586560
REMARK  8 active torsions:
REMARK  status: ('A' for Active; 'I' for Inactive)
REMARK    1  A    between atoms: C_1  and  C_2
REMARK    2  A    between atoms: C_2  and  O_3
REMARK    3  A    between atoms: O_3  and  C_4
REMARK    4  A    between atoms: C_4  and  C_6
REMARK    5  A    between atoms: N_11  and  C_13
REMARK    6  A    between atoms: C_13  and  C_14
REMARK    7  A    between atoms: C_15  and  O_36
REMARK    8  A    between atoms: C_24  and  C_25
REMARK                            x       y       z     vdW  Elec       q    Type
REMARK                         _______ _______ _______ _____ _____    ______ ____
ROOT
ATOM      1  C   UNL     1       3.057  -6.502   4.600  0.00  0.00    +0.020 A 
ATOM      2  C   UNL     1       4.423  -6.675   4.442  0.00  0.00    +0.122 A 
ATOM      3  C   UNL     1       5.194  -7.199   5.477  0.00  0.00    +0.046 A 
ATOM      4  C   UNL     1       4.612  -7.549   6.662  0.00  0.00    +0.016 A 
ATOM      5  C   UNL     1       3.237  -7.381   6.837  0.00  0.00    +0.026 A 
ATOM      6  C   UNL     1       2.454  -6.847   5.800  0.00  0.00    +0.144 A 
ATOM      7  O   UNL     1       1.125  -6.681   5.975  0.00  0.00    -0.422 OA
ATOM      8  C   UNL     1       0.513  -7.006   7.124  0.00  0.00    +0.338 A 
ATOM      9  O   UNL     1      -0.690  -6.833   7.225  0.00  0.00    -0.245 OA
ATOM     10  C   UNL     1       1.218  -7.539   8.213  0.00  0.00    +0.101 A 
ATOM     11  C   UNL     1       2.583  -7.750   8.105  0.00  0.00    +0.006 A 
ENDROOT
BRANCH  11  12
ATOM     12  C   UNL     1       3.359  -8.309   9.228  0.00  0.00    +0.068 A 
ATOM     13  C   UNL     1       3.085  -9.570   9.736  0.00  0.00    +0.027 A 
ATOM     14  C   UNL     1       3.853 -10.027  10.839  0.00  0.00    +0.018 A 
ATOM     15  C   UNL     1       3.762 -11.359  11.267  0.00  0.00    +0.011 A 
ATOM     16  C   UNL     1       4.538 -11.794  12.302  0.00  0.00    +0.001 A 
ATOM     17  C   UNL     1       5.412 -10.926  12.942  0.00  0.00    +0.004 A 
ATOM     18  C   UNL     1       5.504  -9.607  12.551  0.00  0.00    +0.047 A 
ATOM     19  C   UNL     1       4.720  -9.140  11.504  0.00  0.00    +0.139 A 
ATOM     20  O   UNL     1       4.769  -7.837  11.139  0.00  0.00    -0.422 OA
ATOM     21  C   UNL     1       4.460  -7.551   9.850  0.00  0.00    +0.345 A 
ATOM     22  O   UNL     1       5.066  -6.698   9.229  0.00  0.00    -0.245 OA
ENDBRANCH  11  12
BRANCH   2  23
ATOM     23  O   UNL     1       5.014  -6.332   3.269  0.00  0.00    -0.506 OA
ATOM     24  H   UNL     1       5.325  -5.417   3.238  0.00  0.00    +0.292 HD
ENDBRANCH   2  23
BRANCH   1  25
ATOM     25  C   UNL     1       2.232  -5.933   3.475  0.00  0.00    -0.036 C 
BRANCH  25  30
ATOM     26  C   UNL     1       1.516  -2.381   2.500  0.00  0.00    +0.081 C 
ATOM     27  C   UNL     1       0.812  -1.927   3.782  0.00  0.00    +0.011 C 
ATOM     28  C   UNL     1       1.499  -2.578   4.987  0.00  0.00    -0.018 C 
ATOM     29  C   UNL     1       1.477  -4.098   4.820  0.00  0.00    -0.078 C 
ATOM     30  N   UNL     1       2.188  -4.470   3.591  0.00  0.00    +0.383 N 
ATOM     31  C   UNL     1       1.495  -3.909   2.425  0.00  0.00    -0.064 C 
ATOM     32  H   UNL     1       3.130  -4.109   3.626  0.00  0.00    -0.081 HD
BRANCH  26  33
ATOM     33  C   UNL     1       0.801  -1.808   1.304  0.00  0.00    +0.308 C 
ATOM     34  O   UNL     1       0.324  -2.546   0.475  0.00  0.00    -0.251 OA
BRANCH  33  35
ATOM     35  O   UNL     1       0.693  -0.477   1.160  0.00  0.00    -0.465 OA
BRANCH  35  37
ATOM     36  C   UNL     1      -0.019   1.526   0.010  0.00  0.00    +0.048 C 
ATOM     37  C   UNL     1       0.002  -0.004   0.002  0.00  0.00    +0.229 C 
ENDBRANCH  35  37
ENDBRANCH  33  35
ENDBRANCH  26  33
ENDBRANCH  25  30
ENDBRANCH   1  25
TORSDOF 7
