REMARK  Name = ZINC36674266
REMARK  9 active torsions:
REMARK  status: ('A' for Active; 'I' for Inactive)
REMARK    1  A    between atoms: C_1  and  C_2
REMARK    2  A    between atoms: N_11  and  C_15
REMARK    3  A    between atoms: C_15  and  C_16
REMARK    4  A    between atoms: N_18  and  C_19
REMARK    5  A    between atoms: C_19  and  C_20
REMARK    6  A    between atoms: C_20  and  C_22
REMARK    7  A    between atoms: C_20  and  N_29
REMARK    8  A    between atoms: N_29  and  C_30
REMARK    9  A    between atoms: N_29  and  C_31
REMARK                            x       y       z     vdW  Elec       q    Type
REMARK                         _______ _______ _______ _____ _____    ______ ____
ROOT
ATOM      1  C   UNL     1       0.944  -0.074   5.684  0.00  0.00    +0.231 C 
ATOM      2  O   UNL     1       1.401  -1.196   5.633  0.00  0.00    -0.274 OA
ATOM      3  N   UNL     1       0.941   0.599   6.851  0.00  0.00    -0.315 N 
ATOM      4  H   UNL     1       0.575   1.497   6.892  0.00  0.00    +0.149 HD
ENDROOT
BRANCH   1   5
ATOM      5  C   UNL     1       0.380   0.567   4.442  0.00  0.00    +0.213 C 
BRANCH   5  15
ATOM      6  C   UNL     1      -0.968  -0.278   0.304  0.00  0.00    +0.010 C 
ATOM      7  C   UNL     1      -0.795  -1.777   0.557  0.00  0.00    +0.018 C 
ATOM      8  C   UNL     1      -2.163  -2.410   0.824  0.00  0.00    +0.006 C 
ATOM      9  C   UNL     1      -1.987  -3.905   1.098  0.00  0.00    +0.000 C 
ATOM     10  C   UNL     1      -1.097  -4.098   2.328  0.00  0.00    +0.003 C 
ATOM     11  C   UNL     1       0.275  -3.472   2.066  0.00  0.00    +0.035 C 
ATOM     12  C   UNL     1       0.110  -1.987   1.766  0.00  0.00    +0.115 C 
ATOM     13  C   UNL     1      -0.444  -1.262   2.972  0.00  0.00    +0.247 C 
ATOM     14  O   UNL     1      -1.510  -1.451   3.515  0.00  0.00    -0.273 OA
ATOM     15  N   UNL     1       0.500  -0.361   3.315  0.00  0.00    -0.215 N 
ATOM     16  C   UNL     1       1.559  -0.420   2.499  0.00  0.00    +0.310 C 
ATOM     17  O   UNL     1       2.537   0.293   2.607  0.00  0.00    -0.252 OA
ATOM     18  N   UNL     1       1.419  -1.359   1.544  0.00  0.00    -0.285 N 
ATOM     19  H   UNL     1       2.057  -1.578   0.846  0.00  0.00    +0.151 HD
ENDBRANCH   5  15
ENDBRANCH   1   5
BRANCH   3  20
ATOM     20  C   UNL     1       1.489  -0.024   8.058  0.00  0.00    +0.093 C 
BRANCH  20  21
ATOM     21  C   UNL     1       1.475   0.987   9.206  0.00  0.00    -0.020 C 
BRANCH  21  22
ATOM     22  C   UNL     1       2.408   2.126   8.884  0.00  0.00    -0.041 A 
ATOM     23  C   UNL     1       1.902   3.319   8.402  0.00  0.00    +0.003 A 
ATOM     24  C   UNL     1       2.757   4.363   8.106  0.00  0.00    +0.000 A 
ATOM     25  C   UNL     1       4.120   4.216   8.292  0.00  0.00    +0.001 A 
ATOM     26  C   UNL     1       4.627   3.024   8.773  0.00  0.00    +0.020 A 
ATOM     27  C   UNL     1       3.770   1.980   9.075  0.00  0.00    +0.043 A 
ATOM     28 CL   UNL     1       4.405   0.484   9.686  0.00  0.00    -0.083 Cl
ENDBRANCH  21  22
BRANCH  21  29
ATOM     29  N   UNL     1       0.112   1.506   9.385  0.00  0.00    +0.382 N 
ATOM     30  C   UNL     1      -0.819   0.385   9.569  0.00  0.00    -0.096 C 
ATOM     31  C   UNL     1       0.071   2.376  10.568  0.00  0.00    -0.096 C 
ATOM     32  H   UNL     1      -0.156   2.035   8.569  0.00  0.00    -0.082 HD
ENDBRANCH  21  29
ENDBRANCH  20  21
ENDBRANCH   3  20
TORSDOF 6
