REMARK  Name = ZINC08920418
REMARK  13 active torsions:
REMARK  status: ('A' for Active; 'I' for Inactive)
REMARK    1  A    between atoms: C_1  and  C_2
REMARK    2  A    between atoms: C_5  and  C_32
REMARK    3  A    between atoms: C_6  and  N_8
REMARK    4  A    between atoms: C_9  and  C_11
REMARK    5  A    between atoms: C_11  and  C_13
REMARK    6  A    between atoms: C_11  and  N_14
REMARK    7  A    between atoms: C_21  and  C_31
REMARK    8  A    between atoms: C_22  and  C_24
REMARK    9  A    between atoms: C_24  and  O_26
REMARK   10  A    between atoms: O_26  and  C_27
REMARK   11  A    between atoms: C_27  and  C_28
REMARK   12  A    between atoms: C_28  and  C_29
REMARK   13  A    between atoms: C_28  and  C_30
REMARK                            x       y       z     vdW  Elec       q    Type
REMARK                         _______ _______ _______ _____ _____    ______ ____
ROOT
ATOM      1  N   UNL     1      -0.717   1.557  -1.187  0.00  0.00    -0.287 N 
ATOM      2  C   UNL     1      -0.866   2.892  -1.373  0.00  0.00    +0.204 A 
ATOM      3  N   UNL     1      -1.482   3.379  -2.415  0.00  0.00    -0.230 NA
ATOM      4  C   UNL     1      -2.008   2.590  -3.344  0.00  0.00    +0.116 A 
ATOM      5  C   UNL     1      -1.923   1.181  -3.261  0.00  0.00    +0.076 A 
ATOM      6  C   UNL     1      -1.211   0.667  -2.069  0.00  0.00    +0.263 A 
ATOM      7  O   UNL     1      -1.076  -0.531  -1.890  0.00  0.00    -0.267 OA
ATOM      8  C   UNL     1      -2.518   0.473  -4.307  0.00  0.00    -0.015 A 
ATOM      9  C   UNL     1      -3.131   1.149  -5.322  0.00  0.00    +0.102 A 
ATOM     10  S   UNL     1      -2.900   2.857  -4.855  0.00  0.00    -0.062 S 
ATOM     11  C   UNL     1      -2.484  -1.033  -4.315  0.00  0.00    +0.046 C 
ENDROOT
BRANCH   1  12
ATOM     12  C   UNL     1      -0.008   1.073   0.001  0.00  0.00    +0.174 C 
ATOM     13  C   UNL     1      -0.732   1.558   1.259  0.00  0.00    +0.041 C 
BRANCH  12  15
ATOM     14  N   UNL     1       2.245   1.288   0.998  0.00  0.00    -0.284 N 
ATOM     15  C   UNL     1       1.402   1.605  -0.004  0.00  0.00    +0.240 C 
ATOM     16  O   UNL     1       1.778   2.317  -0.910  0.00  0.00    -0.273 OA
ATOM     17  H   UNL     1       1.922   0.785   1.763  0.00  0.00    +0.155 HD
BRANCH  14  23
ATOM     18  C   UNL     1       6.158   2.576  -1.684  0.00  0.00    +0.044 C 
ATOM     19  C   UNL     1       5.508   2.315  -0.350  0.00  0.00    -0.049 A 
ATOM     20  C   UNL     1       6.236   2.468   0.815  0.00  0.00    +0.004 A 
ATOM     21  C   UNL     1       5.643   2.229   2.041  0.00  0.00    +0.005 A 
ATOM     22  C   UNL     1       4.318   1.844   2.106  0.00  0.00    -0.029 A 
ATOM     23  C   UNL     1       3.586   1.684   0.937  0.00  0.00    +0.037 A 
ATOM     24  C   UNL     1       4.184   1.924  -0.293  0.00  0.00    +0.027 A 
ATOM     25  C   UNL     1       3.670   1.590   3.442  0.00  0.00    +0.045 C 
ENDBRANCH  14  23
ENDBRANCH  12  15
ENDBRANCH   1  12
BRANCH   9  26
ATOM     26  C   UNL     1      -3.809   0.609  -6.502  0.00  0.00    +0.346 C 
ATOM     27  O   UNL     1      -3.874  -0.595  -6.668  0.00  0.00    -0.244 OA
BRANCH  26  28
ATOM     28  O   UNL     1      -4.360   1.445  -7.406  0.00  0.00    -0.461 OA
BRANCH  28  29
ATOM     29  C   UNL     1      -5.016   0.838  -8.551  0.00  0.00    +0.235 C 
BRANCH  29  30
ATOM     30  C   UNL     1      -5.576   1.936  -9.458  0.00  0.00    +0.020 C 
ATOM     31  C   UNL     1      -6.157   1.303 -10.724  0.00  0.00    +0.010 C 
ATOM     32  C   UNL     1      -6.677   2.697  -8.717  0.00  0.00    +0.010 C 
ENDBRANCH  29  30
ENDBRANCH  28  29
ENDBRANCH  26  28
ENDBRANCH   9  26
TORSDOF 7
