REMARK  Name = ZINC00711232
REMARK  8 active torsions:
REMARK  status: ('A' for Active; 'I' for Inactive)
REMARK    1  A    between atoms: C_1  and  C_2
REMARK    2  A    between atoms: C_3  and  C_26
REMARK    3  A    between atoms: C_4  and  C_10
REMARK    4  A    between atoms: N_12  and  C_20
REMARK    5  A    between atoms: C_14  and  C_15
REMARK    6  A    between atoms: C_26  and  O_28
REMARK    7  A    between atoms: O_28  and  C_29
REMARK    8  A    between atoms: C_29  and  C_30
REMARK                            x       y       z     vdW  Elec       q    Type
REMARK                         _______ _______ _______ _____ _____    ______ ____
ROOT
ATOM      1  C   UNL     1      -6.508  -1.309   2.769  0.00  0.00    +0.061 C 
ATOM      2  C   UNL     1      -5.538  -0.723   3.763  0.00  0.00    +0.021 C 
ATOM      3  C   UNL     1      -4.424  -0.104   3.318  0.00  0.00    +0.078 C 
ATOM      4  C   UNL     1      -3.479   0.476   4.351  0.00  0.00    +0.147 C 
ATOM      5  N   UNL     1      -3.853   0.310   5.765  0.00  0.00    -0.288 N 
ATOM      6  C   UNL     1      -4.999  -0.339   6.054  0.00  0.00    +0.304 C 
ATOM      7  O   UNL     1      -5.317  -0.480   7.218  0.00  0.00    -0.252 OA
ATOM      8  N   UNL     1      -5.798  -0.832   5.099  0.00  0.00    -0.273 N 
ATOM      9  H   UNL     1      -3.289   0.660   6.473  0.00  0.00    +0.151 HD
ATOM     10  H   UNL     1      -6.609  -1.289   5.372  0.00  0.00    +0.156 HD
ENDROOT
BRANCH   4  11
ATOM     11  C   UNL     1      -2.127  -0.158   4.152  0.00  0.00    +0.024 A 
ATOM     12  C   UNL     1      -1.733  -1.358   4.630  0.00  0.00    +0.121 A 
ATOM     13  N   UNL     1      -0.451  -1.567   4.233  0.00  0.00    -0.239 N 
ATOM     14  N   UNL     1      -0.042  -0.455   3.485  0.00  0.00    -0.166 NA
ATOM     15  C   UNL     1      -1.049   0.393   3.427  0.00  0.00    +0.105 A 
BRANCH  13  16
ATOM     16  C   UNL     1       0.327  -2.695   4.522  0.00  0.00    +0.065 A 
ATOM     17  C   UNL     1      -0.202  -3.728   5.284  0.00  0.00    +0.028 A 
ATOM     18  C   UNL     1       0.566  -4.842   5.563  0.00  0.00    +0.002 A 
ATOM     19  C   UNL     1       1.864  -4.924   5.093  0.00  0.00    +0.000 A 
ATOM     20  C   UNL     1       2.396  -3.894   4.339  0.00  0.00    +0.002 A 
ATOM     21  C   UNL     1       1.631  -2.780   4.052  0.00  0.00    +0.028 A 
ENDBRANCH  13  16
BRANCH  15  22
ATOM     22  C   UNL     1      -1.048   1.697   2.729  0.00  0.00    +0.040 A 
ATOM     23  C   UNL     1      -0.027   2.598   2.585  0.00  0.00    +0.018 A 
ATOM     24  C   UNL     1      -0.263   3.758   1.880  0.00  0.00    +0.008 A 
ATOM     25  C   UNL     1      -1.498   3.978   1.362  0.00  0.00    +0.046 A 
ATOM     26  S   UNL     1      -2.380   2.510   1.862  0.00  0.00    -0.095 S 
ENDBRANCH  15  22
ENDBRANCH   4  11
BRANCH   3  27
ATOM     27  C   UNL     1      -4.151   0.005   1.934  0.00  0.00    +0.339 C 
ATOM     28  O   UNL     1      -3.279  -0.678   1.431  0.00  0.00    -0.245 OA
BRANCH  27  29
ATOM     29  O   UNL     1      -4.857   0.866   1.173  0.00  0.00    -0.457 OA
BRANCH  29  30
ATOM     30  C   UNL     1      -4.608   0.844  -0.234  0.00  0.00    +0.268 C 
BRANCH  30  31
ATOM     31  C   UNL     1      -5.403   1.935  -0.903  0.00  0.00    -0.010 A 
ATOM     32  C   UNL     1      -4.894   3.219  -0.970  0.00  0.00    +0.007 A 
ATOM     33  C   UNL     1      -5.621   4.219  -1.589  0.00  0.00    +0.000 A 
ATOM     34  C   UNL     1      -6.859   3.937  -2.135  0.00  0.00    +0.000 A 
ATOM     35  C   UNL     1      -7.370   2.654  -2.062  0.00  0.00    +0.000 A 
ATOM     36  C   UNL     1      -6.644   1.654  -1.444  0.00  0.00    +0.007 A 
ENDBRANCH  30  31
ENDBRANCH  29  30
ENDBRANCH  27  29
ENDBRANCH   3  27
TORSDOF 7
