REMARK  Name = ZINC67487766
REMARK  9 active torsions:
REMARK  status: ('A' for Active; 'I' for Inactive)
REMARK    1  A    between atoms: C_1  and  C_2
REMARK    2  A    between atoms: C_5  and  O_23
REMARK    3  A    between atoms: C_6  and  N_8
REMARK    4  A    between atoms: N_11  and  C_12
REMARK    5  A    between atoms: N_11  and  C_13
REMARK    6  A    between atoms: C_13  and  C_15
REMARK    7  A    between atoms: C_13  and  C_16
REMARK    8  A    between atoms: C_20  and  O_22
REMARK    9  A    between atoms: O_23  and  C_24
REMARK                            x       y       z     vdW  Elec       q    Type
REMARK                         _______ _______ _______ _____ _____    ______ ____
ROOT
ATOM      1  N   UNL     1       0.057  -2.877   2.422  0.00  0.00    -0.266 N 
ATOM      2  C   UNL     1       0.157  -2.173   3.567  0.00  0.00    +0.307 C 
ATOM      3  O   UNL     1       0.163  -0.958   3.535  0.00  0.00    -0.252 OA
ATOM      4  N   UNL     1       0.249  -2.817   4.747  0.00  0.00    -0.282 N 
ATOM      5  C   UNL     1       0.241  -4.281   4.786  0.00  0.00    +0.134 C 
ATOM      6  H   UNL     1      -0.010  -3.844   2.451  0.00  0.00    +0.156 HD
ENDROOT
BRANCH   1  12
ATOM      7  C   UNL     1      -1.221   1.036  -0.269  0.00  0.00    +0.044 C 
ATOM      8  C   UNL     1      -0.563  -0.314  -0.144  0.00  0.00    -0.048 A 
ATOM      9  C   UNL     1       0.032  -0.895  -1.249  0.00  0.00    +0.007 A 
ATOM     10  C   UNL     1       0.637  -2.133  -1.141  0.00  0.00    +0.048 A 
ATOM     11  C   UNL     1       0.648  -2.796   0.075  0.00  0.00    +0.141 A 
ATOM     12  C   UNL     1       0.049  -2.211   1.188  0.00  0.00    +0.077 A 
ATOM     13  C   UNL     1      -0.551  -0.966   1.074  0.00  0.00    +0.030 A 
BRANCH  11  14
ATOM     14  O   UNL     1       1.243  -4.014   0.183  0.00  0.00    -0.493 OA
ATOM     15  C   UNL     1       1.837  -4.553  -1.000  0.00  0.00    +0.277 C 
ENDBRANCH  11  14
ENDBRANCH   1  12
BRANCH   4  16
ATOM     16  C   UNL     1       0.358  -2.052   5.992  0.00  0.00    +0.104 C 
ATOM     17  C   UNL     1       1.602  -2.502   6.760  0.00  0.00    +0.033 C 
BRANCH  16  18
ATOM     18  C   UNL     1      -0.867  -2.290   6.837  0.00  0.00    -0.024 A 
ATOM     19  C   UNL     1      -0.778  -2.230   8.216  0.00  0.00    +0.006 A 
ATOM     20  C   UNL     1      -1.900  -2.448   8.993  0.00  0.00    +0.004 A 
ATOM     21  C   UNL     1      -3.114  -2.727   8.394  0.00  0.00    +0.045 A 
ATOM     22  C   UNL     1      -3.206  -2.787   7.011  0.00  0.00    +0.117 A 
ATOM     23  C   UNL     1      -2.079  -2.562   6.233  0.00  0.00    +0.050 A 
BRANCH  22  24
ATOM     24  O   UNL     1      -4.398  -3.061   6.420  0.00  0.00    -0.507 OA
ATOM     25  H   UNL     1      -4.929  -2.276   6.223  0.00  0.00    +0.292 HD
ENDBRANCH  22  24
ENDBRANCH  16  18
ENDBRANCH   4  16
TORSDOF 5
