REMARK  Name = ZINC36321533
REMARK  5 active torsions:
REMARK  status: ('A' for Active; 'I' for Inactive)
REMARK    1  A    between atoms: C_1  and  C_2
REMARK    2  A    between atoms: C_3  and  C_18
REMARK    3  A    between atoms: C_4  and  C_10
REMARK    4  A    between atoms: N_20  and  C_21
REMARK    5  A    between atoms: C_25  and  N_27
REMARK                            x       y       z     vdW  Elec       q    Type
REMARK                         _______ _______ _______ _____ _____    ______ ____
ROOT
ATOM      1  C   UNL     1       0.678   1.549  -1.530  0.00  0.00    +0.061 C 
ATOM      2  C   UNL     1       0.613   0.215  -0.832  0.00  0.00    +0.017 C 
ATOM      3  C   UNL     1      -0.522  -0.148  -0.198  0.00  0.00    +0.056 C 
ATOM      4  C   UNL     1      -0.544  -1.498   0.491  0.00  0.00    +0.139 C 
ATOM      5  N   UNL     1       0.683  -2.308   0.410  0.00  0.00    -0.315 N 
ATOM      6  C   UNL     1       1.739  -1.808  -0.262  0.00  0.00    +0.135 C 
ATOM      7  S   UNL     1       3.172  -2.740  -0.364  0.00  0.00    -0.019 S 
ATOM      8  N   UNL     1       1.702  -0.610  -0.857  0.00  0.00    -0.300 N 
ATOM      9  H   UNL     1       0.731  -3.181   0.831  0.00  0.00    +0.149 HD
ATOM     10  H   UNL     1       2.494  -0.308  -1.329  0.00  0.00    +0.154 HD
ENDROOT
BRANCH   4  11
ATOM     11  C   UNL     1      -1.671  -2.304  -0.102  0.00  0.00    -0.021 A 
ATOM     12  C   UNL     1      -1.516  -2.904  -1.337  0.00  0.00    +0.008 A 
ATOM     13  C   UNL     1      -2.548  -3.643  -1.882  0.00  0.00    +0.040 A 
ATOM     14  C   UNL     1      -3.740  -3.783  -1.191  0.00  0.00    +0.137 A 
ATOM     15  C   UNL     1      -3.895  -3.181   0.047  0.00  0.00    +0.053 A 
ATOM     16  C   UNL     1      -2.858  -2.446   0.593  0.00  0.00    +0.024 A 
ATOM     17 BR   UNL     1      -5.521  -3.369   0.994  0.00  0.00    -0.047 Br
ATOM     18  F   UNL     1      -4.750  -4.505  -1.722  0.00  0.00    -0.204 F 
ENDBRANCH   4  11
BRANCH   3  19
ATOM     19  C   UNL     1      -1.653   0.703  -0.176  0.00  0.00    +0.248 C 
ATOM     20  O   UNL     1      -1.915   1.342   0.828  0.00  0.00    -0.270 OA
ATOM     21  N   UNL     1      -2.439   0.807  -1.265  0.00  0.00    -0.282 N 
ATOM     22  H   UNL     1      -2.280   0.239  -2.035  0.00  0.00    +0.155 HD
BRANCH  21  23
ATOM     23  C   UNL     1      -3.486   1.735  -1.286  0.00  0.00    +0.036 A 
ATOM     24  C   UNL     1      -4.233   1.968  -0.139  0.00  0.00    +0.023 A 
ATOM     25  C   UNL     1      -5.266   2.884  -0.163  0.00  0.00    +0.004 A 
ATOM     26  C   UNL     1      -5.556   3.571  -1.329  0.00  0.00    +0.033 A 
ATOM     27  C   UNL     1      -4.814   3.341  -2.473  0.00  0.00    +0.128 A 
ATOM     28  C   UNL     1      -3.776   2.430  -2.453  0.00  0.00    +0.056 A 
BRANCH  27  29
ATOM     29  N   UNL     1      -5.128   4.077  -3.717  0.00  0.00    +0.056 N 
ATOM     30  O   UNL     1      -6.033   4.879  -3.734  0.00  0.00    -0.126 OA
ATOM     31  O   UNL     1      -4.480   3.877  -4.718  0.00  0.00    -0.126 OA
ENDBRANCH  27  29
ENDBRANCH  21  23
ENDBRANCH   3  19
TORSDOF 4
