REMARK  Name = ZINC12369076
REMARK  5 active torsions:
REMARK  status: ('A' for Active; 'I' for Inactive)
REMARK    1  A    between atoms: C_3  and  C_22
REMARK    2  A    between atoms: C_6  and  C_7
REMARK    3  A    between atoms: N_8  and  N_9
REMARK    4  A    between atoms: N_9  and  C_10
REMARK    5  A    between atoms: C_13  and  C_17
REMARK                            x       y       z     vdW  Elec       q    Type
REMARK                         _______ _______ _______ _____ _____    ______ ____
ROOT
ATOM      1  N   UNL     1       3.782  -0.430   0.597  0.00  0.00    -0.235 N 
ATOM      2  H   UNL     1       3.931  -1.208   1.156  0.00  0.00    +0.174 HD
ENDROOT
BRANCH   1   3
ATOM      3  C   UNL     1       2.531   0.191   0.584  0.00  0.00    +0.085 A 
ATOM      4  C   UNL     1       1.422  -0.463   1.110  0.00  0.00    +0.065 A 
ATOM      5  C   UNL     1       0.186   0.155   1.096  0.00  0.00    +0.034 A 
ATOM      6  C   UNL     1       0.051   1.422   0.558  0.00  0.00    +0.058 A 
ATOM      7  C   UNL     1       1.151   2.076   0.034  0.00  0.00    +0.034 A 
ATOM      8  C   UNL     1       2.390   1.465   0.044  0.00  0.00    +0.065 A 
ATOM      9 CL   UNL     1       3.770   2.287  -0.615  0.00  0.00    -0.082 Cl
ATOM     10 CL   UNL     1       1.591  -2.054   1.786  0.00  0.00    -0.082 Cl
BRANCH   6  11
ATOM     11  C   UNL     1      -1.300   2.089   0.539  0.00  0.00    +0.418 C 
ATOM     12  F   UNL     1      -1.474   2.824   1.717  0.00  0.00    -0.166 F 
ATOM     13  F   UNL     1      -1.380   2.948  -0.562  0.00  0.00    -0.166 F 
ATOM     14  F   UNL     1      -2.300   1.115   0.445  0.00  0.00    -0.166 F 
ENDBRANCH   6  11
ENDBRANCH   1   3
BRANCH   1  16
ATOM     15  C   UNL     1       5.946  -0.571  -0.277  0.00  0.00    +0.138 C 
ATOM     16  N   UNL     1       4.821   0.072  -0.197  0.00  0.00    -0.190 NA
BRANCH  15  22
ATOM     17  C   UNL     1       7.228  -2.643   0.230  0.00  0.00    +0.010 A 
ATOM     18  C   UNL     1       7.269  -3.988   0.537  0.00  0.00    +0.013 A 
ATOM     19  C   UNL     1       6.094  -4.710   0.651  0.00  0.00    +0.055 A 
ATOM     20  C   UNL     1       4.871  -4.090   0.464  0.00  0.00    +0.013 A 
ATOM     21  C   UNL     1       4.816  -2.745   0.162  0.00  0.00    +0.010 A 
ATOM     22  C   UNL     1       5.997  -2.009   0.046  0.00  0.00    -0.005 A 
BRANCH  19  23
ATOM     23  C   UNL     1       6.146  -6.179   0.981  0.00  0.00    +0.417 C 
ATOM     24  F   UNL     1       6.214  -6.921  -0.204  0.00  0.00    -0.166 F 
ATOM     25  F   UNL     1       7.278  -6.442   1.761  0.00  0.00    -0.166 F 
ATOM     26  F   UNL     1       4.996  -6.540   1.691  0.00  0.00    -0.166 F 
ENDBRANCH  19  23
ENDBRANCH  15  22
ENDBRANCH   1  16
TORSDOF 5
