REMARK  Name = ZINC16425352
REMARK  9 active torsions:
REMARK  status: ('A' for Active; 'I' for Inactive)
REMARK    1  A    between atoms: C_1  and  C_2
REMARK    2  A    between atoms: C_2  and  C_3
REMARK    3  A    between atoms: C_3  and  C_5
REMARK    4  A    between atoms: C_3  and  N_23
REMARK    5  A    between atoms: N_15  and  C_16
REMARK    6  A    between atoms: C_19  and  C_22
REMARK    7  A    between atoms: N_23  and  C_24
REMARK    8  A    between atoms: C_24  and  C_25
REMARK    9  A    between atoms: N_33  and  C_34
REMARK                            x       y       z     vdW  Elec       q    Type
REMARK                         _______ _______ _______ _____ _____    ______ ____
ROOT
ATOM      1  C   UNL     1      -3.908   3.372  -0.403  0.00  0.00    +0.144 C 
ENDROOT
BRANCH   1   2
ATOM      2  C   UNL     1      -4.126   1.894  -0.205  0.00  0.00    +0.138 A 
ATOM      3  N   UNL     1      -4.099   1.122  -1.249  0.00  0.00    -0.231 NA
ATOM      4  C   UNL     1      -4.293  -0.217  -1.148  0.00  0.00    +0.078 A 
ATOM      5  C   UNL     1      -4.269  -1.047  -2.271  0.00  0.00    +0.028 A 
ATOM      6  C   UNL     1      -4.472  -2.400  -2.123  0.00  0.00    +0.002 A 
ATOM      7  C   UNL     1      -4.700  -2.952  -0.869  0.00  0.00    +0.001 A 
ATOM      8  C   UNL     1      -4.728  -2.155   0.254  0.00  0.00    +0.015 A 
ATOM      9  C   UNL     1      -4.525  -0.782   0.126  0.00  0.00    +0.065 A 
ATOM     10  C   UNL     1      -4.545   0.119   1.287  0.00  0.00    +0.266 A 
ATOM     11  O   UNL     1      -4.740  -0.304   2.412  0.00  0.00    -0.267 OA
ATOM     12  N   UNL     1      -4.338   1.436   1.058  0.00  0.00    -0.263 N 
BRANCH  12  13
ATOM     13  C   UNL     1      -4.347   2.337   2.131  0.00  0.00    +0.051 A 
ATOM     14  C   UNL     1      -5.545   2.676   2.744  0.00  0.00    +0.026 A 
ATOM     15  C   UNL     1      -5.550   3.561   3.805  0.00  0.00    +0.005 A 
ATOM     16  C   UNL     1      -4.364   4.113   4.252  0.00  0.00    -0.050 A 
ATOM     17  C   UNL     1      -3.169   3.781   3.640  0.00  0.00    +0.005 A 
ATOM     18  C   UNL     1      -3.158   2.898   2.579  0.00  0.00    +0.026 A 
ATOM     19  C   UNL     1      -4.373   5.078   5.410  0.00  0.00    +0.044 C 
ENDBRANCH  12  13
ENDBRANCH   1   2
BRANCH   1  20
ATOM     20  N   UNL     1      -5.181   4.080  -0.248  0.00  0.00    -0.271 N 
ATOM     21  C   UNL     1      -5.288   5.089   0.639  0.00  0.00    +0.307 C 
ATOM     22  O   UNL     1      -4.327   5.412   1.310  0.00  0.00    -0.252 OA
ATOM     23  N   UNL     1      -6.459   5.739   0.781  0.00  0.00    -0.267 N 
ATOM     24  H   UNL     1      -7.244   5.437   0.299  0.00  0.00    +0.156 HD
BRANCH  23  25
ATOM     25  C   UNL     1      -6.543   6.853   1.627  0.00  0.00    +0.070 A 
ATOM     26  C   UNL     1      -5.419   7.630   1.868  0.00  0.00    +0.026 A 
ATOM     27  C   UNL     1      -5.506   8.731   2.697  0.00  0.00    +0.002 A 
ATOM     28  C   UNL     1      -6.709   9.054   3.298  0.00  0.00    +0.003 A 
ATOM     29  C   UNL     1      -7.831   8.280   3.066  0.00  0.00    +0.040 A 
ATOM     30  C   UNL     1      -7.752   7.179   2.232  0.00  0.00    +0.145 A 
ATOM     31  F   UNL     1      -8.848   6.422   2.005  0.00  0.00    -0.204 F 
ENDBRANCH  23  25
BRANCH  20  32
ATOM     32  C   UNL     1      -6.339   3.690  -1.057  0.00  0.00    +0.145 C 
BRANCH  32  33
ATOM     33  C   UNL     1      -7.177   2.700  -0.290  0.00  0.00    -0.030 A 
ATOM     34  C   UNL     1      -7.041   1.346  -0.531  0.00  0.00    +0.005 A 
ATOM     35  C   UNL     1      -7.807   0.438   0.176  0.00  0.00    +0.000 A 
ATOM     36  C   UNL     1      -8.716   0.884   1.116  0.00  0.00    +0.000 A 
ATOM     37  C   UNL     1      -8.856   2.239   1.353  0.00  0.00    +0.000 A 
ATOM     38  C   UNL     1      -8.087   3.147   0.650  0.00  0.00    +0.005 A 
ENDBRANCH  32  33
ENDBRANCH  20  32
ENDBRANCH   1  20
BRANCH   1  40
ATOM     39  C   UNL     1      -3.027   5.108  -1.970  0.00  0.00    +0.006 C 
ATOM     40  C   UNL     1      -3.353   3.622  -1.807  0.00  0.00    +0.027 C 
ENDBRANCH   1  40
TORSDOF 7
