REMARK  Name = ZINC02448061
REMARK  9 active torsions:
REMARK  status: ('A' for Active; 'I' for Inactive)
REMARK    1  A    between atoms: C_4  and  C_7
REMARK    2  A    between atoms: C_7  and  C_8
REMARK    3  A    between atoms: C_8  and  C_9
REMARK    4  A    between atoms: C_9  and  N_10
REMARK    5  A    between atoms: C_11  and  C_13
REMARK    6  A    between atoms: N_24  and  N_27
REMARK    7  A    between atoms: C_25  and  N_26
REMARK    8  A    between atoms: C_28  and  C_29
REMARK    9  A    between atoms: C_33  and  N_35
REMARK                            x       y       z     vdW  Elec       q    Type
REMARK                         _______ _______ _______ _____ _____    ______ ____
ROOT
ATOM      1  C   UNL     1      -1.244   9.474   0.841  0.00  0.00    +0.105 A 
ATOM      2  C   UNL     1      -1.259   9.539  -0.630  0.00  0.00    +0.124 A 
ATOM      3  C   UNL     1      -1.244   8.145  -1.082  0.00  0.00    +0.183 A 
ATOM      4  N   UNL     1      -1.252   7.883  -2.372  0.00  0.00    -0.224 NA
ATOM      5  C   UNL     1      -1.275   8.888  -3.256  0.00  0.00    +0.092 A 
ATOM      6  C   UNL     1      -1.284   8.616  -4.637  0.00  0.00    +0.030 A 
ATOM      7  C   UNL     1      -1.306   9.643  -5.529  0.00  0.00    +0.002 A 
ATOM      8  C   UNL     1      -1.321  10.969  -5.096  0.00  0.00    +0.002 A 
ATOM      9  C   UNL     1      -1.312  11.270  -3.770  0.00  0.00    +0.030 A 
ATOM     10  C   UNL     1      -1.289  10.235  -2.817  0.00  0.00    +0.090 A 
ATOM     11  N   UNL     1      -1.280  10.521  -1.509  0.00  0.00    -0.241 NA
ATOM     12  N   UNL     1      -1.222   7.354   0.051  0.00  0.00    -0.198 N 
ATOM     13  C   UNL     1      -1.227   8.124   1.176  0.00  0.00    +0.134 A 
ENDROOT
BRANCH   1  15
ATOM     14  N   UNL     1      -0.088  11.142   2.182  0.00  0.00    -0.311 N 
ATOM     15  C   UNL     1      -1.251  10.604   1.766  0.00  0.00    +0.250 C 
ATOM     16  O   UNL     1      -2.309  11.060   2.162  0.00  0.00    -0.270 OA
ATOM     17  H   UNL     1       0.755  10.779   1.867  0.00  0.00    +0.149 HD
BRANCH  14  18
ATOM     18  C   UNL     1      -0.095  12.276   3.110  0.00  0.00    +0.105 C 
BRANCH  18  19
ATOM     19  C   UNL     1       1.345  12.691   3.420  0.00  0.00    +0.023 C 
BRANCH  19  20
ATOM     20  C   UNL     1       1.337  13.874   4.389  0.00  0.00    +0.036 C 
BRANCH  20  24
ATOM     21  C   UNL     1       5.357  15.034   5.253  0.00  0.00    +0.000 A 
ATOM     22  C   UNL     1       4.687  15.604   4.187  0.00  0.00    +0.000 A 
ATOM     23  C   UNL     1       3.386  15.229   3.907  0.00  0.00    +0.003 A 
ATOM     24  C   UNL     1       2.756  14.283   4.694  0.00  0.00    -0.047 A 
ATOM     25  C   UNL     1       3.424  13.717   5.763  0.00  0.00    +0.003 A 
ATOM     26  C   UNL     1       4.726  14.088   6.040  0.00  0.00    +0.000 A 
ENDBRANCH  20  24
ENDBRANCH  19  20
ENDBRANCH  18  19
ENDBRANCH  14  18
ENDBRANCH   1  15
BRANCH  13  27
ATOM     27  N   UNL     1      -1.214   7.636   2.458  0.00  0.00    -0.342 N 
ATOM     28  H   UNL     1      -1.199   6.679   2.612  0.00  0.00    +0.144 HD
ATOM     29  H   UNL     1      -1.219   8.249   3.210  0.00  0.00    +0.144 HD
ENDBRANCH  13  27
BRANCH  12  30
ATOM     30  N   UNL     1      -1.202   5.953   0.044  0.00  0.00    -0.171 NA
ATOM     31  C   UNL     1      -0.070   5.320   0.030  0.00  0.00    +0.141 C 
BRANCH  31  32
ATOM     32  C   UNL     1      -0.050   3.845   0.023  0.00  0.00    -0.003 A 
ATOM     33  C   UNL     1      -1.248   3.127   0.031  0.00  0.00    +0.009 A 
ATOM     34  C   UNL     1      -1.222   1.748   0.017  0.00  0.00    +0.003 A 
ATOM     35  C   UNL     1      -0.013   1.076   0.008  0.00  0.00    +0.033 A 
ATOM     36  C   UNL     1       1.178   1.780   0.000  0.00  0.00    +0.127 A 
ATOM     37  C   UNL     1       1.167   3.160   0.007  0.00  0.00    +0.042 A 
BRANCH  36  38
ATOM     38  N   UNL     1       2.467   1.053  -0.016  0.00  0.00    +0.056 N 
ATOM     39  O   UNL     1       2.478  -0.165  -0.022  0.00  0.00    -0.126 OA
ATOM     40  O   UNL     1       3.516   1.672  -0.022  0.00  0.00    -0.126 OA
ENDBRANCH  36  38
ENDBRANCH  31  32
ENDBRANCH  12  30
TORSDOF 9
