REMARK  Name = ZINC04092183
REMARK  6 active torsions:
REMARK  status: ('A' for Active; 'I' for Inactive)
REMARK    1  A    between atoms: C_1  and  C_2
REMARK    2  A    between atoms: C_2  and  C_3
REMARK    3  A    between atoms: C_3  and  C_4
REMARK    4  A    between atoms: C_9  and  C_26
REMARK    5  A    between atoms: C_10  and  N_13
REMARK    6  A    between atoms: C_14  and  C_16
REMARK                            x       y       z     vdW  Elec       q    Type
REMARK                         _______ _______ _______ _____ _____    ______ ____
ROOT
ATOM      1  C   UNL     1       1.182  -1.998  -3.504  0.00  0.00    +0.218 C 
ATOM      2  O   UNL     1       1.205  -2.610  -4.551  0.00  0.00    -0.275 OA
ATOM      3  N   UNL     1       1.214  -2.665  -2.333  0.00  0.00    -0.270 N 
ATOM      4  C   UNL     1       1.166  -4.059  -2.323  0.00  0.00    +0.125 A 
ATOM      5  C   UNL     1       1.092  -4.736  -1.110  0.00  0.00    +0.049 A 
ATOM      6  C   UNL     1       1.046  -6.118  -1.111  0.00  0.00    -0.025 A 
ATOM      7  C   UNL     1       1.075  -6.782  -2.335  0.00  0.00    +0.055 A 
ATOM      8  C   UNL     1       1.149  -6.041  -3.505  0.00  0.00    +0.136 A 
ATOM      9  N   UNL     1       1.186  -4.723  -3.467  0.00  0.00    -0.238 NA
ATOM     10  C   UNL     1       0.966  -6.887   0.183  0.00  0.00    +0.046 C 
ATOM     11  H   UNL     1       1.270  -2.175  -1.498  0.00  0.00    +0.156 HD
ENDROOT
BRANCH   7  12
ATOM     12  N   UNL     1       1.030  -8.182  -2.384  0.00  0.00    -0.284 N 
ATOM     13  C   UNL     1       1.711  -8.845  -3.339  0.00  0.00    +0.223 C 
ATOM     14  O   UNL     1       2.297  -8.229  -4.205  0.00  0.00    -0.275 OA
ATOM     15  H   UNL     1       0.508  -8.674  -1.730  0.00  0.00    +0.155 HD
BRANCH  13  16
ATOM     16  C   UNL     1       1.745 -10.352  -3.333  0.00  0.00    +0.048 C 
ATOM     17  C   UNL     1       0.319 -10.894  -3.451  0.00  0.00    +0.019 C 
ATOM     18  C   UNL     1       0.353 -12.424  -3.445  0.00  0.00    -0.009 C 
ATOM     19  C   UNL     1       1.188 -12.920  -4.627  0.00  0.00    +0.007 C 
ATOM     20  C   UNL     1       2.613 -12.378  -4.508  0.00  0.00    -0.009 C 
ATOM     21  C   UNL     1       2.579 -10.848  -4.515  0.00  0.00    +0.019 C 
ATOM     22  C   UNL     1       3.238 -12.868  -3.200  0.00  0.00    +0.007 C 
ATOM     23  C   UNL     1       2.404 -12.372  -2.018  0.00  0.00    -0.009 C 
ATOM     24  C   UNL     1       0.978 -12.914  -2.137  0.00  0.00    +0.007 C 
ATOM     25  C   UNL     1       2.369 -10.842  -2.025  0.00  0.00    +0.019 C 
ENDBRANCH  13  16
ENDBRANCH   7  12
BRANCH   1  26
ATOM     26  C   UNL     1       1.117  -0.492  -3.512  0.00  0.00    +0.096 C 
BRANCH  26  28
ATOM     27  C   UNL     1       1.026   1.538  -4.966  0.00  0.00    +0.004 C 
ATOM     28  C   UNL     1       1.091   0.009  -4.957  0.00  0.00    +0.006 C 
ENDBRANCH  26  28
ENDBRANCH   1  26
TORSDOF 4
