REMARK  Name = ZINC64502378
REMARK  6 active torsions:
REMARK  status: ('A' for Active; 'I' for Inactive)
REMARK    1  A    between atoms: C_1  and  N_2
REMARK    2  A    between atoms: C_10  and  N_14
REMARK    3  A    between atoms: C_18  and  C_21
REMARK    4  A    between atoms: N_23  and  C_24
REMARK    5  A    between atoms: C_24  and  C_25
REMARK    6  A    between atoms: C_25  and  C_26
REMARK                            x       y       z     vdW  Elec       q    Type
REMARK                         _______ _______ _______ _____ _____    ______ ____
ROOT
ATOM      1  N   UNL     1       1.289  -2.593  -1.473  0.00  0.00    +0.398 N 
ATOM      2  C   UNL     1       0.104  -2.098  -2.186  0.00  0.00    -0.075 C 
ATOM      3  C   UNL     1       0.199  -2.477  -3.665  0.00  0.00    -0.018 C 
ATOM      4  C   UNL     1       0.273  -4.001  -3.792  0.00  0.00    +0.009 C 
ATOM      5  C   UNL     1       1.469  -4.513  -2.984  0.00  0.00    +0.058 C 
ATOM      6  C   UNL     1       1.328  -4.059  -1.530  0.00  0.00    -0.063 C 
ATOM      7  H   UNL     1       2.120  -2.218  -1.906  0.00  0.00    -0.078 HD
ENDROOT
BRANCH   1  17
ATOM      8  C   UNL     1      -0.018   1.461   0.010  0.00  0.00    +0.138 C 
ATOM      9  N   UNL     1       0.002  -0.004   0.002  0.00  0.00    -0.273 N 
ATOM     10  C   UNL     1      -1.205  -0.713   0.004  0.00  0.00    +0.057 A 
ATOM     11  C   UNL     1      -2.402  -0.075  -0.279  0.00  0.00    +0.025 A 
ATOM     12  C   UNL     1      -3.584  -0.793  -0.267  0.00  0.00    +0.002 A 
ATOM     13  C   UNL     1      -3.579  -2.144   0.025  0.00  0.00    +0.002 A 
ATOM     14  C   UNL     1      -2.388  -2.790   0.307  0.00  0.00    +0.025 A 
ATOM     15  C   UNL     1      -1.201  -2.079   0.294  0.00  0.00    +0.048 A 
ATOM     16  N   UNL     1       0.023  -2.707   0.564  0.00  0.00    -0.348 N 
ATOM     17  C   UNL     1       1.231  -2.159  -0.071  0.00  0.00    +0.105 C 
ATOM     18  C   UNL     1       1.181  -0.654  -0.013  0.00  0.00    +0.223 C 
ATOM     19  O   UNL     1       2.215  -0.021   0.025  0.00  0.00    -0.275 OA
ATOM     20  H   UNL     1       0.071  -3.477   1.151  0.00  0.00    +0.145 HD
ENDBRANCH   1  17
BRANCH   5  21
ATOM     21  C   UNL     1       1.507  -6.019  -3.040  0.00  0.00    +0.214 C 
ATOM     22  O   UNL     1       1.432  -6.666  -2.017  0.00  0.00    -0.276 OA
ATOM     23  N   UNL     1       1.624  -6.646  -4.227  0.00  0.00    -0.315 N 
ATOM     24  H   UNL     1       1.684  -6.128  -5.046  0.00  0.00    +0.149 HD
BRANCH  23  25
ATOM     25  C   UNL     1       1.661  -8.110  -4.282  0.00  0.00    +0.108 C 
BRANCH  25  26
ATOM     26  C   UNL     1       1.797  -8.562  -5.737  0.00  0.00    +0.052 C 
BRANCH  26  27
ATOM     27  C   UNL     1       1.835 -10.068  -5.793  0.00  0.00    -0.040 C 
ATOM     28  C   UNL     1       0.792 -10.900  -6.016  0.00  0.00    +0.000 A 
ATOM     29  C   UNL     1      -0.635 -10.661  -6.263  0.00  0.00    +0.030 A 
ATOM     30  C   UNL     1      -1.454 -11.721  -6.454  0.00  0.00    +0.042 A 
ATOM     31  C   UNL     1      -0.974 -13.039  -6.422  0.00  0.00    +0.022 A 
ATOM     32  C   UNL     1       0.323 -13.337  -6.202  0.00  0.00    +0.027 A 
ATOM     33  C   UNL     1       1.273 -12.300  -5.988  0.00  0.00    +0.043 A 
ATOM     34  N   UNL     1       2.563 -12.332  -5.757  0.00  0.00    -0.380 N 
ATOM     35  C   UNL     1       3.048 -10.954  -5.619  0.00  0.00    +0.144 C 
ATOM     36 CL   UNL     1      -3.143 -11.442  -6.746  0.00  0.00    -0.084 Cl
ATOM     37  H   UNL     1       3.107 -13.133  -5.692  0.00  0.00    +0.160 HD
ENDBRANCH  26  27
ENDBRANCH  25  26
ENDBRANCH  23  25
ENDBRANCH   5  21
TORSDOF 5
