REMARK  Name = ZINC35522022
REMARK  10 active torsions:
REMARK  status: ('A' for Active; 'I' for Inactive)
REMARK    1  A    between atoms: C_1  and  C_2
REMARK    2  A    between atoms: C_2  and  O_3
REMARK    3  A    between atoms: O_3  and  C_4
REMARK    4  A    between atoms: C_4  and  C_6
REMARK    5  A    between atoms: C_6  and  N_7
REMARK    6  A    between atoms: C_15  and  C_17
REMARK    7  A    between atoms: C_18  and  C_20
REMARK    8  A    between atoms: N_27  and  C_28
REMARK    9  A    between atoms: C_28  and  C_29
REMARK   10  A    between atoms: C_29  and  C_31
REMARK                            x       y       z     vdW  Elec       q    Type
REMARK                         _______ _______ _______ _____ _____    ______ ____
ROOT
ATOM      1  N   UNL     1      -1.160  -4.006   2.340  0.00  0.00    -0.289 N 
ATOM      2  C   UNL     1      -0.133  -4.434   3.100  0.00  0.00    +0.303 C 
ATOM      3  O   UNL     1       0.441  -3.658   3.840  0.00  0.00    -0.253 OA
ATOM      4  N   UNL     1       0.258  -5.722   3.041  0.00  0.00    -0.280 N 
ATOM      5  C   UNL     1      -0.339  -6.641   2.061  0.00  0.00    +0.128 C 
ATOM      6  C   UNL     1      -0.905  -7.855   2.809  0.00  0.00    +0.127 C 
ATOM      7  N   UNL     1       0.127  -8.366   3.723  0.00  0.00    -0.293 N 
ATOM      8  C   UNL     1       0.725  -7.447   4.702  0.00  0.00    +0.130 C 
ATOM      9  C   UNL     1       1.294  -6.232   3.950  0.00  0.00    +0.092 C 
ATOM     10  C   UNL     1       1.681  -5.142   4.951  0.00  0.00    +0.030 C 
ATOM     11  C   UNL     1       0.518  -9.655   3.663  0.00  0.00    +0.263 C 
ATOM     12  O   UNL     1       1.279 -10.099   4.503  0.00  0.00    -0.268 OA
ATOM     13  H   UNL     1      -1.570  -4.605   1.696  0.00  0.00    +0.151 HD
ENDROOT
BRANCH  11  14
ATOM     14  C   UNL     1       0.028 -10.520   2.588  0.00  0.00    +0.106 A 
ATOM     15  C   UNL     1      -0.363 -10.107   1.351  0.00  0.00    +0.041 A 
ATOM     16  C   UNL     1      -0.769 -11.253   0.607  0.00  0.00    +0.008 A 
ATOM     17  C   UNL     1      -1.282 -11.593  -0.715  0.00  0.00    +0.017 A 
ATOM     18  C   UNL     1      -1.542 -12.875  -1.002  0.00  0.00    +0.048 A 
ATOM     19  S   UNL     1      -1.110 -13.730   0.501  0.00  0.00    -0.079 S 
ATOM     20  C   UNL     1      -0.593 -12.337   1.472  0.00  0.00    +0.088 A 
ATOM     21  N   UNL     1      -0.110 -11.896   2.657  0.00  0.00    -0.327 N 
BRANCH  21  22
ATOM     22  C   UNL     1       0.209 -12.731   3.817  0.00  0.00    +0.153 C 
BRANCH  22  23
ATOM     23  C   UNL     1      -1.041 -12.967   4.626  0.00  0.00    -0.060 C 
ATOM     24  C   UNL     1      -1.778 -14.026   4.399  0.00  0.00    +0.009 C 
ATOM     25  C   UNL     1      -1.443 -11.984   5.695  0.00  0.00    +0.040 C 
ENDBRANCH  22  23
ENDBRANCH  21  22
ENDBRANCH  11  14
BRANCH   1  26
ATOM     26  C   UNL     1      -1.657  -2.635   2.485  0.00  0.00    +0.226 C 
BRANCH  26  27
ATOM     27  C   UNL     1      -2.799  -2.411   1.527  0.00  0.00    +0.324 C 
ATOM     28  O   UNL     1      -3.161  -3.305   0.799  0.00  0.00    -0.249 OA
BRANCH  27  29
ATOM     29  O   UNL     1      -3.415  -1.219   1.484  0.00  0.00    -0.464 OA
BRANCH  29  31
ATOM     30  C   UNL     1      -5.062   0.338   0.647  0.00  0.00    +0.048 C 
ATOM     31  C   UNL     1      -4.489  -1.077   0.553  0.00  0.00    +0.229 C 
ENDBRANCH  29  31
ENDBRANCH  27  29
ENDBRANCH  26  27
ENDBRANCH   1  26
TORSDOF 7
