REMARK  Name = ZINC63547771
REMARK  9 active torsions:
REMARK  status: ('A' for Active; 'I' for Inactive)
REMARK    1  A    between atoms: C_1  and  C_2
REMARK    2  A    between atoms: C_5  and  O_36
REMARK    3  A    between atoms: C_6  and  N_8
REMARK    4  A    between atoms: C_17  and  O_34
REMARK    5  A    between atoms: C_24  and  C_26
REMARK    6  A    between atoms: C_29  and  O_32
REMARK    7  A    between atoms: O_32  and  C_33
REMARK    8  A    between atoms: O_34  and  C_35
REMARK    9  A    between atoms: O_36  and  C_37
REMARK                            x       y       z     vdW  Elec       q    Type
REMARK                         _______ _______ _______ _____ _____    ______ ____
ROOT
ATOM      1  N   UNL     1      -0.057  -3.105   2.483  0.00  0.00    -0.266 N 
ATOM      2  C   UNL     1       0.097  -2.344   3.584  0.00  0.00    +0.307 C 
ATOM      3  O   UNL     1       0.143  -1.133   3.485  0.00  0.00    -0.252 OA
ATOM      4  N   UNL     1       0.201  -2.925   4.796  0.00  0.00    -0.276 N 
ATOM      5  C   UNL     1       0.261  -4.387   4.896  0.00  0.00    +0.114 C 
ATOM      6  C   UNL     1      -0.890  -4.886   5.789  0.00  0.00    +0.052 C 
ATOM      7  C   UNL     1      -0.917  -3.991   7.003  0.00  0.00    -0.035 C 
ATOM      8  C   UNL     1      -0.912  -4.271   8.300  0.00  0.00    +0.003 A 
ATOM      9  C   UNL     1      -0.989  -5.545   9.030  0.00  0.00    +0.055 A 
ATOM     10  C   UNL     1      -0.938  -5.474  10.389  0.00  0.00    +0.121 A 
ATOM     11  C   UNL     1      -0.819  -4.276  11.108  0.00  0.00    +0.047 A 
ATOM     12  C   UNL     1      -0.749  -3.046  10.536  0.00  0.00    +0.029 A 
ATOM     13  C   UNL     1      -0.802  -2.993   9.069  0.00  0.00    +0.043 A 
ATOM     14  N   UNL     1      -0.779  -1.976   8.261  0.00  0.00    -0.375 N 
ATOM     15  C   UNL     1      -0.934  -2.471   6.893  0.00  0.00    +0.131 C 
ATOM     16  C   UNL     1       0.259  -2.086   6.003  0.00  0.00    +0.134 C 
ATOM     17  H   UNL     1      -0.160  -4.065   2.568  0.00  0.00    +0.156 HD
ATOM     18  H   UNL     1      -0.677  -1.047   8.521  0.00  0.00    +0.160 HD
ENDROOT
BRANCH   1  24
ATOM     19  C   UNL     1      -1.012   0.800  -0.349  0.00  0.00    +0.044 C 
ATOM     20  C   UNL     1      -0.526  -0.617  -0.188  0.00  0.00    -0.048 A 
ATOM     21  C   UNL     1      -0.093  -1.328  -1.292  0.00  0.00    +0.007 A 
ATOM     22  C   UNL     1       0.354  -2.628  -1.149  0.00  0.00    +0.048 A 
ATOM     23  C   UNL     1       0.368  -3.223   0.102  0.00  0.00    +0.141 A 
ATOM     24  C   UNL     1      -0.068  -2.508   1.215  0.00  0.00    +0.077 A 
ATOM     25  C   UNL     1      -0.510  -1.201   1.065  0.00  0.00    +0.030 A 
BRANCH  23  26
ATOM     26  O   UNL     1       0.807  -4.503   0.244  0.00  0.00    -0.493 OA
ATOM     27  C   UNL     1       1.239  -5.175  -0.941  0.00  0.00    +0.277 C 
ENDBRANCH  23  26
ENDBRANCH   1  24
BRANCH  16  28
ATOM     28  C   UNL     1       1.550  -2.337   6.738  0.00  0.00    -0.024 A 
ATOM     29  C   UNL     1       2.427  -1.294   6.970  0.00  0.00    +0.009 A 
ATOM     30  C   UNL     1       3.612  -1.522   7.643  0.00  0.00    +0.046 A 
ATOM     31  C   UNL     1       3.921  -2.799   8.087  0.00  0.00    +0.120 A 
ATOM     32  C   UNL     1       3.040  -3.845   7.853  0.00  0.00    +0.046 A 
ATOM     33  C   UNL     1       1.854  -3.610   7.184  0.00  0.00    +0.009 A 
BRANCH  31  34
ATOM     34  O   UNL     1       5.086  -3.026   8.748  0.00  0.00    -0.495 OA
ATOM     35  C   UNL     1       5.339  -4.366   9.176  0.00  0.00    +0.277 C 
ENDBRANCH  31  34
ENDBRANCH  16  28
BRANCH  10  36
ATOM     36  O   UNL     1      -1.008  -6.636  11.092  0.00  0.00    -0.495 OA
ATOM     37  C   UNL     1      -0.952  -6.536  12.516  0.00  0.00    +0.277 C 
ENDBRANCH  10  36
TORSDOF 5
