REMARK  Name = ZINC37426990
REMARK  10 active torsions:
REMARK  status: ('A' for Active; 'I' for Inactive)
REMARK    1  A    between atoms: C_1  and  C_2
REMARK    2  A    between atoms: C_5  and  N_8
REMARK    3  A    between atoms: C_11  and  C_13
REMARK    4  A    between atoms: C_19  and  C_33
REMARK    5  A    between atoms: N_25  and  C_26
REMARK    6  A    between atoms: C_26  and  C_27
REMARK    7  A    between atoms: N_29  and  C_30
REMARK    8  A    between atoms: C_30  and  C_31
REMARK    9  A    between atoms: C_30  and  C_32
REMARK   10  A    between atoms: C_38  and  C_39
REMARK                            x       y       z     vdW  Elec       q    Type
REMARK                         _______ _______ _______ _____ _____    ______ ____
ROOT
ATOM      1  N   UNL     1      -0.971  -4.356   0.508  0.00  0.00    -0.217 N 
ATOM      2  C   UNL     1       0.215  -4.947   0.796  0.00  0.00    +0.137 A 
ATOM      3  C   UNL     1       0.173  -6.221   0.352  0.00  0.00    +0.038 A 
ATOM      4  C   UNL     1      -1.089  -6.434  -0.230  0.00  0.00    +0.100 A 
ATOM      5  N   UNL     1      -1.776  -5.312  -0.131  0.00  0.00    -0.164 NA
ATOM      6  C   UNL     1       1.302  -7.213   0.471  0.00  0.00    +0.112 C 
ATOM      7  S   UNL     1       1.423  -7.752   2.215  0.00  0.00    -0.138 S 
ATOM      8  C   UNL     1       1.151  -6.186   3.111  0.00  0.00    +0.166 C 
ATOM      9  C   UNL     1       1.889  -5.062   2.449  0.00  0.00    +0.231 C 
ATOM     10  O   UNL     1       3.003  -4.767   2.826  0.00  0.00    -0.274 OA
ATOM     11  N   UNL     1       1.324  -4.383   1.446  0.00  0.00    -0.246 N 
ENDROOT
BRANCH   1  16
ATOM     12  C   UNL     1      -2.424   1.001   1.690  0.00  0.00    +0.044 C 
ATOM     13  C   UNL     1      -2.038  -0.422   1.376  0.00  0.00    -0.050 A 
ATOM     14  C   UNL     1      -2.381  -0.977   0.157  0.00  0.00    +0.005 A 
ATOM     15  C   UNL     1      -2.029  -2.280  -0.134  0.00  0.00    +0.028 A 
ATOM     16  C   UNL     1      -1.329  -3.034   0.799  0.00  0.00    +0.067 A 
ATOM     17  C   UNL     1      -0.986  -2.473   2.023  0.00  0.00    +0.028 A 
ATOM     18  C   UNL     1      -1.336  -1.167   2.305  0.00  0.00    +0.005 A 
ENDBRANCH   1  16
BRANCH   6  19
ATOM     19  C   UNL     1       1.026  -8.402  -0.412  0.00  0.00    -0.027 A 
ATOM     20  C   UNL     1       0.666  -9.613   0.151  0.00  0.00    +0.005 A 
ATOM     21  C   UNL     1       0.413 -10.704  -0.659  0.00  0.00    +0.000 A 
ATOM     22  C   UNL     1       0.519 -10.584  -2.033  0.00  0.00    +0.000 A 
ATOM     23  C   UNL     1       0.877  -9.374  -2.595  0.00  0.00    +0.003 A 
ATOM     24  C   UNL     1       1.127  -8.282  -1.786  0.00  0.00    -0.046 A 
ATOM     25  C   UNL     1       1.513  -6.961  -2.400  0.00  0.00    +0.044 C 
ENDBRANCH   6  19
BRANCH   4  26
ATOM     26  C   UNL     1      -1.566  -7.698  -0.843  0.00  0.00    +0.002 A 
ATOM     27  C   UNL     1      -1.864  -7.747  -2.203  0.00  0.00    +0.010 A 
ATOM     28  C   UNL     1      -2.308  -8.925  -2.768  0.00  0.00    +0.001 A 
ATOM     29  C   UNL     1      -2.455 -10.057  -1.987  0.00  0.00    +0.000 A 
ATOM     30  C   UNL     1      -2.161 -10.014  -0.636  0.00  0.00    +0.001 A 
ATOM     31  C   UNL     1      -1.711  -8.842  -0.062  0.00  0.00    +0.010 A 
ENDBRANCH   4  26
BRANCH  11  32
ATOM     32  C   UNL     1       1.851  -3.079   1.033  0.00  0.00    +0.210 C 
BRANCH  32  33
ATOM     33  C   UNL     1       2.826  -3.268  -0.100  0.00  0.00    +0.231 C 
ATOM     34  O   UNL     1       2.990  -4.369  -0.582  0.00  0.00    -0.274 OA
ATOM     35  N   UNL     1       3.515  -2.213  -0.578  0.00  0.00    -0.312 N 
ATOM     36  H   UNL     1       3.439  -1.348  -0.146  0.00  0.00    +0.149 HD
BRANCH  35  37
ATOM     37  C   UNL     1       4.381  -2.373  -1.749  0.00  0.00    +0.067 C 
ATOM     38  C   UNL     1       4.628  -1.007  -2.392  0.00  0.00    +0.027 C 
ATOM     39  C   UNL     1       5.716  -2.983  -1.317  0.00  0.00    +0.027 C 
ENDBRANCH  35  37
ENDBRANCH  32  33
ENDBRANCH  11  32
TORSDOF 6
