REMARK  Name = ZINC25159624
REMARK  7 active torsions:
REMARK  status: ('A' for Active; 'I' for Inactive)
REMARK    1  A    between atoms: C_1  and  C_2
REMARK    2  A    between atoms: C_8  and  C_14
REMARK    3  A    between atoms: C_11  and  C_13
REMARK    4  A    between atoms: N_16  and  C_17
REMARK    5  A    between atoms: C_17  and  C_19
REMARK    6  A    between atoms: C_17  and  C_25
REMARK    7  A    between atoms: N_29  and  C_30
REMARK                            x       y       z     vdW  Elec       q    Type
REMARK                         _______ _______ _______ _____ _____    ______ ____
ROOT
ATOM      1  C   UNL     1       2.213   3.426   4.611  0.00  0.00    +0.248 C 
ATOM      2  O   UNL     1       2.124   4.482   4.014  0.00  0.00    -0.270 OA
ATOM      3  N   UNL     1       2.968   3.343   5.724  0.00  0.00    -0.297 N 
ATOM      4  H   UNL     1       3.049   2.388   6.264  0.00  0.00    +0.150 HD
ENDROOT
BRANCH   1  11
ATOM      5  C   UNL     1      -0.013   1.086   0.008  0.00  0.00    +0.016 C 
ATOM      6  C   UNL     1      -0.729   1.579   1.267  0.00  0.00    +0.060 C 
ATOM      7  C   UNL     1       0.038   1.187   2.516  0.00  0.00    +0.001 A 
ATOM      8  C   UNL     1       0.147  -0.005   3.197  0.00  0.00    +0.007 A 
ATOM      9  C   UNL     1       0.926  -0.089   4.340  0.00  0.00    +0.001 A 
ATOM     10  C   UNL     1       1.596   1.025   4.799  0.00  0.00    +0.017 A 
ATOM     11  C   UNL     1       1.495   2.236   4.116  0.00  0.00    +0.079 A 
ATOM     12  C   UNL     1       0.707   2.322   2.954  0.00  0.00    +0.137 A 
ATOM     13  O   UNL     1       0.474   3.380   2.134  0.00  0.00    -0.487 OA
ATOM     14  C   UNL     1      -0.703   3.124   1.348  0.00  0.00    +0.178 C 
ATOM     15  C   UNL     1      -1.953   3.650   2.056  0.00  0.00    +0.052 C 
ENDBRANCH   1  11
BRANCH   3  16
ATOM     16  C   UNL     1       3.681   4.524   6.216  0.00  0.00    +0.170 C 
BRANCH  16  17
ATOM     17  C   UNL     1       3.920   4.387   7.697  0.00  0.00    -0.020 A 
ATOM     18  C   UNL     1       4.274   3.161   8.229  0.00  0.00    +0.006 A 
ATOM     19  C   UNL     1       4.498   3.035   9.588  0.00  0.00    +0.000 A 
ATOM     20  C   UNL     1       4.358   4.133  10.415  0.00  0.00    +0.000 A 
ATOM     21  C   UNL     1       3.999   5.358   9.884  0.00  0.00    +0.000 A 
ATOM     22  C   UNL     1       3.780   5.485   8.525  0.00  0.00    +0.006 A 
ENDBRANCH  16  17
BRANCH  16  23
ATOM     23  C   UNL     1       5.003   4.646   5.503  0.00  0.00    +0.134 A 
ATOM     24  N   UNL     1       5.841   3.670   5.282  0.00  0.00    -0.238 NA
ATOM     25  C   UNL     1       6.909   4.144   4.623  0.00  0.00    +0.130 A 
ATOM     26  C   UNL     1       6.726   5.464   4.429  0.00  0.00    +0.106 A 
ATOM     27  N   UNL     1       5.515   5.782   4.982  0.00  0.00    -0.336 N 
ATOM     28  C   UNL     1       4.891   7.108   5.007  0.00  0.00    +0.150 C 
ENDBRANCH  16  23
ENDBRANCH   3  16
TORSDOF 4
