REMARK  Name = ZINC09411565
REMARK  10 active torsions:
REMARK  status: ('A' for Active; 'I' for Inactive)
REMARK    1  A    between atoms: C_1  and  C_2
REMARK    2  A    between atoms: C_2  and  C_4
REMARK    3  A    between atoms: C_2  and  O_17
REMARK    4  A    between atoms: N_6  and  C_7
REMARK    5  A    between atoms: C_11  and  N_13
REMARK    6  A    between atoms: O_17  and  C_18
REMARK    7  A    between atoms: C_18  and  C_20
REMARK    8  A    between atoms: C_20  and  C_22
REMARK    9  A    between atoms: C_20  and  O_23
REMARK   10  A    between atoms: O_23  and  C_24
REMARK                            x       y       z     vdW  Elec       q    Type
REMARK                         _______ _______ _______ _____ _____    ______ ____
ROOT
ATOM      1  C   UNL     1      -5.194   5.280  -1.406  0.00  0.00    +0.062 C 
ATOM      2  C   UNL     1      -5.036   4.283  -0.256  0.00  0.00    +0.259 C 
ENDROOT
BRANCH   2   3
ATOM      3  C   UNL     1      -3.697   3.601  -0.363  0.00  0.00    +0.258 C 
ATOM      4  O   UNL     1      -3.640   2.408  -0.579  0.00  0.00    -0.271 OA
ATOM      5  N   UNL     1      -2.563   4.315  -0.218  0.00  0.00    -0.282 N 
ATOM      6  H   UNL     1      -2.608   5.252   0.029  0.00  0.00    +0.155 HD
BRANCH   5   7
ATOM      7  C   UNL     1      -1.320   3.704  -0.426  0.00  0.00    +0.036 A 
ATOM      8  C   UNL     1      -0.218   4.100   0.321  0.00  0.00    +0.026 A 
ATOM      9  C   UNL     1       1.008   3.501   0.111  0.00  0.00    +0.042 A 
ATOM     10  C   UNL     1       1.137   2.498  -0.835  0.00  0.00    +0.154 A 
ATOM     11  C   UNL     1       0.038   2.098  -1.576  0.00  0.00    +0.163 A 
ATOM     12  C   UNL     1      -1.189   2.699  -1.373  0.00  0.00    +0.059 A 
ATOM     13  F   UNL     1       2.336   1.909  -1.036  0.00  0.00    -0.203 F 
BRANCH  11  14
ATOM     14  N   UNL     1       0.178   1.025  -2.587  0.00  0.00    +0.059 N 
ATOM     15  O   UNL     1      -0.788   0.672  -3.239  0.00  0.00    -0.126 OA
ATOM     16  O   UNL     1       1.260   0.495  -2.766  0.00  0.00    -0.126 OA
ENDBRANCH  11  14
ENDBRANCH   5   7
ENDBRANCH   2   3
BRANCH   2  17
ATOM     17  O   UNL     1      -6.093   3.290  -0.329  0.00  0.00    -0.450 OA
BRANCH  17  18
ATOM     18  C   UNL     1      -7.230   3.561   0.331  0.00  0.00    +0.349 C 
ATOM     19  O   UNL     1      -7.339   4.593   0.950  0.00  0.00    -0.247 OA
BRANCH  18  20
ATOM     20  C   UNL     1      -8.371   2.577   0.301  0.00  0.00    +0.278 C 
ATOM     21  C   UNL     1      -7.949   1.284   1.003  0.00  0.00    +0.064 C 
BRANCH  20  22
ATOM     22  O   UNL     1      -9.501   3.137   0.974  0.00  0.00    -0.478 OA
BRANCH  22  23
ATOM     23  C   UNL     1     -10.725   2.662   0.624  0.00  0.00    +0.122 A 
ATOM     24  C   UNL     1     -10.831   1.603  -0.266  0.00  0.00    +0.047 A 
ATOM     25  C   UNL     1     -12.076   1.117  -0.616  0.00  0.00    +0.019 A 
ATOM     26  C   UNL     1     -13.217   1.694  -0.088  0.00  0.00    +0.018 A 
ATOM     27  C   UNL     1     -13.114   2.754   0.794  0.00  0.00    +0.019 A 
ATOM     28  C   UNL     1     -11.871   3.239   1.152  0.00  0.00    +0.047 A 
ATOM     29 BR   UNL     1     -14.921   1.032  -0.574  0.00  0.00    -0.050 Br
ENDBRANCH  22  23
ENDBRANCH  20  22
ENDBRANCH  18  20
ENDBRANCH  17  18
ENDBRANCH   2  17
TORSDOF 8
