REMARK  Name = ZINC19630259
REMARK  4 active torsions:
REMARK  status: ('A' for Active; 'I' for Inactive)
REMARK    1  A    between atoms: C_1  and  C_2
REMARK    2  A    between atoms: C_5  and  C_8
REMARK    3  A    between atoms: N_19  and  C_22
REMARK    4  A    between atoms: C_22  and  C_23
REMARK                            x       y       z     vdW  Elec       q    Type
REMARK                         _______ _______ _______ _____ _____    ______ ____
ROOT
ATOM      1  C   UNL     1       0.059  -4.275  -0.021  0.00  0.00    +0.032 C 
ATOM      2  C   UNL     1      -1.171  -4.811   0.714  0.00  0.00    +0.060 C 
ATOM      3  C   UNL     1      -1.129  -6.320   0.740  0.00  0.00    +0.020 C 
ATOM      4  C   UNL     1       0.049  -6.981   0.775  0.00  0.00    +0.039 C 
ATOM      5  C   UNL     1       1.269  -6.281   0.768  0.00  0.00    +0.164 C 
ATOM      6  O   UNL     1       2.311  -6.903   0.816  0.00  0.00    -0.292 OA
ATOM      7  C   UNL     1       1.313  -4.779   0.702  0.00  0.00    +0.088 C 
ATOM      8  C   UNL     1       0.121  -8.491   0.830  0.00  0.00    +0.093 C 
ATOM      9  C   UNL     1       1.183  -8.980  -0.159  0.00  0.00    +0.017 C 
ATOM     10  C   UNL     1       1.323 -10.499  -0.036  0.00  0.00    -0.076 C 
ATOM     11  N   UNL     1       1.727 -10.849   1.331  0.00  0.00    +0.383 N 
ATOM     12  C   UNL     1       0.682 -10.444   2.279  0.00  0.00    -0.076 C 
ATOM     13  C   UNL     1       0.519  -8.923   2.245  0.00  0.00    +0.017 C 
ATOM     14  N   UNL     1      -1.174  -9.064   0.487  0.00  0.00    -0.222 N 
ATOM     15  C   UNL     1      -2.321  -8.343   0.444  0.00  0.00    +0.218 A 
ATOM     16  N   UNL     1      -3.292  -9.149   0.114  0.00  0.00    -0.201 NA
ATOM     17  C   UNL     1      -2.808 -10.382  -0.066  0.00  0.00    +0.247 A 
ATOM     18  N   UNL     1      -1.516 -10.373   0.151  0.00  0.00    -0.156 NA
ATOM     19  N   UNL     1      -2.331  -6.985   0.719  0.00  0.00    -0.287 N 
ATOM     20  H   UNL     1      -3.163  -6.517   0.893  0.00  0.00    +0.155 HD
ATOM     21  H   UNL     1       2.588 -10.374   1.558  0.00  0.00    -0.081 HD
ENDROOT
BRANCH   1  26
ATOM     22  C   UNL     1      -0.018   1.503   0.010  0.00  0.00    +0.044 C 
ATOM     23  C   UNL     1       0.002  -0.004   0.002  0.00  0.00    -0.050 A 
ATOM     24  C   UNL     1       0.006  -0.689  -1.199  0.00  0.00    +0.003 A 
ATOM     25  C   UNL     1       0.025  -2.071  -1.206  0.00  0.00    +0.004 A 
ATOM     26  C   UNL     1       0.040  -2.768  -0.013  0.00  0.00    -0.043 A 
ATOM     27  C   UNL     1       0.037  -2.084   1.188  0.00  0.00    +0.004 A 
ATOM     28  C   UNL     1       0.023  -0.702   1.195  0.00  0.00    +0.003 A 
ENDBRANCH   1  26
BRANCH  11  29
ATOM     29  C   UNL     1       1.933 -12.301   1.422  0.00  0.00    -0.043 C 
BRANCH  29  30
ATOM     30  C   UNL     1       2.466 -12.648   2.788  0.00  0.00    -0.064 A 
ATOM     31  C   UNL     1       3.829 -12.668   3.014  0.00  0.00    +0.002 A 
ATOM     32  C   UNL     1       4.318 -12.986   4.267  0.00  0.00    +0.000 A 
ATOM     33  C   UNL     1       3.443 -13.283   5.295  0.00  0.00    +0.000 A 
ATOM     34  C   UNL     1       2.079 -13.262   5.070  0.00  0.00    +0.000 A 
ATOM     35  C   UNL     1       1.591 -12.940   3.818  0.00  0.00    +0.002 A 
ENDBRANCH  29  30
ENDBRANCH  11  29
TORSDOF 3
