REMARK  Name = ZINC45849688
REMARK  8 active torsions:
REMARK  status: ('A' for Active; 'I' for Inactive)
REMARK    1  A    between atoms: C_3  and  N_14
REMARK    2  A    between atoms: C_4  and  N_11
REMARK    3  A    between atoms: C_6  and  C_7
REMARK    4  A    between atoms: N_14  and  C_15
REMARK    5  A    between atoms: C_15  and  C_16
REMARK    6  A    between atoms: C_16  and  C_17
REMARK    7  A    between atoms: N_19  and  C_20
REMARK    8  A    between atoms: C_20  and  C_21
REMARK                            x       y       z     vdW  Elec       q    Type
REMARK                         _______ _______ _______ _____ _____    ______ ____
ROOT
ATOM      1  C   UNL     1       5.056   4.037  -0.322  0.00  0.00    +0.114 C 
ENDROOT
BRANCH   1   2
ATOM      2  C   UNL     1       5.062   5.535  -0.484  0.00  0.00    +0.215 C 
ATOM      3  O   UNL     1       4.014   6.141  -0.561  0.00  0.00    -0.276 OA
ATOM      4  N   UNL     1       6.232   6.201  -0.543  0.00  0.00    -0.311 N 
ATOM      5  H   UNL     1       7.070   5.717  -0.481  0.00  0.00    +0.149 HD
BRANCH   4   6
ATOM      6  C   UNL     1       6.238   7.658  -0.700  0.00  0.00    +0.139 C 
BRANCH   6   7
ATOM      7  C   UNL     1       7.661   8.153  -0.738  0.00  0.00    -0.026 A 
ATOM      8  C   UNL     1       8.320   8.509   0.432  0.00  0.00    +0.023 A 
ATOM      9  C   UNL     1       9.623   8.959   0.363  0.00  0.00    +0.084 A 
ATOM     10  N   UNL     1      10.247   9.053  -0.796  0.00  0.00    -0.350 N 
ATOM     11  C   UNL     1       9.652   8.724  -1.933  0.00  0.00    +0.099 A 
ATOM     12  C   UNL     1       8.342   8.258  -1.937  0.00  0.00    +0.047 A 
ATOM     13  N   UNL     1      10.347   8.840  -3.131  0.00  0.00    -0.317 N 
ATOM     14  C   UNL     1       9.815   8.518  -4.464  0.00  0.00    +0.106 C 
ATOM     15  C   UNL     1      10.945   8.775  -5.482  0.00  0.00    +0.020 C 
ATOM     16  C   UNL     1      12.226   8.686  -4.611  0.00  0.00    +0.020 C 
ATOM     17  C   UNL     1      11.736   9.311  -3.278  0.00  0.00    +0.106 C 
ATOM     18  H   UNL     1      11.162   9.372  -0.816  0.00  0.00    +0.166 HD
ENDBRANCH   6   7
ENDBRANCH   4   6
ENDBRANCH   1   2
BRANCH   1  19
ATOM     19  C   UNL     1       3.611   3.534  -0.284  0.00  0.00    +0.111 C 
BRANCH  19  20
ATOM     20  N   UNL     1       3.605   2.077  -0.127  0.00  0.00    -0.342 N 
ATOM     21  H   UNL     1       4.443   1.593  -0.065  0.00  0.00    +0.146 HD
BRANCH  20  24
ATOM     22  C   UNL     1      -0.001   1.374  -0.215  0.00  0.00    +0.014 A 
ATOM     23  C   UNL     1       1.196   2.060  -0.276  0.00  0.00    +0.026 A 
ATOM     24  C   UNL     1       2.393   1.387  -0.066  0.00  0.00    +0.058 A 
ATOM     25  C   UNL     1       2.381   0.024   0.204  0.00  0.00    +0.147 A 
ATOM     26  C   UNL     1       1.180  -0.656   0.264  0.00  0.00    +0.047 A 
ATOM     27  C   UNL     1      -0.009   0.018   0.054  0.00  0.00    +0.057 A 
BRANCH  27  28
ATOM     28  C   UNL     1      -1.317  -0.727   0.120  0.00  0.00    +0.417 C 
ATOM     29  F   UNL     1      -2.372   0.159  -0.123  0.00  0.00    -0.166 F 
ATOM     30  F   UNL     1      -1.327  -1.739  -0.846  0.00  0.00    -0.166 F 
ATOM     31  F   UNL     1      -1.468  -1.294   1.390  0.00  0.00    -0.166 F 
ENDBRANCH  27  28
BRANCH  25  32
ATOM     32  N   UNL     1       3.653  -0.698   0.428  0.00  0.00    +0.058 N 
ATOM     33  O   UNL     1       3.790  -1.825   0.010  0.00  0.00    -0.126 OA
ATOM     34  O   UNL     1       4.555  -0.162   1.029  0.00  0.00    -0.126 OA
ENDBRANCH  25  32
ENDBRANCH  20  24
ENDBRANCH  19  20
ENDBRANCH   1  19
TORSDOF 8
