REMARK  Name = ZINC36238190
REMARK  13 active torsions:
REMARK  status: ('A' for Active; 'I' for Inactive)
REMARK    1  A    between atoms: C_1  and  C_2
REMARK    2  A    between atoms: C_2  and  C_3
REMARK    3  A    between atoms: C_3  and  C_4
REMARK    4  A    between atoms: C_6  and  C_25
REMARK    5  A    between atoms: C_9  and  O_10
REMARK    6  A    between atoms: O_10  and  C_11
REMARK    7  A    between atoms: C_11  and  C_13
REMARK    8  A    between atoms: C_11  and  C_22
REMARK    9  A    between atoms: C_25  and  N_26
REMARK   10  A    between atoms: C_27  and  C_37
REMARK   11  A    between atoms: C_32  and  C_36
REMARK   12  A    between atoms: C_34  and  C_35
REMARK   13  A    between atoms: C_37  and  C_38
REMARK                            x       y       z     vdW  Elec       q    Type
REMARK                         _______ _______ _______ _____ _____    ______ ____
ROOT
ATOM      1  C   UNL     1      -2.132  -1.685  -0.661  0.00  0.00    -0.005 A 
ATOM      2  C   UNL     1      -1.683  -2.400  -1.754  0.00  0.00    +0.012 A 
ATOM      3  C   UNL     1      -1.149  -3.664  -1.583  0.00  0.00    -0.027 A 
ATOM      4  C   UNL     1      -1.063  -4.215  -0.318  0.00  0.00    +0.009 A 
ATOM      5  C   UNL     1      -1.510  -3.504   0.778  0.00  0.00    +0.046 A 
ATOM      6  C   UNL     1      -2.042  -2.234   0.610  0.00  0.00    +0.125 A 
ENDROOT
BRANCH   1   7
ATOM      7  C   UNL     1      -2.715  -0.308  -0.848  0.00  0.00    +0.038 C 
BRANCH   7   9
ATOM      8  C   UNL     1      -2.214   2.140  -0.823  0.00  0.00    +0.004 C 
ATOM      9  C   UNL     1      -1.623   0.742  -0.632  0.00  0.00    +0.001 C 
ENDBRANCH   7   9
ENDBRANCH   1   7
BRANCH   6  10
ATOM     10  O   UNL     1      -2.478  -1.530   1.688  0.00  0.00    -0.473 OA
BRANCH  10  11
ATOM     11  C   UNL     1      -2.464  -2.201   2.949  0.00  0.00    +0.316 C 
BRANCH  11  12
ATOM     12  C   UNL     1      -3.473  -1.562   3.869  0.00  0.00    +0.007 A 
ATOM     13  C   UNL     1      -3.700  -0.200   3.804  0.00  0.00    +0.011 A 
ATOM     14  C   UNL     1      -4.625   0.390   4.645  0.00  0.00    +0.050 A 
ATOM     15  C   UNL     1      -5.327  -0.383   5.555  0.00  0.00    +0.166 A 
ATOM     16  C   UNL     1      -5.099  -1.755   5.620  0.00  0.00    +0.167 A 
ATOM     17  C   UNL     1      -4.175  -2.341   4.770  0.00  0.00    +0.057 A 
ATOM     18  O   UNL     1      -5.905  -2.286   6.585  0.00  0.00    -0.453 OA
ATOM     19  C   UNL     1      -6.330  -1.170   7.389  0.00  0.00    +0.466 C 
ATOM     20  O   UNL     1      -6.276  -0.054   6.480  0.00  0.00    -0.453 OA
ENDBRANCH  11  12
BRANCH  11  21
ATOM     21  C   UNL     1      -1.091  -2.095   3.560  0.00  0.00    +0.400 C 
ATOM     22  O   UNL     1      -0.231  -1.425   3.015  0.00  0.00    -0.242 OA
ATOM     23  O   UNL     1      -0.839  -2.681   4.600  0.00  0.00    -0.242 OA
ENDBRANCH  11  21
ENDBRANCH  10  11
ENDBRANCH   6  10
BRANCH   3  24
ATOM     24  C   UNL     1      -0.660  -4.442  -2.778  0.00  0.00    +0.160 C 
BRANCH  24  25
ATOM     25  N   UNL     1       0.712  -4.038  -3.096  0.00  0.00    -0.308 N 
ATOM     26  C   UNL     1       1.850  -4.661  -2.685  0.00  0.00    +0.112 A 
ATOM     27  N   UNL     1       2.893  -4.037  -3.149  0.00  0.00    -0.230 NA
ATOM     28  C   UNL     1       2.493  -2.973  -3.889  0.00  0.00    +0.111 A 
ATOM     29  C   UNL     1       1.086  -2.962  -3.871  0.00  0.00    +0.161 A 
ATOM     30  N   UNL     1       0.416  -2.025  -4.523  0.00  0.00    -0.233 NA
ATOM     31  C   UNL     1       1.035  -1.084  -5.206  0.00  0.00    +0.041 A 
ATOM     32  C   UNL     1       2.418  -1.032  -5.273  0.00  0.00    +0.028 A 
ATOM     33  C   UNL     1       3.169  -1.981  -4.605  0.00  0.00    -0.020 A 
ATOM     34  C   UNL     1       4.675  -1.956  -4.660  0.00  0.00    +0.046 C 
ATOM     35  C   UNL     1       0.221  -0.042  -5.930  0.00  0.00    +0.065 C 
BRANCH  26  36
ATOM     36  C   UNL     1       1.895  -5.892  -1.817  0.00  0.00    +0.071 C 
ATOM     37  C   UNL     1       2.012  -7.135  -2.701  0.00  0.00    +0.012 C 
ENDBRANCH  26  36
ENDBRANCH  24  25
ENDBRANCH   3  24
TORSDOF 9
