REMARK  Name = ZINC09813665
REMARK  4 active torsions:
REMARK  status: ('A' for Active; 'I' for Inactive)
REMARK    1  A    between atoms: C_4  and  C_7
REMARK    2  A    between atoms: N_14  and  C_17
REMARK    3  A    between atoms: C_17  and  C_18
REMARK    4  A    between atoms: C_25  and  C_29
REMARK                            x       y       z     vdW  Elec       q    Type
REMARK                         _______ _______ _______ _____ _____    ______ ____
ROOT
ATOM      1  C   UNL     1       0.664   2.557   1.878  0.00  0.00    +0.165 C 
ENDROOT
BRANCH   1   2
ATOM      2  C   UNL     1      -0.630   2.008   2.422  0.00  0.00    +0.017 A 
ATOM      3  C   UNL     1      -1.597   2.869   2.905  0.00  0.00    +0.047 A 
ATOM      4  C   UNL     1      -2.788   2.366   3.399  0.00  0.00    +0.124 A 
ATOM      5  C   UNL     1      -3.007   1.000   3.420  0.00  0.00    +0.047 A 
ATOM      6  C   UNL     1      -2.039   0.135   2.944  0.00  0.00    +0.023 A 
ATOM      7  C   UNL     1      -0.848   0.638   2.443  0.00  0.00    +0.135 A 
ATOM      8  O   UNL     1       0.111  -0.202   1.968  0.00  0.00    -0.459 OA
ATOM      9  C   UNL     1       0.003  -1.580   2.335  0.00  0.00    +0.341 C 
ATOM     10  O   UNL     1      -1.347  -2.006   2.118  0.00  0.00    -0.333 OA
ATOM     11  C   UNL     1      -2.286  -1.352   2.977  0.00  0.00    +0.203 C 
ATOM     12  F   UNL     1      -3.735   3.209   3.865  0.00  0.00    -0.205 F 
BRANCH   9  13
ATOM     13  C   UNL     1       0.937  -2.404   1.487  0.00  0.00    +0.027 A 
ATOM     14  C   UNL     1       1.891  -3.211   2.076  0.00  0.00    +0.017 A 
ATOM     15  C   UNL     1       2.712  -3.944   1.284  0.00  0.00    +0.045 A 
ATOM     16  S   UNL     1       2.151  -3.490  -0.349  0.00  0.00    -0.105 S 
ATOM     17  C   UNL     1       0.856  -2.361   0.134  0.00  0.00    +0.055 A 
ENDBRANCH   9  13
ENDBRANCH   1   2
BRANCH   1  25
ATOM     18  C   UNL     1       4.379   3.384   6.687  0.00  0.00    +0.022 A 
ATOM     19  C   UNL     1       3.338   3.771   5.906  0.00  0.00    +0.031 A 
ATOM     20  C   UNL     1       2.968   2.992   4.798  0.00  0.00    +0.073 A 
ATOM     21  C   UNL     1       3.739   1.832   4.581  0.00  0.00    +0.116 A 
ATOM     22  S   UNL     1       4.922   1.875   5.904  0.00  0.00    -0.068 S 
ATOM     23  N   UNL     1       3.499   1.006   3.569  0.00  0.00    -0.230 NA
ATOM     24  C   UNL     1       2.528   1.238   2.726  0.00  0.00    +0.203 A 
ATOM     25  N   UNL     1       1.736   2.333   2.851  0.00  0.00    -0.294 N 
ATOM     26  C   UNL     1       1.912   3.215   3.852  0.00  0.00    +0.262 A 
ATOM     27  O   UNL     1       1.188   4.190   3.951  0.00  0.00    -0.267 OA
BRANCH  18  31
ATOM     28  C   UNL     1       5.957   5.295  10.136  0.00  0.00    +0.000 A 
ATOM     29  C   UNL     1       6.522   4.117   9.682  0.00  0.00    +0.001 A 
ATOM     30  C   UNL     1       6.015   3.491   8.562  0.00  0.00    +0.009 A 
ATOM     31  C   UNL     1       4.928   4.049   7.888  0.00  0.00    -0.011 A 
ATOM     32  C   UNL     1       4.365   5.240   8.348  0.00  0.00    +0.009 A 
ATOM     33  C   UNL     1       4.878   5.853   9.472  0.00  0.00    +0.001 A 
ENDBRANCH  18  31
ENDBRANCH   1  25
TORSDOF 4
