REMARK  Name = ZINC13275968
REMARK  11 active torsions:
REMARK  status: ('A' for Active; 'I' for Inactive)
REMARK    1  A    between atoms: C_1  and  C_2
REMARK    2  A    between atoms: C_2  and  C_3
REMARK    3  A    between atoms: C_3  and  O_4
REMARK    4  A    between atoms: O_4  and  C_5
REMARK    5  A    between atoms: C_8  and  C_13
REMARK    6  A    between atoms: C_10  and  O_11
REMARK    7  A    between atoms: O_11  and  C_12
REMARK    8  A    between atoms: C_15  and  C_30
REMARK    9  A    between atoms: N_19  and  C_20
REMARK   10  A    between atoms: C_24  and  C_26
REMARK   11  A    between atoms: C_30  and  C_32
REMARK                            x       y       z     vdW  Elec       q    Type
REMARK                         _______ _______ _______ _____ _____    ______ ____
ROOT
ATOM      1  C   UNL     1       3.398  -4.581   5.596  0.00  0.00    +0.149 C 
ATOM      2  C   UNL     1       2.517  -4.448   6.816  0.00  0.00    +0.072 C 
ATOM      3  C   UNL     1       3.240  -3.780   7.749  0.00  0.00    +0.249 C 
ATOM      4  C   UNL     1       4.573  -3.463   7.193  0.00  0.00    +0.292 C 
ATOM      5  O   UNL     1       5.453  -2.870   7.785  0.00  0.00    -0.266 OA
ATOM      6  N   UNL     1       4.669  -3.931   5.934  0.00  0.00    -0.253 N 
ATOM      7  O   UNL     1       2.811  -3.455   8.989  0.00  0.00    -0.282 OA
ENDROOT
BRANCH   1  11
ATOM      8  C   UNL     1       1.585  -2.626   2.252  0.00  0.00    +0.162 A 
ATOM      9  C   UNL     1       1.671  -4.009   2.287  0.00  0.00    +0.050 A 
ATOM     10  C   UNL     1       2.258  -4.638   3.369  0.00  0.00    +0.009 A 
ATOM     11  C   UNL     1       2.760  -3.890   4.418  0.00  0.00    -0.018 A 
ATOM     12  C   UNL     1       2.677  -2.511   4.390  0.00  0.00    +0.055 A 
ATOM     13  C   UNL     1       2.096  -1.874   3.305  0.00  0.00    +0.162 A 
BRANCH  13  14
ATOM     14  O   UNL     1       2.019  -0.516   3.273  0.00  0.00    -0.491 OA
ATOM     15  C   UNL     1       2.564   0.191   4.389  0.00  0.00    +0.277 C 
ENDBRANCH  13  14
BRANCH   8  16
ATOM     16  O   UNL     1       1.009  -2.006   1.188  0.00  0.00    -0.488 OA
BRANCH  16  17
ATOM     17  C   UNL     1       0.507  -2.842   0.143  0.00  0.00    +0.229 C 
BRANCH  17  19
ATOM     18  C   UNL     1      -0.637  -2.867  -2.078  0.00  0.00    +0.007 C 
ATOM     19  C   UNL     1      -0.100  -1.972  -0.959  0.00  0.00    +0.038 C 
ENDBRANCH  17  19
ENDBRANCH  16  17
ENDBRANCH   8  16
ENDBRANCH   1  11
BRANCH   6  20
ATOM     20  C   UNL     1       5.783  -3.818   5.096  0.00  0.00    +0.038 A 
ATOM     21  C   UNL     1       5.741  -4.346   3.810  0.00  0.00    +0.023 A 
ATOM     22  C   UNL     1       6.839  -4.237   2.977  0.00  0.00    +0.003 A 
ATOM     23  C   UNL     1       7.984  -3.604   3.416  0.00  0.00    +0.015 A 
ATOM     24  C   UNL     1       8.037  -3.070   4.706  0.00  0.00    +0.065 A 
ATOM     25  C   UNL     1       6.926  -3.175   5.545  0.00  0.00    +0.038 A 
BRANCH  24  26
ATOM     26  C   UNL     1       9.260  -2.393   5.178  0.00  0.00    +0.387 C 
ATOM     27  O   UNL     1      10.230  -2.299   4.440  0.00  0.00    -0.241 OA
ATOM     28  O   UNL     1       9.303  -1.927   6.308  0.00  0.00    -0.241 OA
ENDBRANCH  24  26
ENDBRANCH   6  20
BRANCH   2  29
ATOM     29  C   UNL     1       1.193  -4.926   6.958  0.00  0.00    +0.168 C 
ATOM     30  O   UNL     1       0.557  -4.664   7.957  0.00  0.00    -0.292 OA
BRANCH  29  31
ATOM     31  C   UNL     1       0.574  -5.762   5.868  0.00  0.00    +0.060 C 
ATOM     32  C   UNL     1      -0.853  -5.416   5.436  0.00  0.00    +0.012 C 
ATOM     33  C   UNL     1      -0.587  -6.681   6.256  0.00  0.00    +0.012 C 
ENDBRANCH  29  31
ENDBRANCH   2  29
TORSDOF 9
