REMARK  Name = ZINC63584614
REMARK  6 active torsions:
REMARK  status: ('A' for Active; 'I' for Inactive)
REMARK    1  A    between atoms: C_7  and  C_10
REMARK    2  A    between atoms: C_10  and  C_11
REMARK    3  A    between atoms: C_11  and  N_12
REMARK    4  A    between atoms: N_12  and  C_13
REMARK    5  A    between atoms: N_22  and  C_26
REMARK    6  A    between atoms: C_26  and  C_27
REMARK                            x       y       z     vdW  Elec       q    Type
REMARK                         _______ _______ _______ _____ _____    ______ ____
ROOT
ATOM      1  C   UNL     1      -0.928  -5.215  -2.690  0.00  0.00    +0.100 C 
ATOM      2  C   UNL     1      -1.605  -6.379  -2.628  0.00  0.00    +0.170 C 
ATOM      3  C   UNL     1      -1.853  -7.229  -3.822  0.00  0.00    +0.222 C 
ATOM      4  O   UNL     1      -1.055  -7.314  -4.742  0.00  0.00    -0.285 OA
ATOM      5  C   UNL     1      -3.116  -7.952  -3.816  0.00  0.00    +0.083 A 
ATOM      6  C   UNL     1      -4.021  -8.101  -2.766  0.00  0.00    +0.070 A 
ATOM      7  C   UNL     1      -5.130  -8.875  -3.089  0.00  0.00    +0.033 A 
ATOM      8  C   UNL     1      -5.249  -9.388  -4.334  0.00  0.00    +0.048 A 
ATOM      9  S   UNL     1      -3.871  -8.857  -5.138  0.00  0.00    -0.091 S 
ATOM     10  N   UNL     1      -3.819  -7.504  -1.501  0.00  0.00    -0.197 N 
ATOM     11  S   UNL     1      -2.266  -7.027  -1.111  0.00  0.00    +0.080 S 
ATOM     12  O   UNL     1      -1.531  -8.204  -0.806  0.00  0.00    -0.150 OA
ATOM     13  O   UNL     1      -2.381  -5.936  -0.208  0.00  0.00    -0.150 OA
ENDROOT
BRANCH   1  14
ATOM     14  N   UNL     1      -0.598  -4.553  -1.538  0.00  0.00    -0.348 N 
ATOM     15  H   UNL     1      -0.774  -4.961  -0.676  0.00  0.00    +0.146 HD
BRANCH  14  16
ATOM     16  C   UNL     1       0.021  -3.227  -1.607  0.00  0.00    +0.105 C 
BRANCH  16  17
ATOM     17  C   UNL     1       0.285  -2.713  -0.191  0.00  0.00    +0.052 C 
BRANCH  17  24
ATOM     18  C   UNL     1      -1.448   1.531   0.009  0.00  0.00    +0.001 A 
ATOM     19  C   UNL     1      -0.480   2.539  -0.100  0.00  0.00    +0.002 A 
ATOM     20  C   UNL     1       0.835   2.274  -0.249  0.00  0.00    +0.026 A 
ATOM     21  C   UNL     1       1.296   0.930  -0.302  0.00  0.00    +0.043 A 
ATOM     22  N   UNL     1       2.498   0.424  -0.440  0.00  0.00    -0.380 N 
ATOM     23  C   UNL     1       2.393  -1.040  -0.429  0.00  0.00    +0.144 C 
ATOM     24  C   UNL     1       0.922  -1.349  -0.262  0.00  0.00    -0.040 C 
ATOM     25  C   UNL     1       0.294  -0.153  -0.189  0.00  0.00    -0.001 A 
ATOM     26  C   UNL     1      -1.117   0.220  -0.028  0.00  0.00    +0.010 A 
ATOM     27  H   UNL     1       3.319   0.932  -0.533  0.00  0.00    +0.160 HD
ENDBRANCH  17  24
ENDBRANCH  16  17
ENDBRANCH  14  16
ENDBRANCH   1  14
BRANCH  10  28
ATOM     28  C   UNL     1      -4.930  -7.314  -0.566  0.00  0.00    +0.166 C 
BRANCH  28  29
ATOM     29  C   UNL     1      -5.631  -6.016  -0.875  0.00  0.00    -0.026 A 
ATOM     30  C   UNL     1      -5.256  -4.856  -0.222  0.00  0.00    +0.005 A 
ATOM     31  C   UNL     1      -5.897  -3.665  -0.504  0.00  0.00    +0.003 A 
ATOM     32  C   UNL     1      -6.915  -3.632  -1.439  0.00  0.00    +0.038 A 
ATOM     33  C   UNL     1      -7.292  -4.793  -2.093  0.00  0.00    +0.124 A 
ATOM     34  C   UNL     1      -6.644  -5.985  -1.814  0.00  0.00    +0.043 A 
ATOM     35  F   UNL     1      -8.287  -4.762  -3.006  0.00  0.00    -0.205 F 
ENDBRANCH  28  29
ENDBRANCH  10  28
TORSDOF 6
