REMARK  Name = ZINC59377248
REMARK  6 active torsions:
REMARK  status: ('A' for Active; 'I' for Inactive)
REMARK    1  A    between atoms: C_1  and  C_2
REMARK    2  A    between atoms: C_6  and  N_8
REMARK    3  A    between atoms: N_16  and  C_19
REMARK    4  A    between atoms: C_19  and  N_20
REMARK    5  A    between atoms: N_20  and  C_21
REMARK    6  A    between atoms: N_20  and  C_27
REMARK                            x       y       z     vdW  Elec       q    Type
REMARK                         _______ _______ _______ _____ _____    ______ ____
ROOT
ATOM      1  N   UNL     1       0.668  -3.781   0.900  0.00  0.00    -0.242 NA
ATOM      2  C   UNL     1      -0.347  -4.455   1.383  0.00  0.00    +0.135 C 
ATOM      3  C   UNL     1      -0.637  -4.754   2.802  0.00  0.00    +0.027 A 
ATOM      4  C   UNL     1       0.015  -4.447   3.993  0.00  0.00    +0.012 A 
ATOM      5  C   UNL     1      -0.513  -4.876   5.194  0.00  0.00    +0.001 A 
ATOM      6  C   UNL     1      -1.687  -5.610   5.212  0.00  0.00    +0.002 A 
ATOM      7  C   UNL     1      -2.342  -5.920   4.037  0.00  0.00    +0.024 A 
ATOM      8  C   UNL     1      -1.827  -5.496   2.817  0.00  0.00    +0.044 A 
ATOM      9  N   UNL     1      -2.280  -5.670   1.513  0.00  0.00    -0.282 N 
ATOM     10  C   UNL     1      -1.462  -5.079   0.626  0.00  0.00    +0.268 C 
ATOM     11  O   UNL     1      -1.607  -5.060  -0.581  0.00  0.00    -0.268 OA
ENDROOT
BRANCH   1  17
ATOM     12  C   UNL     1       1.587  -0.789  -2.858  0.00  0.00    +0.044 C 
ATOM     13  C   UNL     1       1.228  -2.146  -2.310  0.00  0.00    -0.048 A 
ATOM     14  C   UNL     1       1.014  -3.205  -3.175  0.00  0.00    +0.003 A 
ATOM     15  C   UNL     1       0.684  -4.456  -2.683  0.00  0.00    +0.002 A 
ATOM     16  C   UNL     1       0.566  -4.657  -1.324  0.00  0.00    +0.028 A 
ATOM     17  C   UNL     1       0.782  -3.592  -0.442  0.00  0.00    +0.065 A 
ATOM     18  C   UNL     1       1.121  -2.330  -0.949  0.00  0.00    +0.031 A 
ENDBRANCH   1  17
BRANCH   9  19
ATOM     19  C   UNL     1      -3.498  -6.400   1.154  0.00  0.00    +0.039 C 
BRANCH  19  20
ATOM     20  N   UNL     1      -4.651  -5.792   1.832  0.00  0.00    +0.394 N 
ATOM     21  H   UNL     1      -4.462  -5.724   2.821  0.00  0.00    -0.079 HD
BRANCH  20  22
ATOM     22  C   UNL     1      -4.889  -4.450   1.286  0.00  0.00    -0.066 C 
ATOM     23  C   UNL     1      -4.974  -4.528  -0.240  0.00  0.00    -0.015 C 
ATOM     24  C   UNL     1      -5.222  -3.129  -0.809  0.00  0.00    -0.002 C 
ATOM     25  C   UNL     1      -4.071  -2.204  -0.408  0.00  0.00    -0.000 C 
ATOM     26  C   UNL     1      -3.986  -2.126   1.117  0.00  0.00    -0.002 C 
ATOM     27  C   UNL     1      -3.738  -3.525   1.687  0.00  0.00    -0.015 C 
ENDBRANCH  20  22
BRANCH  20  28
ATOM     28  C   UNL     1      -5.841  -6.627   1.618  0.00  0.00    -0.066 C 
ATOM     29  C   UNL     1      -7.032  -6.016   2.359  0.00  0.00    -0.015 C 
ATOM     30  C   UNL     1      -8.272  -6.885   2.135  0.00  0.00    -0.002 C 
ATOM     31  C   UNL     1      -8.009  -8.295   2.667  0.00  0.00    -0.000 C 
ATOM     32  C   UNL     1      -6.817  -8.905   1.926  0.00  0.00    -0.002 C 
ATOM     33  C   UNL     1      -5.578  -8.037   2.150  0.00  0.00    -0.015 C 
ENDBRANCH  20  28
ENDBRANCH  19  20
ENDBRANCH   9  19
TORSDOF 5
