REMARK  Name = ZINC33960036
REMARK  8 active torsions:
REMARK  status: ('A' for Active; 'I' for Inactive)
REMARK    1  A    between atoms: C_1  and  C_2
REMARK    2  A    between atoms: C_5  and  C_36
REMARK    3  A    between atoms: N_8  and  S_10
REMARK    4  A    between atoms: S_10  and  C_13
REMARK    5  A    between atoms: C_17  and  C_19
REMARK    6  A    between atoms: N_24  and  N_25
REMARK    7  A    between atoms: C_26  and  C_27
REMARK    8  A    between atoms: C_31  and  N_33
REMARK                            x       y       z     vdW  Elec       q    Type
REMARK                         _______ _______ _______ _____ _____    ______ ____
ROOT
ATOM      1  C   UNL     1       0.134   5.144   2.832  0.00  0.00    +0.055 A 
ATOM      2  C   UNL     1      -0.831   4.485   3.596  0.00  0.00    +0.075 A 
ATOM      3  S   UNL     1      -1.946   5.694   3.934  0.00  0.00    -0.056 S 
ATOM      4  C   UNL     1      -1.220   6.982   3.141  0.00  0.00    +0.192 A 
ATOM      5  N   UNL     1      -0.087   6.448   2.612  0.00  0.00    -0.332 N 
ATOM      6  N   UNL     1      -1.653   8.241   3.053  0.00  0.00    -0.124 NA
ATOM      7  H   UNL     1       0.533   6.986   2.095  0.00  0.00    +0.168 HD
ENDROOT
BRANCH   1  12
ATOM      8  C   UNL     1       2.629   2.448   2.067  0.00  0.00    +0.106 A 
ATOM      9  C   UNL     1       3.560   3.149   1.319  0.00  0.00    +0.028 A 
ATOM     10  C   UNL     1       3.379   4.497   1.062  0.00  0.00    +0.003 A 
ATOM     11  C   UNL     1       2.269   5.152   1.550  0.00  0.00    +0.010 A 
ATOM     12  C   UNL     1       1.323   4.451   2.307  0.00  0.00    +0.001 A 
ATOM     13  C   UNL     1       1.511   3.087   2.557  0.00  0.00    +0.038 A 
BRANCH   8  14
ATOM     14  S   UNL     1       2.871   0.732   2.387  0.00  0.00    +0.061 S 
ATOM     15  O   UNL     1       2.133   0.430   3.563  0.00  0.00    -0.153 OA
ATOM     16  O   UNL     1       4.268   0.492   2.281  0.00  0.00    -0.153 OA
BRANCH  14  22
ATOM     17  C   UNL     1      -0.019   1.526   0.010  0.00  0.00    +0.009 C 
ATOM     18  C   UNL     1       0.002  -0.004   0.002  0.00  0.00    +0.002 C 
ATOM     19  C   UNL     1       0.720  -0.498  -1.256  0.00  0.00    +0.009 C 
ATOM     20  C   UNL     1       2.145   0.059  -1.285  0.00  0.00    +0.002 C 
ATOM     21  C   UNL     1       2.912  -0.448  -0.060  0.00  0.00    +0.112 C 
ATOM     22  N   UNL     1       2.153  -0.103   1.150  0.00  0.00    -0.176 NA
ATOM     23  C   UNL     1       0.744  -0.512   1.242  0.00  0.00    +0.112 C 
ATOM     24  C   UNL     1       2.850  -0.408  -2.559  0.00  0.00    +0.009 C 
ENDBRANCH  14  22
ENDBRANCH   8  14
ENDBRANCH   1  12
BRANCH   6  25
ATOM     25  N   UNL     1      -2.758   8.584   3.624  0.00  0.00    -0.155 NA
ATOM     26  C   UNL     1      -3.189   9.838   3.537  0.00  0.00    +0.143 C 
BRANCH  26  27
ATOM     27  C   UNL     1      -4.402  10.215   4.163  0.00  0.00    -0.003 A 
ATOM     28  C   UNL     1      -5.151   9.267   4.884  0.00  0.00    +0.009 A 
ATOM     29  C   UNL     1      -6.328   9.644   5.490  0.00  0.00    +0.003 A 
ATOM     30  C   UNL     1      -6.776  10.953   5.391  0.00  0.00    +0.033 A 
ATOM     31  C   UNL     1      -6.046  11.894   4.682  0.00  0.00    +0.127 A 
ATOM     32  C   UNL     1      -4.863  11.540   4.074  0.00  0.00    +0.042 A 
BRANCH  31  33
ATOM     33  N   UNL     1      -6.537  13.287   4.585  0.00  0.00    +0.056 N 
ATOM     34  O   UNL     1      -7.666  13.630   5.170  0.00  0.00    -0.126 OA
ATOM     35  O   UNL     1      -5.846  14.184   3.913  0.00  0.00    -0.126 OA
ENDBRANCH  31  33
ENDBRANCH  26  27
ENDBRANCH   6  25
TORSDOF 6
