REMARK  Name = ZINC01826794
REMARK  8 active torsions:
REMARK  status: ('A' for Active; 'I' for Inactive)
REMARK    1  A    between atoms: C_1  and  C_2
REMARK    2  A    between atoms: C_2  and  O_3
REMARK    3  A    between atoms: O_3  and  C_4
REMARK    4  A    between atoms: C_7  and  C_10
REMARK    5  A    between atoms: C_16  and  C_18
REMARK    6  A    between atoms: C_21  and  O_24
REMARK    7  A    between atoms: O_24  and  C_25
REMARK    8  A    between atoms: C_25  and  C_26
REMARK                            x       y       z     vdW  Elec       q    Type
REMARK                         _______ _______ _______ _____ _____    ______ ____
ROOT
ATOM      1  C   UNL     1      -2.001  -6.092  -0.011  0.00  0.00    +0.294 C 
ATOM      2  N   UNL     1      -3.239  -6.445   0.647  0.00  0.00    -0.175 NA
ATOM      3  C   UNL     1      -3.294  -7.934   0.788  0.00  0.00    +0.138 C 
ATOM      4  C   UNL     1      -4.530  -8.071   1.634  0.00  0.00    +0.023 C 
ATOM      5  C   UNL     1      -4.611  -6.894   2.299  0.00  0.00    +0.047 C 
ATOM      6  N   UNL     1      -3.536  -6.059   1.909  0.00  0.00    -0.273 N 
ATOM      7  C   UNL     1      -3.350  -8.471  -0.604  0.00  0.00    +0.018 A 
ATOM      8  C   UNL     1      -4.010  -9.643  -0.903  0.00  0.00    +0.024 A 
ATOM      9  C   UNL     1      -4.031 -10.116  -2.203  0.00  0.00    +0.018 A 
ATOM     10  C   UNL     1      -3.387  -9.410  -3.203  0.00  0.00    +0.019 A 
ATOM     11  C   UNL     1      -2.728  -8.234  -2.909  0.00  0.00    +0.047 A 
ATOM     12  C   UNL     1      -2.707  -7.747  -1.607  0.00  0.00    +0.128 A 
ATOM     13  O   UNL     1      -2.094  -6.570  -1.365  0.00  0.00    -0.468 OA
ATOM     14 BR   UNL     1      -4.938 -11.725  -2.612  0.00  0.00    -0.050 Br
ATOM     15  H   UNL     1      -3.107  -5.364   2.432  0.00  0.00    +0.167 HD
ENDROOT
BRANCH   1  19
ATOM     16  C   UNL     1      -1.498  -1.848   0.006  0.00  0.00    +0.121 A 
ATOM     17  C   UNL     1      -0.388  -2.679  -0.003  0.00  0.00    +0.046 A 
ATOM     18  C   UNL     1      -0.553  -4.051  -0.008  0.00  0.00    +0.012 A 
ATOM     19  C   UNL     1      -1.823  -4.596  -0.005  0.00  0.00    +0.009 A 
ATOM     20  C   UNL     1      -2.932  -3.769   0.004  0.00  0.00    +0.012 A 
ATOM     21  C   UNL     1      -2.772  -2.397   0.016  0.00  0.00    +0.046 A 
BRANCH  16  22
ATOM     22  O   UNL     1      -1.339  -0.499   0.012  0.00  0.00    -0.492 OA
BRANCH  22  24
ATOM     23  C   UNL     1      -0.019   1.526   0.010  0.00  0.00    +0.048 C 
ATOM     24  C   UNL     1       0.002  -0.004   0.002  0.00  0.00    +0.225 C 
ENDBRANCH  22  24
ENDBRANCH  16  22
ENDBRANCH   1  19
BRANCH   5  25
ATOM     25  C   UNL     1      -5.661  -6.535   3.279  0.00  0.00    -0.003 A 
ATOM     26  C   UNL     1      -6.671  -7.447   3.587  0.00  0.00    +0.013 A 
ATOM     27  C   UNL     1      -7.647  -7.109   4.501  0.00  0.00    +0.046 A 
ATOM     28  C   UNL     1      -7.625  -5.864   5.114  0.00  0.00    +0.121 A 
ATOM     29  C   UNL     1      -6.622  -4.954   4.809  0.00  0.00    +0.046 A 
ATOM     30  C   UNL     1      -5.639  -5.287   3.902  0.00  0.00    +0.013 A 
BRANCH  28  31
ATOM     31  O   UNL     1      -8.589  -5.534   6.013  0.00  0.00    -0.488 OA
BRANCH  31  32
ATOM     32  C   UNL     1      -8.506  -4.237   6.606  0.00  0.00    +0.256 C 
BRANCH  32  33
ATOM     33  C   UNL     1      -9.650  -4.051   7.570  0.00  0.00    +0.006 C 
ATOM     34  C   UNL     1      -9.432  -3.533   8.753  0.00  0.00    +0.007 C 
ENDBRANCH  32  33
ENDBRANCH  31  32
ENDBRANCH  28  31
ENDBRANCH   5  25
TORSDOF 7
