REMARK  Name = ZINC09069316
REMARK  6 active torsions:
REMARK  status: ('A' for Active; 'I' for Inactive)
REMARK    1  A    between atoms: C_4  and  N_7
REMARK    2  A    between atoms: N_8  and  C_9
REMARK    3  A    between atoms: C_12  and  N_15
REMARK    4  A    between atoms: C_16  and  C_18
REMARK    5  A    between atoms: N_23  and  S_24
REMARK    6  A    between atoms: S_24  and  C_27
REMARK                            x       y       z     vdW  Elec       q    Type
REMARK                         _______ _______ _______ _____ _____    ______ ____
ROOT
ATOM      1  N   UNL     1       0.944   1.605  -1.008  0.00  0.00    -0.284 N 
ATOM      2  C   UNL     1      -0.090   0.973  -0.419  0.00  0.00    +0.236 C 
ATOM      3  O   UNL     1       0.059  -0.141   0.037  0.00  0.00    -0.274 OA
ATOM      4  H   UNL     1       0.808   2.465  -1.436  0.00  0.00    +0.155 HD
ENDROOT
BRANCH   1   8
ATOM      5  C   UNL     1       4.730  -0.139  -0.994  0.00  0.00    +0.086 A 
ATOM      6  C   UNL     1       4.323   0.646  -2.078  0.00  0.00    +0.031 A 
ATOM      7  C   UNL     1       3.072   1.220  -2.079  0.00  0.00    +0.025 A 
ATOM      8  C   UNL     1       2.212   1.021  -1.003  0.00  0.00    +0.034 A 
ATOM      9  C   UNL     1       2.615   0.246   0.080  0.00  0.00    +0.025 A 
ATOM     10  C   UNL     1       3.862  -0.337   0.086  0.00  0.00    +0.031 A 
BRANCH   5  12
ATOM     11  N   UNL     1       6.343  -1.433   0.012  0.00  0.00    -0.149 NA
ATOM     12  N   UNL     1       5.970  -0.709  -0.989  0.00  0.00    -0.149 NA
BRANCH  11  16
ATOM     13  C   UNL     1      10.101  -3.162   0.027  0.00  0.00    +0.000 A 
ATOM     14  C   UNL     1       9.247  -3.361   1.097  0.00  0.00    +0.002 A 
ATOM     15  C   UNL     1       7.993  -2.788   1.099  0.00  0.00    +0.029 A 
ATOM     16  C   UNL     1       7.585  -2.004   0.017  0.00  0.00    +0.086 A 
ATOM     17  C   UNL     1       8.451  -1.811  -1.063  0.00  0.00    +0.029 A 
ATOM     18  C   UNL     1       9.704  -2.386  -1.048  0.00  0.00    +0.002 A 
ENDBRANCH  11  16
ENDBRANCH   5  12
ENDBRANCH   1   8
BRANCH   2  19
ATOM     19  C   UNL     1      -1.435   1.649  -0.333  0.00  0.00    +0.166 C 
ATOM     20  C   UNL     1      -1.528   2.467   0.973  0.00  0.00    +0.031 C 
ATOM     21  C   UNL     1      -2.998   2.235   1.421  0.00  0.00    +0.019 C 
ATOM     22  C   UNL     1      -3.233   0.769   0.978  0.00  0.00    +0.110 C 
ATOM     23  N   UNL     1      -2.501   0.637  -0.295  0.00  0.00    -0.165 NA
BRANCH  23  24
ATOM     24  S   UNL     1      -2.826  -0.467  -1.486  0.00  0.00    +0.062 S 
ATOM     25  O   UNL     1      -1.644  -0.583  -2.266  0.00  0.00    -0.153 OA
ATOM     26  O   UNL     1      -3.431  -1.584  -0.849  0.00  0.00    -0.153 OA
BRANCH  24  27
ATOM     27  C   UNL     1      -4.053   0.242  -2.533  0.00  0.00    +0.106 A 
ATOM     28  C   UNL     1      -5.393   0.078  -2.236  0.00  0.00    +0.030 A 
ATOM     29  C   UNL     1      -6.356   0.639  -3.054  0.00  0.00    +0.022 A 
ATOM     30  C   UNL     1      -5.979   1.353  -4.177  0.00  0.00    +0.041 A 
ATOM     31  C   UNL     1      -4.637   1.512  -4.477  0.00  0.00    +0.022 A 
ATOM     32  C   UNL     1      -3.675   0.956  -3.655  0.00  0.00    +0.030 A 
ATOM     33 CL   UNL     1      -7.188   2.052  -5.208  0.00  0.00    -0.084 Cl
ENDBRANCH  24  27
ENDBRANCH  23  24
ENDBRANCH   2  19
TORSDOF 6
