REMARK  Name = ZINC42073447
REMARK  4 active torsions:
REMARK  status: ('A' for Active; 'I' for Inactive)
REMARK    1  A    between atoms: C_1  and  C_2
REMARK    2  A    between atoms: C_4  and  C_23
REMARK    3  A    between atoms: C_8  and  N_13
REMARK    4  A    between atoms: N_13  and  C_14
REMARK                            x       y       z     vdW  Elec       q    Type
REMARK                         _______ _______ _______ _____ _____    ______ ____
ROOT
ATOM      1  C   UNL     1      -0.018   1.503   0.010  0.00  0.00    +0.044 C 
ATOM      2  C   UNL     1       0.002  -0.004   0.002  0.00  0.00    -0.050 A 
ATOM      3  C   UNL     1       0.006  -0.691  -1.198  0.00  0.00    +0.008 A 
ATOM      4  C   UNL     1       0.025  -2.070  -1.213  0.00  0.00    -0.029 A 
ATOM      5  C   UNL     1       0.040  -2.782  -0.015  0.00  0.00    +0.042 A 
ATOM      6  C   UNL     1       0.037  -2.081   1.184  0.00  0.00    +0.000 A 
ATOM      7  C   UNL     1       0.023  -0.704   1.196  0.00  0.00    +0.011 A 
ATOM      8  C   UNL     1       0.056  -3.118   2.283  0.00  0.00    +0.173 C 
ATOM      9  C   UNL     1       0.071  -4.439   1.543  0.00  0.00    +0.239 C 
ATOM     10  O   UNL     1       0.088  -5.544   2.042  0.00  0.00    -0.273 OA
ATOM     11  N   UNL     1       0.060  -4.156   0.229  0.00  0.00    -0.283 N 
ATOM     12  C   UNL     1       0.028  -2.808  -2.527  0.00  0.00    +0.045 C 
ATOM     13  H   UNL     1       0.066  -4.829  -0.469  0.00  0.00    +0.155 HD
ENDROOT
BRANCH   8  14
ATOM     14  N   UNL     1       1.265  -2.973   3.106  0.00  0.00    -0.301 NA
ATOM     15  H   UNL     1       2.058  -3.411   2.664  0.00  0.00    +0.123 HD
BRANCH  14  16
ATOM     16  C   UNL     1       1.050  -3.512   4.456  0.00  0.00    +0.041 C 
ATOM     17  C   UNL     1       1.320  -5.018   4.455  0.00  0.00    -0.060 C 
ATOM     18  N   UNL     1       2.406  -5.334   5.386  0.00  0.00    +0.381 N 
ATOM     19  C   UNL     1       2.040  -4.954   6.753  0.00  0.00    -0.078 C 
ATOM     20  C   UNL     1       1.795  -3.445   6.829  0.00  0.00    -0.014 C 
ATOM     21  C   UNL     1       2.013  -2.834   5.439  0.00  0.00    +0.001 C 
ATOM     22  C   UNL     1       3.450  -3.143   4.999  0.00  0.00    -0.014 C 
ATOM     23  C   UNL     1       3.644  -4.666   4.979  0.00  0.00    -0.078 C 
ATOM     24  H   UNL     1       2.561  -6.331   5.370  0.00  0.00    -0.082 HD
ENDBRANCH  14  16
ENDBRANCH   8  14
TORSDOF 2
