REMARK  Name = ZINC12056611
REMARK  9 active torsions:
REMARK  status: ('A' for Active; 'I' for Inactive)
REMARK    1  A    between atoms: C_1  and  C_2
REMARK    2  A    between atoms: C_5  and  C_8
REMARK    3  A    between atoms: C_8  and  N_9
REMARK    4  A    between atoms: C_10  and  C_12
REMARK    5  A    between atoms: C_15  and  N_28
REMARK    6  A    between atoms: C_18  and  C_19
REMARK    7  A    between atoms: C_18  and  N_59
REMARK    8  A    between atoms: C_19  and  C_27
REMARK    9  A    between atoms: C_20  and  C_21
REMARK                            x       y       z     vdW  Elec       q    Type
REMARK                         _______ _______ _______ _____ _____    ______ ____
ROOT
ATOM      1  C   UNL     1      -4.552   5.647  -2.433  0.00  0.00    +0.022 C 
ATOM      2  C   UNL     1      -3.666   6.839  -2.853  0.00  0.00    +0.019 C 
ATOM      3  C   UNL     1      -4.572   7.720  -3.738  0.00  0.00    +0.093 C 
ATOM      4  C   UNL     1      -5.930   6.986  -3.778  0.00  0.00    -0.050 C 
ATOM      5  N   UNL     1      -5.917   6.170  -2.565  0.00  0.00    +0.391 N 
ATOM      6  H   UNL     1      -6.151   6.749  -1.750  0.00  0.00    -0.080 HD
ENDROOT
BRANCH   3   7
ATOM      7  N   UNL     1      -4.729   9.049  -3.140  0.00  0.00    -0.231 N 
ATOM      8  C   UNL     1      -5.629   9.403  -2.204  0.00  0.00    +0.245 A 
ATOM      9  N   UNL     1      -5.426  10.673  -1.949  0.00  0.00    -0.117 NA
ATOM     10  N   UNL     1      -4.458  11.079  -2.696  0.00  0.00    -0.023 NA
ATOM     11  N   UNL     1      -4.035  10.100  -3.417  0.00  0.00    -0.044 NA
ENDBRANCH   3   7
BRANCH   1  13
ATOM     12  N   UNL     1      -3.028   4.786  -0.686  0.00  0.00    -0.313 N 
ATOM     13  C   UNL     1      -4.253   5.244  -1.012  0.00  0.00    +0.200 C 
ATOM     14  O   UNL     1      -5.114   5.332  -0.163  0.00  0.00    -0.278 OA
ATOM     15  H   UNL     1      -2.340   4.716  -1.365  0.00  0.00    +0.149 HD
BRANCH  12  16
ATOM     16  C   UNL     1      -2.737   4.395   0.696  0.00  0.00    +0.139 C 
BRANCH  16  21
ATOM     17  C   UNL     1       2.737   2.583   1.073  0.00  0.00    +0.044 C 
ATOM     18  C   UNL     1       1.310   3.056   0.974  0.00  0.00    -0.050 A 
ATOM     19  C   UNL     1       0.302   2.155   0.687  0.00  0.00    +0.003 A 
ATOM     20  C   UNL     1      -1.007   2.589   0.591  0.00  0.00    +0.005 A 
ATOM     21  C   UNL     1      -1.310   3.922   0.794  0.00  0.00    -0.030 A 
ATOM     22  C   UNL     1      -0.302   4.824   1.081  0.00  0.00    +0.005 A 
ATOM     23  C   UNL     1       1.008   4.390   1.172  0.00  0.00    +0.003 A 
ENDBRANCH  16  21
ENDBRANCH  12  16
ENDBRANCH   1  13
BRANCH   5  24
ATOM     24  C   UNL     1      -6.900   5.045  -2.668  0.00  0.00    -0.047 C 
BRANCH  24  25
ATOM     25  C   UNL     1      -8.304   5.575  -2.533  0.00  0.00    -0.089 C 
ATOM     26  C   UNL     1      -9.005   5.881  -3.617  0.00  0.00    +0.005 C 
ATOM     27  C   UNL     1      -8.912   5.759  -1.167  0.00  0.00    +0.037 C 
BRANCH  26  28
ATOM     28  C   UNL     1     -10.316   6.550  -3.485  0.00  0.00    -0.025 A 
ATOM     29  C   UNL     1     -11.383   6.168  -4.299  0.00  0.00    +0.008 A 
ATOM     30  C   UNL     1     -12.605   6.793  -4.167  0.00  0.00    +0.001 A 
ATOM     31  C   UNL     1     -12.772   7.805  -3.238  0.00  0.00    +0.000 A 
ATOM     32  C   UNL     1     -11.717   8.192  -2.432  0.00  0.00    +0.001 A 
ATOM     33  C   UNL     1     -10.490   7.571  -2.550  0.00  0.00    +0.008 A 
ENDBRANCH  26  28
ENDBRANCH  24  25
ENDBRANCH   5  24
TORSDOF 7
