REMARK  Name = ZINC37931017
REMARK  5 active torsions:
REMARK  status: ('A' for Active; 'I' for Inactive)
REMARK    1  A    between atoms: C_1  and  C_2
REMARK    2  A    between atoms: N_5  and  C_11
REMARK    3  A    between atoms: C_6  and  C_10
REMARK    4  A    between atoms: C_14  and  N_20
REMARK    5  A    between atoms: C_16  and  C_17
REMARK                            x       y       z     vdW  Elec       q    Type
REMARK                         _______ _______ _______ _____ _____    ______ ____
ROOT
ATOM      1  C   UNL     1       0.511  -2.800  -2.188  0.00  0.00    +0.044 A 
ATOM      2  C   UNL     1       1.418  -3.134  -3.186  0.00  0.00    +0.026 A 
ATOM      3  C   UNL     1       1.040  -3.970  -4.215  0.00  0.00    +0.024 A 
ATOM      4  C   UNL     1      -0.252  -4.487  -4.263  0.00  0.00    +0.025 A 
ATOM      5  C   UNL     1      -1.168  -4.167  -3.278  0.00  0.00    +0.039 A 
ATOM      6  C   UNL     1      -0.792  -3.323  -2.226  0.00  0.00    +0.086 A 
ENDROOT
BRANCH   1  10
ATOM      7  C   UNL     1      -0.019   1.526   0.010  0.00  0.00    +0.039 C 
ATOM      8  C   UNL     1       0.002  -0.004   0.002  0.00  0.00    +0.132 C 
ATOM      9  C   UNL     1       0.722  -0.499  -1.258  0.00  0.00    +0.136 C 
ATOM     10  N   UNL     1       0.894  -1.957  -1.151  0.00  0.00    -0.322 N 
ATOM     11  C   UNL     1       1.483  -2.495   0.085  0.00  0.00    +0.096 C 
ATOM     12  C   UNL     1       0.726  -1.903   1.280  0.00  0.00    +0.182 C 
ATOM     13  O   UNL     1       0.695  -0.479   1.159  0.00  0.00    -0.373 OA
ATOM     14  C   UNL     1       1.353  -4.020   0.097  0.00  0.00    +0.030 C 
ENDBRANCH   1  10
BRANCH   6  15
ATOM     15  C   UNL     1      -1.757  -2.982  -1.171  0.00  0.00    +0.388 C 
ATOM     16  O   UNL     1      -2.892  -3.439  -1.208  0.00  0.00    -0.241 OA
ATOM     17  O   UNL     1      -1.427  -2.240  -0.256  0.00  0.00    -0.241 OA
ENDBRANCH   6  15
BRANCH   4  18
ATOM     18  N   UNL     1      -0.625  -5.335  -5.313  0.00  0.00    -0.358 N 
ATOM     19  H   UNL     1       0.016  -5.561  -6.005  0.00  0.00    +0.142 HD
ATOM     20  H   UNL     1      -1.525  -5.696  -5.348  0.00  0.00    +0.142 HD
ENDBRANCH   4  18
TORSDOF 3
