REMARK  Name = ZINC63573490
REMARK  8 active torsions:
REMARK  status: ('A' for Active; 'I' for Inactive)
REMARK    1  A    between atoms: C_1  and  C_2
REMARK    2  A    between atoms: C_5  and  C_8
REMARK    3  A    between atoms: C_15  and  O_20
REMARK    4  A    between atoms: O_20  and  C_21
REMARK    5  A    between atoms: N_27  and  C_28
REMARK    6  A    between atoms: C_30  and  C_36
REMARK    7  A    between atoms: C_33  and  O_34
REMARK    8  A    between atoms: O_34  and  C_35
REMARK                            x       y       z     vdW  Elec       q    Type
REMARK                         _______ _______ _______ _____ _____    ______ ____
ROOT
ATOM      1  C   UNL     1      -0.456  -4.540   0.680  0.00  0.00    +0.134 C 
ATOM      2  C   UNL     1      -1.575  -5.417   1.254  0.00  0.00    +0.131 C 
ATOM      3  C   UNL     1      -1.076  -6.855   1.190  0.00  0.00    -0.035 C 
ATOM      4  C   UNL     1      -1.981  -7.535   0.497  0.00  0.00    +0.003 A 
ATOM      5  C   UNL     1      -2.091  -8.962   0.160  0.00  0.00    +0.055 A 
ATOM      6  C   UNL     1      -3.163  -9.331  -0.594  0.00  0.00    +0.121 A 
ATOM      7  C   UNL     1      -4.143  -8.438  -1.053  0.00  0.00    +0.047 A 
ATOM      8  C   UNL     1      -4.141  -7.105  -0.798  0.00  0.00    +0.029 A 
ATOM      9  C   UNL     1      -3.032  -6.586   0.013  0.00  0.00    +0.043 A 
ATOM     10  N   UNL     1      -2.786  -5.359   0.434  0.00  0.00    -0.375 N 
ATOM     11  C   UNL     1       0.249  -7.279   1.773  0.00  0.00    +0.052 C 
ATOM     12  C   UNL     1       1.307  -6.303   1.226  0.00  0.00    +0.114 C 
ATOM     13  N   UNL     1       0.804  -4.930   1.333  0.00  0.00    -0.276 N 
ATOM     14  C   UNL     1       1.502  -4.016   2.035  0.00  0.00    +0.307 C 
ATOM     15  O   UNL     1       1.030  -2.913   2.237  0.00  0.00    -0.252 OA
ATOM     16  N   UNL     1       2.723  -4.324   2.516  0.00  0.00    -0.266 N 
ATOM     17  H   UNL     1       3.134  -5.172   2.287  0.00  0.00    +0.156 HD
ATOM     18  H   UNL     1      -3.302  -4.561   0.238  0.00  0.00    +0.160 HD
ENDROOT
BRANCH   1  23
ATOM     19  C   UNL     1      -1.577   1.024   1.766  0.00  0.00    +0.044 C 
ATOM     20  C   UNL     1      -1.285  -0.427   1.482  0.00  0.00    -0.050 A 
ATOM     21  C   UNL     1      -1.621  -1.394   2.412  0.00  0.00    +0.004 A 
ATOM     22  C   UNL     1      -1.353  -2.725   2.152  0.00  0.00    +0.006 A 
ATOM     23  C   UNL     1      -0.750  -3.089   0.963  0.00  0.00    -0.025 A 
ATOM     24  C   UNL     1      -0.415  -2.122   0.033  0.00  0.00    +0.006 A 
ATOM     25  C   UNL     1      -0.687  -0.792   0.291  0.00  0.00    +0.004 A 
ENDBRANCH   1  23
BRANCH  16  26
ATOM     26  C   UNL     1       3.398  -3.419   3.346  0.00  0.00    +0.077 A 
ATOM     27  C   UNL     1       3.143  -2.059   3.246  0.00  0.00    +0.030 A 
ATOM     28  C   UNL     1       3.810  -1.169   4.065  0.00  0.00    -0.048 A 
ATOM     29  C   UNL     1       4.733  -1.630   4.986  0.00  0.00    +0.007 A 
ATOM     30  C   UNL     1       4.994  -2.983   5.091  0.00  0.00    +0.048 A 
ATOM     31  C   UNL     1       4.324  -3.883   4.277  0.00  0.00    +0.141 A 
ATOM     32  C   UNL     1       3.531   0.308   3.955  0.00  0.00    +0.044 C 
BRANCH  31  33
ATOM     33  O   UNL     1       4.575  -5.215   4.383  0.00  0.00    -0.493 OA
ATOM     34  C   UNL     1       5.537  -5.619   5.360  0.00  0.00    +0.277 C 
ENDBRANCH  31  33
ENDBRANCH  16  26
BRANCH   6  35
ATOM     35  O   UNL     1      -3.292 -10.644  -0.921  0.00  0.00    -0.495 OA
ATOM     36  C   UNL     1      -4.425 -11.007  -1.713  0.00  0.00    +0.277 C 
ENDBRANCH   6  35
TORSDOF 4
