REMARK  Name = ZINC38970946
REMARK  7 active torsions:
REMARK  status: ('A' for Active; 'I' for Inactive)
REMARK    1  A    between atoms: C_1  and  C_2
REMARK    2  A    between atoms: C_2  and  O_3
REMARK    3  A    between atoms: O_3  and  C_4
REMARK    4  A    between atoms: C_8  and  C_10
REMARK    5  A    between atoms: N_16  and  N_17
REMARK    6  A    between atoms: C_18  and  C_19
REMARK    7  A    between atoms: C_24  and  O_25
REMARK                            x       y       z     vdW  Elec       q    Type
REMARK                         _______ _______ _______ _____ _____    ______ ____
ROOT
ATOM      1  C   UNL     1      -4.329  -4.372   0.019  0.00  0.00    +0.264 C 
ATOM      2  N   UNL     1      -5.257  -3.515  -0.735  0.00  0.00    -0.189 NA
ATOM      3  N   UNL     1      -5.685  -4.163  -1.694  0.00  0.00    -0.219 N 
ATOM      4  C   UNL     1      -5.184  -5.426  -1.758  0.00  0.00    +0.174 C 
ATOM      5  S   UNL     1      -5.576  -6.576  -2.965  0.00  0.00    -0.015 S 
ATOM      6  N   UNL     1      -4.332  -5.644  -0.728  0.00  0.00    -0.172 N 
ATOM      7  H   UNL     1      -6.315  -3.807  -2.339  0.00  0.00    +0.176 HD
ENDROOT
BRANCH   1  12
ATOM      8  C   UNL     1      -1.521  -1.844   0.065  0.00  0.00    +0.121 A 
ATOM      9  C   UNL     1      -0.407  -2.671   0.062  0.00  0.00    +0.045 A 
ATOM     10  C   UNL     1      -0.567  -4.043   0.044  0.00  0.00    +0.004 A 
ATOM     11  C   UNL     1      -1.836  -4.592   0.031  0.00  0.00    +0.007 A 
ATOM     12  C   UNL     1      -2.948  -3.770   0.034  0.00  0.00    +0.001 A 
ATOM     13  C   UNL     1      -2.793  -2.398   0.057  0.00  0.00    +0.053 A 
BRANCH   8  14
ATOM     14  O   UNL     1      -1.366  -0.494   0.083  0.00  0.00    -0.492 OA
BRANCH  14  16
ATOM     15  C   UNL     1      -0.054   1.535   0.110  0.00  0.00    +0.048 C 
ATOM     16  C   UNL     1      -0.028   0.005   0.090  0.00  0.00    +0.225 C 
ENDBRANCH  14  16
ENDBRANCH   8  14
ENDBRANCH   1  12
BRANCH   6  17
ATOM     17  N   UNL     1      -3.613  -6.811  -0.437  0.00  0.00    -0.183 NA
ATOM     18  C   UNL     1      -3.813  -7.888  -1.135  0.00  0.00    +0.142 C 
BRANCH  18  19
ATOM     19  C   UNL     1      -3.142  -9.144  -0.760  0.00  0.00    +0.037 A 
ATOM     20  C   UNL     1      -3.350 -10.303  -1.511  0.00  0.00    +0.028 A 
ATOM     21  C   UNL     1      -2.717 -11.477  -1.154  0.00  0.00    +0.019 A 
ATOM     22  C   UNL     1      -1.877 -11.510  -0.053  0.00  0.00    +0.019 A 
ATOM     23  C   UNL     1      -1.664 -10.370   0.698  0.00  0.00    +0.047 A 
ATOM     24  C   UNL     1      -2.287  -9.182   0.350  0.00  0.00    +0.126 A 
ATOM     25 BR   UNL     1      -2.999 -13.046  -2.171  0.00  0.00    -0.050 Br
BRANCH  24  26
ATOM     26  O   UNL     1      -2.073  -8.060   1.085  0.00  0.00    -0.506 OA
ATOM     27  H   UNL     1      -2.694  -7.944   1.817  0.00  0.00    +0.292 HD
ENDBRANCH  24  26
ENDBRANCH  18  19
ENDBRANCH   6  17
TORSDOF 6
