REMARK  Name = ZINC40921739
REMARK  4 active torsions:
REMARK  status: ('A' for Active; 'I' for Inactive)
REMARK    1  A    between atoms: C_6  and  C_7
REMARK    2  A    between atoms: C_7  and  O_8
REMARK    3  A    between atoms: O_8  and  C_9
REMARK    4  A    between atoms: C_12  and  C_15
REMARK                            x       y       z     vdW  Elec       q    Type
REMARK                         _______ _______ _______ _____ _____    ______ ____
ROOT
ATOM      1  C   UNL     1      -2.874  -1.700  -1.505  0.00  0.00    +0.121 A 
ATOM      2  C   UNL     1      -3.594  -2.134  -0.401  0.00  0.00    +0.046 A 
ATOM      3  C   UNL     1      -4.772  -2.833  -0.577  0.00  0.00    +0.009 A 
ATOM      4  C   UNL     1      -5.234  -3.100  -1.852  0.00  0.00    -0.018 A 
ATOM      5  C   UNL     1      -4.519  -2.670  -2.954  0.00  0.00    +0.009 A 
ATOM      6  C   UNL     1      -3.343  -1.965  -2.784  0.00  0.00    +0.046 A 
ENDROOT
BRANCH   4   7
ATOM      7  C   UNL     1      -6.520  -3.864  -2.042  0.00  0.00    +0.177 C 
ATOM      8  C   UNL     1      -7.507  -3.005  -2.803  0.00  0.00    +0.041 C 
ATOM      9  C   UNL     1      -7.811  -3.236  -4.098  0.00  0.00    +0.020 C 
ATOM     10  C   UNL     1      -8.787  -2.350  -4.835  0.00  0.00    +0.052 C 
ATOM     11  C   UNL     1      -9.836  -1.815  -3.859  0.00  0.00    +0.014 C 
ATOM     12  C   UNL     1      -9.113  -1.039  -2.752  0.00  0.00    +0.080 C 
ATOM     13  C   UNL     1      -8.105  -1.943  -2.100  0.00  0.00    +0.163 C 
ATOM     14  O   UNL     1      -7.800  -1.753  -0.939  0.00  0.00    -0.292 OA
ATOM     15  N   UNL     1      -7.258  -4.282  -4.798  0.00  0.00    -0.286 N 
ATOM     16  C   UNL     1      -6.601  -5.268  -4.083  0.00  0.00    +0.240 A 
ATOM     17  N   UNL     1      -6.252  -5.086  -2.785  0.00  0.00    -0.201 N 
ATOM     18  N   UNL     1      -5.627  -6.270  -2.399  0.00  0.00    -0.042 NA
ATOM     19  N   UNL     1      -5.635  -7.044  -3.436  0.00  0.00    -0.021 NA
ATOM     20  N   UNL     1      -6.205  -6.460  -4.427  0.00  0.00    -0.092 NA
ATOM     21  H   UNL     1      -7.326  -4.327  -5.765  0.00  0.00    +0.155 HD
ENDBRANCH   4   7
BRANCH   1  22
ATOM     22  O   UNL     1      -1.715  -1.012  -1.334  0.00  0.00    -0.487 OA
BRANCH  22  23
ATOM     23  C   UNL     1      -1.293  -0.775   0.010  0.00  0.00    +0.264 C 
BRANCH  23  29
ATOM     24  C   UNL     1      -0.017   1.378   0.010  0.00  0.00    +0.008 A 
ATOM     25  C   UNL     1       1.171   2.086   0.002  0.00  0.00    +0.015 A 
ATOM     26  C   UNL     1       2.378   1.411  -0.013  0.00  0.00    +0.018 A 
ATOM     27  C   UNL     1       2.396   0.027  -0.021  0.00  0.00    +0.015 A 
ATOM     28  C   UNL     1       1.208  -0.679  -0.013  0.00  0.00    +0.008 A 
ATOM     29  C   UNL     1       0.002  -0.004   0.002  0.00  0.00    -0.010 A 
ATOM     30 BR   UNL     1       4.003   2.378  -0.024  0.00  0.00    -0.050 Br
ENDBRANCH  23  29
ENDBRANCH  22  23
ENDBRANCH   1  22
TORSDOF 4
