REMARK  Name = ZINC21450295
REMARK  13 active torsions:
REMARK  status: ('A' for Active; 'I' for Inactive)
REMARK    1  A    between atoms: C_1  and  C_2
REMARK    2  A    between atoms: C_2  and  C_3
REMARK    3  A    between atoms: C_2  and  C_4
REMARK    4  A    between atoms: C_4  and  N_5
REMARK    5  A    between atoms: N_5  and  C_6
REMARK    6  A    between atoms: N_5  and  S_10
REMARK    7  A    between atoms: C_6  and  C_7
REMARK    8  A    between atoms: C_7  and  C_8
REMARK    9  A    between atoms: C_7  and  C_9
REMARK   10  A    between atoms: S_10  and  C_13
REMARK   11  A    between atoms: C_16  and  N_19
REMARK   12  A    between atoms: C_20  and  C_22
REMARK   13  A    between atoms: N_27  and  C_29
REMARK                            x       y       z     vdW  Elec       q    Type
REMARK                         _______ _______ _______ _____ _____    ______ ____
ROOT
ATOM      1  C   UNL     1      -5.698   5.199  -6.610  0.00  0.00    +0.106 A 
ATOM      2  C   UNL     1      -6.267   5.978  -5.619  0.00  0.00    +0.030 A 
ATOM      3  C   UNL     1      -5.780   5.919  -4.328  0.00  0.00    +0.025 A 
ATOM      4  C   UNL     1      -4.718   5.077  -4.026  0.00  0.00    +0.034 A 
ATOM      5  C   UNL     1      -4.145   4.300  -5.024  0.00  0.00    +0.025 A 
ATOM      6  C   UNL     1      -4.640   4.360  -6.312  0.00  0.00    +0.030 A 
ENDROOT
BRANCH   4   7
ATOM      7  N   UNL     1      -4.221   5.016  -2.719  0.00  0.00    -0.285 N 
ATOM      8  C   UNL     1      -3.779   3.845  -2.220  0.00  0.00    +0.222 C 
ATOM      9  O   UNL     1      -3.737   2.861  -2.929  0.00  0.00    -0.275 OA
ATOM     10  H   UNL     1      -4.193   5.923  -2.098  0.00  0.00    +0.155 HD
BRANCH   8  11
ATOM     11  C   UNL     1      -3.335   3.757  -0.783  0.00  0.00    +0.102 C 
ATOM     12  C   UNL     1      -2.043   4.574  -0.551  0.00  0.00    +0.110 C 
ATOM     13  C   UNL     1      -0.928   3.566  -0.728  0.00  0.00    +0.221 C 
ATOM     14  O   UNL     1       0.239   3.844  -0.900  0.00  0.00    -0.275 OA
ATOM     15  N   UNL     1      -1.421   2.317  -0.669  0.00  0.00    -0.271 N 
ATOM     16  C   UNL     1      -2.870   2.326  -0.434  0.00  0.00    +0.127 C 
BRANCH  15  17
ATOM     17  C   UNL     1      -0.651   1.156  -0.808  0.00  0.00    +0.036 A 
ATOM     18  C   UNL     1       0.695   1.250  -1.136  0.00  0.00    +0.025 A 
ATOM     19  C   UNL     1       1.451   0.103  -1.278  0.00  0.00    +0.022 A 
ATOM     20  C   UNL     1       0.872  -1.138  -1.082  0.00  0.00    +0.041 A 
ATOM     21  C   UNL     1      -0.468  -1.234  -0.749  0.00  0.00    +0.022 A 
ATOM     22  C   UNL     1      -1.230  -0.091  -0.611  0.00  0.00    +0.025 A 
ATOM     23 CL   UNL     1       1.827  -2.578  -1.254  0.00  0.00    -0.084 Cl
ENDBRANCH  15  17
ENDBRANCH   8  11
ENDBRANCH   4   7
BRANCH   1  24
ATOM     24  S   UNL     1      -6.322   5.277  -8.256  0.00  0.00    +0.061 S 
ATOM     25  O   UNL     1      -6.108   3.996  -8.832  0.00  0.00    -0.153 OA
ATOM     26  O   UNL     1      -7.611   5.870  -8.174  0.00  0.00    -0.153 OA
BRANCH  24  27
ATOM     27  N   UNL     1      -5.365   6.338  -9.093  0.00  0.00    -0.176 NA
BRANCH  27  28
ATOM     28  C   UNL     1      -4.244   5.840  -9.893  0.00  0.00    +0.112 C 
BRANCH  28  30
ATOM     29  C   UNL     1      -3.491   5.265 -12.205  0.00  0.00    +0.008 C 
ATOM     30  C   UNL     1      -4.692   5.666 -11.346  0.00  0.00    -0.001 C 
ATOM     31  C   UNL     1      -5.761   4.574 -11.422  0.00  0.00    +0.008 C 
ENDBRANCH  28  30
ENDBRANCH  27  28
BRANCH  27  32
ATOM     32  C   UNL     1      -5.640   7.776  -9.033  0.00  0.00    +0.112 C 
BRANCH  32  33
ATOM     33  C   UNL     1      -4.471   8.491  -8.353  0.00  0.00    -0.001 C 
ATOM     34  C   UNL     1      -4.696  10.004  -8.409  0.00  0.00    +0.008 C 
ATOM     35  C   UNL     1      -4.380   8.043  -6.893  0.00  0.00    +0.008 C 
ENDBRANCH  32  33
ENDBRANCH  27  32
ENDBRANCH  24  27
ENDBRANCH   1  24
TORSDOF 9
