REMARK  Name = ZINC22108478
REMARK  12 active torsions:
REMARK  status: ('A' for Active; 'I' for Inactive)
REMARK    1  A    between atoms: C_1  and  C_2
REMARK    2  A    between atoms: C_2  and  C_4
REMARK    3  A    between atoms: C_2  and  N_14
REMARK    4  A    between atoms: N_14  and  C_15
REMARK    5  A    between atoms: C_15  and  C_16
REMARK    6  A    between atoms: C_19  and  C_21
REMARK    7  A    between atoms: C_23  and  C_31
REMARK    8  A    between atoms: C_25  and  C_27
REMARK    9  A    between atoms: C_27  and  O_29
REMARK   10  A    between atoms: O_29  and  C_30
REMARK   11  A    between atoms: C_31  and  O_33
REMARK   12  A    between atoms: O_33  and  C_34
REMARK                            x       y       z     vdW  Elec       q    Type
REMARK                         _______ _______ _______ _____ _____    ______ ____
ROOT
ATOM      1  C   UNL     1       3.657   1.271   0.738  0.00  0.00    +0.089 A 
ATOM      2  C   UNL     1       4.178   2.147   1.619  0.00  0.00    +0.043 A 
ATOM      3  C   UNL     1       5.507   2.392   1.221  0.00  0.00    +0.050 A 
ATOM      4  C   UNL     1       5.724   1.651   0.103  0.00  0.00    +0.135 A 
ATOM      5  O   UNL     1       4.594   0.976  -0.179  0.00  0.00    -0.462 OA
ENDROOT
BRANCH   4   6
ATOM      6  C   UNL     1       6.983   1.596  -0.671  0.00  0.00    +0.019 A 
ATOM      7  C   UNL     1       8.082   2.354  -0.269  0.00  0.00    +0.026 A 
ATOM      8  C   UNL     1       9.271   2.299  -0.996  0.00  0.00    +0.060 A 
ATOM      9  C   UNL     1       9.358   1.493  -2.130  0.00  0.00    +0.030 A 
ATOM     10  C   UNL     1       8.257   0.738  -2.535  0.00  0.00    +0.060 A 
ATOM     11  C   UNL     1       7.070   0.789  -1.805  0.00  0.00    +0.026 A 
BRANCH  10  12
ATOM     12  C   UNL     1       8.349  -0.116  -3.737  0.00  0.00    +0.339 C 
ATOM     13  O   UNL     1       7.390  -0.773  -4.090  0.00  0.00    -0.245 OA
BRANCH  12  14
ATOM     14  O   UNL     1       9.495  -0.166  -4.443  0.00  0.00    -0.464 OA
ATOM     15  C   UNL     1       9.513  -1.026  -5.612  0.00  0.00    +0.280 C 
ENDBRANCH  12  14
ENDBRANCH  10  12
BRANCH   8  16
ATOM     16  C   UNL     1      10.437   3.099  -0.567  0.00  0.00    +0.339 C 
ATOM     17  O   UNL     1      10.362   3.801   0.421  0.00  0.00    -0.245 OA
BRANCH  16  18
ATOM     18  O   UNL     1      11.584   3.049  -1.272  0.00  0.00    -0.464 OA
ATOM     19  C   UNL     1      12.688   3.861  -0.793  0.00  0.00    +0.280 C 
ENDBRANCH  16  18
ENDBRANCH   8  16
ENDBRANCH   4   6
BRANCH   1  20
ATOM     20  C   UNL     1       2.256   0.718   0.771  0.00  0.00    -0.007 C 
BRANCH  20  21
ATOM     21  N   UNL     1       1.365   1.594  -0.002  0.00  0.00    +0.386 N 
ATOM     22  H   UNL     1       1.731   1.642  -1.039  0.00  0.00    -0.085 HD
ATOM     23  H   UNL     1       1.388   2.601   0.441  0.00  0.00    -0.085 HD
BRANCH  21  25
ATOM     24  C   UNL     1      -0.729   1.579   1.267  0.00  0.00    -0.013 C 
ATOM     25  C   UNL     1      -0.013   1.086   0.008  0.00  0.00    -0.068 C 
BRANCH  25  26
ATOM     26  C   UNL     1      -0.753   1.593  -1.232  0.00  0.00    -0.041 C 
ATOM     27  C   UNL     1      -0.037   1.099  -2.490  0.00  0.00    +0.009 C 
ATOM     28  C   UNL     1      -0.777   1.606  -3.730  0.00  0.00    -0.010 C 
ATOM     29  C   UNL     1      -2.212   1.077  -3.719  0.00  0.00    +0.007 C 
ATOM     30  C   UNL     1      -2.928   1.570  -2.460  0.00  0.00    -0.010 C 
ATOM     31  C   UNL     1      -2.188   1.063  -1.221  0.00  0.00    +0.009 C 
ATOM     32  C   UNL     1      -2.949   3.100  -2.452  0.00  0.00    +0.007 C 
ATOM     33  C   UNL     1      -1.513   3.629  -2.463  0.00  0.00    -0.010 C 
ATOM     34  C   UNL     1      -0.797   3.136  -3.721  0.00  0.00    +0.007 C 
ATOM     35  C   UNL     1      -0.773   3.123  -1.223  0.00  0.00    +0.009 C 
ENDBRANCH  25  26
ENDBRANCH  21  25
ENDBRANCH  20  21
ENDBRANCH   1  20
TORSDOF 9
