REMARK  Name = ZINC01292632
REMARK  15 active torsions:
REMARK  status: ('A' for Active; 'I' for Inactive)
REMARK    1  A    between atoms: C_1  and  C_2
REMARK    2  A    between atoms: C_4  and  C_38
REMARK    3  A    between atoms: C_9  and  C_30
REMARK    4  A    between atoms: C_10  and  O_13
REMARK    5  A    between atoms: O_13  and  C_14
REMARK    6  A    between atoms: C_14  and  C_15
REMARK    7  A    between atoms: N_17  and  C_18
REMARK    8  A    between atoms: C_18  and  C_19
REMARK    9  A    between atoms: C_19  and  C_20
REMARK   10  A    between atoms: C_23  and  O_28
REMARK   11  A    between atoms: C_24  and  O_26
REMARK   12  A    between atoms: O_26  and  C_27
REMARK   13  A    between atoms: O_28  and  C_29
REMARK   14  A    between atoms: C_33  and  O_36
REMARK   15  A    between atoms: O_36  and  C_37
REMARK                            x       y       z     vdW  Elec       q    Type
REMARK                         _______ _______ _______ _____ _____    ______ ____
ROOT
ATOM      1  C   UNL     1      -4.038   2.669 -11.661  0.00  0.00    +0.044 C 
ATOM      2  C   UNL     1      -3.413   2.181 -10.379  0.00  0.00    -0.047 A 
ATOM      3  C   UNL     1      -3.749   0.929  -9.885  0.00  0.00    +0.007 A 
ATOM      4  C   UNL     1      -3.186   0.470  -8.714  0.00  0.00    -0.036 A 
ATOM      5  C   UNL     1      -2.276   1.272  -8.027  0.00  0.00    +0.071 A 
ATOM      6  C   UNL     1      -1.936   2.540  -8.526  0.00  0.00    +0.140 A 
ATOM      7  C   UNL     1      -2.515   2.984  -9.709  0.00  0.00    +0.050 A 
ATOM      8  O   UNL     1      -1.055   3.313  -7.858  0.00  0.00    -0.451 OA
ATOM      9  C   UNL     1      -0.474   2.918  -6.713  0.00  0.00    +0.181 A 
ATOM     10  C   UNL     1      -0.737   1.697  -6.140  0.00  0.00    +0.211 A 
ATOM     11  C   UNL     1      -1.647   0.814  -6.774  0.00  0.00    +0.235 A 
ATOM     12  O   UNL     1      -1.903  -0.281  -6.299  0.00  0.00    -0.283 OA
ATOM     13  C   UNL     1      -3.552  -0.891  -8.180  0.00  0.00    +0.044 C 
ENDROOT
BRANCH   9  14
ATOM     14  C   UNL     1       0.478   3.825  -6.048  0.00  0.00    +0.021 A 
ATOM     15  C   UNL     1       0.149   5.170  -5.856  0.00  0.00    +0.015 A 
ATOM     16  C   UNL     1       1.040   6.013  -5.230  0.00  0.00    +0.046 A 
ATOM     17  C   UNL     1       2.269   5.531  -4.798  0.00  0.00    +0.120 A 
ATOM     18  C   UNL     1       2.604   4.196  -4.992  0.00  0.00    +0.046 A 
ATOM     19  C   UNL     1       1.717   3.345  -5.612  0.00  0.00    +0.015 A 
BRANCH  17  20
ATOM     20  O   UNL     1       3.147   6.367  -4.186  0.00  0.00    -0.495 OA
ATOM     21  C   UNL     1       2.739   7.726  -4.019  0.00  0.00    +0.277 C 
ENDBRANCH  17  20
ENDBRANCH   9  14
BRANCH  10  22
ATOM     22  O   UNL     1      -0.126   1.337  -4.979  0.00  0.00    -0.476 OA
BRANCH  22  23
ATOM     23  C   UNL     1      -0.750   1.751  -3.762  0.00  0.00    +0.324 C 
BRANCH  23  24
ATOM     24  C   UNL     1       0.063   1.265  -2.590  0.00  0.00    +0.251 C 
ATOM     25  O   UNL     1       1.077   0.626  -2.778  0.00  0.00    -0.272 OA
ATOM     26  N   UNL     1      -0.337   1.539  -1.332  0.00  0.00    -0.312 N 
ATOM     27  H   UNL     1      -1.147   2.050  -1.181  0.00  0.00    +0.149 HD
BRANCH  26  28
ATOM     28  C   UNL     1       0.454   1.067  -0.193  0.00  0.00    +0.109 C 
BRANCH  28  29
ATOM     29  C   UNL     1      -0.214   1.510   1.110  0.00  0.00    +0.054 C 
BRANCH  29  30
ATOM     30  C   UNL     1       0.599   1.024   2.283  0.00  0.00    -0.042 A 
ATOM     31  C   UNL     1       0.331  -0.212   2.842  0.00  0.00    +0.007 A 
ATOM     32  C   UNL     1       1.077  -0.665   3.914  0.00  0.00    +0.049 A 
ATOM     33  C   UNL     1       2.089   0.125   4.437  0.00  0.00    +0.161 A 
ATOM     34  C   UNL     1       2.355   1.371   3.877  0.00  0.00    +0.162 A 
ATOM     35  C   UNL     1       1.607   1.816   2.799  0.00  0.00    +0.053 A 
BRANCH  34  36
ATOM     36  O   UNL     1       3.347   2.149   4.386  0.00  0.00    -0.491 OA
ATOM     37  C   UNL     1       3.564   3.415   3.760  0.00  0.00    +0.277 C 
ENDBRANCH  34  36
BRANCH  33  38
ATOM     38  O   UNL     1       2.821  -0.317   5.494  0.00  0.00    -0.491 OA
ATOM     39  C   UNL     1       2.493  -1.606   6.017  0.00  0.00    +0.277 C 
ENDBRANCH  33  38
ENDBRANCH  29  30
ENDBRANCH  28  29
ENDBRANCH  26  28
ENDBRANCH  23  24
ENDBRANCH  22  23
ENDBRANCH  10  22
TORSDOF 10
