REMARK  Name = ZINC39527052
REMARK  9 active torsions:
REMARK  status: ('A' for Active; 'I' for Inactive)
REMARK    1  A    between atoms: C_1  and  C_2
REMARK    2  A    between atoms: C_2  and  C_3
REMARK    3  A    between atoms: C_2  and  S_4
REMARK    4  A    between atoms: S_4  and  C_7
REMARK    5  A    between atoms: C_17  and  C_30
REMARK    6  A    between atoms: N_19  and  S_20
REMARK    7  A    between atoms: S_20  and  O_23
REMARK    8  A    between atoms: O_23  and  C_24
REMARK    9  A    between atoms: C_35  and  O_36
REMARK                            x       y       z     vdW  Elec       q    Type
REMARK                         _______ _______ _______ _____ _____    ______ ____
ROOT
ATOM      1  C   UNL     1      -4.036  -4.108  -0.052  0.00  0.00    +0.133 C 
ATOM      2  C   UNL     1      -3.600  -4.939  -1.260  0.00  0.00    +0.026 C 
ATOM      3  C   UNL     1      -2.934  -6.229  -0.779  0.00  0.00    +0.004 C 
ATOM      4  C   UNL     1      -3.928  -7.034   0.061  0.00  0.00    +0.024 C 
ATOM      5  C   UNL     1      -4.366  -6.203   1.268  0.00  0.00    +0.048 C 
ATOM      6  C   UNL     1      -5.030  -4.912   0.789  0.00  0.00    +0.050 C 
ATOM      7  C   UNL     1      -5.355  -7.007   2.114  0.00  0.00    +0.024 C 
ATOM      8  C   UNL     1      -4.641  -8.225   2.706  0.00  0.00    +0.004 C 
ATOM      9  C   UNL     1      -3.496  -7.759   3.608  0.00  0.00    +0.026 C 
ATOM     10  C   UNL     1      -2.486  -6.965   2.775  0.00  0.00    +0.117 C 
ATOM     11  N   UNL     1      -3.192  -5.875   2.087  0.00  0.00    -0.134 NA
ENDROOT
BRANCH  10  12
ATOM     12  C   UNL     1      -1.425  -6.391   3.680  0.00  0.00    +0.013 A 
ATOM     13  C   UNL     1      -1.346  -5.025   3.873  0.00  0.00    +0.009 A 
ATOM     14  C   UNL     1      -0.373  -4.499   4.702  0.00  0.00    +0.001 A 
ATOM     15  C   UNL     1       0.522  -5.337   5.341  0.00  0.00    +0.004 A 
ATOM     16  C   UNL     1       0.447  -6.703   5.152  0.00  0.00    +0.046 A 
ATOM     17  C   UNL     1      -0.532  -7.234   4.324  0.00  0.00    +0.122 A 
BRANCH  17  18
ATOM     18  O   UNL     1      -0.612  -8.579   4.141  0.00  0.00    -0.506 OA
ATOM     19  H   UNL     1      -0.083  -8.907   3.401  0.00  0.00    +0.292 HD
ENDBRANCH  17  18
ENDBRANCH  10  12
BRANCH   1  20
ATOM     20  S   UNL     1      -4.825  -2.578  -0.623  0.00  0.00    -0.026 S 
ATOM     21  O   UNL     1      -5.002  -1.719   0.495  0.00  0.00    -0.174 OA
ATOM     22  O   UNL     1      -5.953  -2.923  -1.415  0.00  0.00    -0.174 OA
BRANCH  20  24
ATOM     23  C   UNL     1      -4.026  -0.478  -2.184  0.00  0.00    +0.031 C 
ATOM     24  C   UNL     1      -3.562  -1.856  -1.707  0.00  0.00    +0.125 C 
ATOM     25  C   UNL     1      -2.249  -1.713  -0.935  0.00  0.00    +0.031 C 
ENDBRANCH  20  24
ENDBRANCH   1  20
BRANCH  11  26
ATOM     26  S   UNL     1      -2.676  -4.309   2.234  0.00  0.00    +0.195 S 
ATOM     27  O   UNL     1      -1.256  -4.350   2.254  0.00  0.00    -0.119 OA
ATOM     28  O   UNL     1      -3.403  -3.550   1.278  0.00  0.00    -0.119 OA
BRANCH  26  29
ATOM     29  O   UNL     1      -3.116  -3.816   3.605  0.00  0.00    -0.333 OA
BRANCH  29  30
ATOM     30  C   UNL     1      -3.019  -4.752   4.586  0.00  0.00    +0.158 A 
ATOM     31  C   UNL     1      -3.639  -5.984   4.434  0.00  0.00    +0.048 A 
ATOM     32  C   UNL     1      -3.539  -6.934   5.432  0.00  0.00    +0.004 A 
ATOM     33  C   UNL     1      -2.822  -6.658   6.582  0.00  0.00    +0.000 A 
ATOM     34  C   UNL     1      -2.204  -5.431   6.736  0.00  0.00    +0.004 A 
ATOM     35  C   UNL     1      -2.296  -4.479   5.738  0.00  0.00    +0.048 A 
ENDBRANCH  29  30
ENDBRANCH  26  29
ENDBRANCH  11  26
TORSDOF 7
