REMARK  Name = ZINC09462334
REMARK  5 active torsions:
REMARK  status: ('A' for Active; 'I' for Inactive)
REMARK    1  A    between atoms: C_1  and  C_2
REMARK    2  A    between atoms: C_5  and  C_8
REMARK    3  A    between atoms: C_23  and  S_35
REMARK    4  A    between atoms: C_26  and  C_28
REMARK    5  A    between atoms: S_35  and  C_36
REMARK                            x       y       z     vdW  Elec       q    Type
REMARK                         _______ _______ _______ _____ _____    ______ ____
ROOT
ATOM      1  C   UNL     1       0.059  -4.275  -0.021  0.00  0.00    +0.234 C 
ATOM      2  C   UNL     1      -1.341  -4.793   0.218  0.00  0.00    +0.025 C 
ATOM      3  C   UNL     1      -1.756  -4.989   1.471  0.00  0.00    +0.050 C 
ATOM      4  C   UNL     1      -0.816  -4.698   2.580  0.00  0.00    +0.039 A 
ATOM      5  C   UNL     1      -1.260  -4.538   3.886  0.00  0.00    +0.033 A 
ATOM      6  C   UNL     1      -0.346  -4.269   4.889  0.00  0.00    +0.042 A 
ATOM      7  C   UNL     1       1.003  -4.160   4.593  0.00  0.00    +0.023 A 
ATOM      8  C   UNL     1       1.452  -4.316   3.293  0.00  0.00    +0.048 A 
ATOM      9  C   UNL     1       0.548  -4.585   2.282  0.00  0.00    +0.131 A 
ATOM     10  O   UNL     1       0.947  -4.740   0.995  0.00  0.00    -0.479 OA
ATOM     11 CL   UNL     1      -0.891  -4.068   6.524  0.00  0.00    -0.084 Cl
ATOM     12  N   UNL     1      -3.038  -5.467   1.766  0.00  0.00    -0.283 N 
ATOM     13  C   UNL     1      -3.772  -6.006   0.721  0.00  0.00    +0.220 A 
ATOM     14  N   UNL     1      -4.862  -6.722   0.734  0.00  0.00    -0.187 NA
ATOM     15  C   UNL     1      -5.210  -7.031  -0.524  0.00  0.00    +0.210 A 
ATOM     16  N   UNL     1      -4.335  -6.503  -1.352  0.00  0.00    -0.141 NA
ATOM     17  N   UNL     1      -3.396  -5.831  -0.570  0.00  0.00    -0.220 N 
ATOM     18  C   UNL     1      -2.222  -5.066  -0.975  0.00  0.00    +0.175 C 
ATOM     19  H   UNL     1      -3.399  -5.422   2.665  0.00  0.00    +0.155 HD
ENDROOT
BRANCH   1  24
ATOM     20  C   UNL     1      -0.018   1.503   0.010  0.00  0.00    +0.044 C 
ATOM     21  C   UNL     1       0.002  -0.004   0.002  0.00  0.00    -0.050 A 
ATOM     22  C   UNL     1       0.128  -0.687  -1.193  0.00  0.00    +0.004 A 
ATOM     23  C   UNL     1       0.147  -2.069  -1.201  0.00  0.00    +0.008 A 
ATOM     24  C   UNL     1       0.040  -2.768  -0.013  0.00  0.00    -0.003 A 
ATOM     25  C   UNL     1      -0.085  -2.085   1.182  0.00  0.00    +0.008 A 
ATOM     26  C   UNL     1      -0.100  -0.703   1.190  0.00  0.00    +0.004 A 
ENDBRANCH   1  24
BRANCH  18  27
ATOM     27  C   UNL     1      -2.663  -3.757  -1.579  0.00  0.00    +0.016 A 
ATOM     28  C   UNL     1      -3.386  -2.855  -0.822  0.00  0.00    +0.009 A 
ATOM     29  C   UNL     1      -3.791  -1.655  -1.375  0.00  0.00    +0.001 A 
ATOM     30  C   UNL     1      -3.473  -1.356  -2.688  0.00  0.00    +0.003 A 
ATOM     31  C   UNL     1      -2.751  -2.256  -3.447  0.00  0.00    +0.039 A 
ATOM     32  C   UNL     1      -2.340  -3.456  -2.891  0.00  0.00    +0.129 A 
ATOM     33  F   UNL     1      -1.629  -4.335  -3.631  0.00  0.00    -0.205 F 
ENDBRANCH  18  27
BRANCH  15  34
ATOM     34  S   UNL     1      -6.613  -7.989  -0.992  0.00  0.00    -0.088 S 
ATOM     35  C   UNL     1      -7.401  -8.412   0.586  0.00  0.00    +0.093 C 
ENDBRANCH  15  34
TORSDOF 3
