REMARK  Name = ZINC39969702
REMARK  8 active torsions:
REMARK  status: ('A' for Active; 'I' for Inactive)
REMARK    1  A    between atoms: C_2  and  C_3
REMARK    2  A    between atoms: C_3  and  N_4
REMARK    3  A    between atoms: C_5  and  C_25
REMARK    4  A    between atoms: C_9  and  S_11
REMARK    5  A    between atoms: S_11  and  C_12
REMARK    6  A    between atoms: C_12  and  C_13
REMARK    7  A    between atoms: C_25  and  C_26
REMARK    8  A    between atoms: N_28  and  C_29
REMARK                            x       y       z     vdW  Elec       q    Type
REMARK                         _______ _______ _______ _____ _____    ______ ____
ROOT
ATOM      1  N   UNL     1      -1.296  -1.729  -1.123  0.00  0.00    -0.257 NA
ATOM      2  C   UNL     1      -2.471  -2.627  -1.046  0.00  0.00    +0.149 C 
ATOM      3  N   UNL     1      -3.476  -1.991  -1.937  0.00  0.00    -0.237 NA
ATOM      4  N   UNL     1      -2.658  -1.478  -3.047  0.00  0.00    -0.229 NA
ATOM      5  C   UNL     1      -1.417  -0.995  -2.400  0.00  0.00    +0.200 C 
ATOM      6  H   UNL     1      -4.148  -2.668  -2.265  0.00  0.00    +0.142 HD
ATOM      7  H   UNL     1      -3.131  -0.727  -3.527  0.00  0.00    +0.143 HD
ENDROOT
BRANCH   1   8
ATOM      8  C   UNL     1      -1.265  -0.802   0.016  0.00  0.00    +0.115 C 
BRANCH   8  10
ATOM      9  C   UNL     1       0.028   1.269   0.017  0.00  0.00    +0.005 C 
ATOM     10  C   UNL     1       0.035  -0.041   0.010  0.00  0.00    -0.019 C 
ENDBRANCH   8  10
ENDBRANCH   1   8
BRANCH   5  11
ATOM     11  S   UNL     1       0.014  -1.348  -3.458  0.00  0.00    -0.117 S 
BRANCH  11  12
ATOM     12  C   UNL     1      -0.053  -3.144  -3.702  0.00  0.00    +0.146 C 
BRANCH  12  13
ATOM     13  C   UNL     1       1.096  -3.575  -4.576  0.00  0.00    +0.120 A 
ATOM     14  N   UNL     1       1.216  -4.894  -4.879  0.00  0.00    -0.310 N 
ATOM     15  H   UNL     1       0.568  -5.528  -4.533  0.00  0.00    +0.170 HD
ATOM     16  C   UNL     1       2.230  -5.333  -5.661  0.00  0.00    +0.259 A 
ATOM     17  O   UNL     1       2.349  -6.511  -5.941  0.00  0.00    -0.267 OA
ATOM     18  C   UNL     1       3.183  -4.330  -6.159  0.00  0.00    +0.065 A 
ATOM     19  C   UNL     1       4.262  -4.676  -6.970  0.00  0.00    +0.015 A 
ATOM     20  C   UNL     1       5.124  -3.696  -7.408  0.00  0.00    +0.001 A 
ATOM     21  C   UNL     1       4.927  -2.369  -7.048  0.00  0.00    +0.002 A 
ATOM     22  C   UNL     1       3.867  -2.005  -6.247  0.00  0.00    +0.028 A 
ATOM     23  C   UNL     1       2.979  -2.981  -5.791  0.00  0.00    +0.078 A 
ATOM     24  N   UNL     1       1.919  -2.667  -5.005  0.00  0.00    -0.233 NA
ENDBRANCH  12  13
ENDBRANCH  11  12
ENDBRANCH   5  11
BRANCH   2  25
ATOM     25  C   UNL     1      -2.994  -2.701   0.390  0.00  0.00    +0.132 C 
BRANCH  25  26
ATOM     26  C   UNL     1      -4.109  -3.712   0.467  0.00  0.00    +0.220 C 
ATOM     27  O   UNL     1      -4.451  -4.314  -0.529  0.00  0.00    -0.275 OA
ATOM     28  N   UNL     1      -4.726  -3.947   1.642  0.00  0.00    -0.284 N 
ATOM     29  H   UNL     1      -4.410  -3.515   2.450  0.00  0.00    +0.155 HD
BRANCH  28  30
ATOM     30  C   UNL     1      -5.822  -4.816   1.695  0.00  0.00    +0.052 A 
ATOM     31  C   UNL     1      -5.870  -5.928   0.865  0.00  0.00    +0.025 A 
ATOM     32  C   UNL     1      -6.953  -6.784   0.920  0.00  0.00    +0.002 A 
ATOM     33  C   UNL     1      -7.990  -6.534   1.801  0.00  0.00    +0.002 A 
ATOM     34  C   UNL     1      -7.946  -5.428   2.629  0.00  0.00    +0.022 A 
ATOM     35  C   UNL     1      -6.863  -4.571   2.583  0.00  0.00    +0.062 A 
ATOM     36 CL   UNL     1      -6.805  -3.186   3.628  0.00  0.00    -0.082 Cl
ENDBRANCH  28  30
ENDBRANCH  25  26
ENDBRANCH   2  25
TORSDOF 8
