REMARK  Name = ZINC13713941
REMARK  10 active torsions:
REMARK  status: ('A' for Active; 'I' for Inactive)
REMARK    1  A    between atoms: C_1  and  C_2
REMARK    2  A    between atoms: C_2  and  C_3
REMARK    3  A    between atoms: C_3  and  C_5
REMARK    4  A    between atoms: C_3  and  N_18
REMARK    5  A    between atoms: N_7  and  C_8
REMARK    6  A    between atoms: C_10  and  N_15
REMARK    7  A    between atoms: N_18  and  C_19
REMARK    8  A    between atoms: N_18  and  S_26
REMARK    9  A    between atoms: C_22  and  C_25
REMARK   10  A    between atoms: S_26  and  C_29
REMARK                            x       y       z     vdW  Elec       q    Type
REMARK                         _______ _______ _______ _____ _____    ______ ____
ROOT
ATOM      1  C   UNL     1       1.234   2.298  -0.277  0.00  0.00    +0.183 C 
ENDROOT
BRANCH   1   2
ATOM      2  C   UNL     1       1.475   2.860  -1.654  0.00  0.00    +0.239 C 
ATOM      3  O   UNL     1       0.590   2.834  -2.483  0.00  0.00    -0.273 OA
ATOM      4  N   UNL     1       2.675   3.390  -1.965  0.00  0.00    -0.283 N 
ATOM      5  H   UNL     1       3.404   3.349  -1.327  0.00  0.00    +0.155 HD
BRANCH   4   6
ATOM      6  C   UNL     1       2.868   4.001  -3.210  0.00  0.00    +0.054 A 
ATOM      7  C   UNL     1       1.819   4.667  -3.829  0.00  0.00    +0.057 A 
ATOM      8  C   UNL     1       2.013   5.268  -5.057  0.00  0.00    +0.128 A 
ATOM      9  C   UNL     1       3.251   5.208  -5.671  0.00  0.00    +0.034 A 
ATOM     10  C   UNL     1       4.298   4.546  -5.058  0.00  0.00    +0.024 A 
ATOM     11  C   UNL     1       4.113   3.947  -3.826  0.00  0.00    +0.062 A 
ATOM     12 CL   UNL     1       5.430   3.122  -3.053  0.00  0.00    -0.082 Cl
BRANCH   8  13
ATOM     13  N   UNL     1       0.895   5.979  -5.717  0.00  0.00    +0.056 N 
ATOM     14  O   UNL     1      -0.196   6.032  -5.177  0.00  0.00    -0.126 OA
ATOM     15  O   UNL     1       1.065   6.509  -6.800  0.00  0.00    -0.126 OA
ENDBRANCH   8  13
ENDBRANCH   4   6
ENDBRANCH   1   2
BRANCH   1  17
ATOM     16  C   UNL     1       1.139   2.850   2.158  0.00  0.00    +0.006 C 
ATOM     17  C   UNL     1       1.263   3.433   0.749  0.00  0.00    +0.030 C 
ENDBRANCH   1  17
BRANCH   1  18
ATOM     18  N   UNL     1      -0.074   1.639  -0.240  0.00  0.00    -0.196 N 
BRANCH  18  19
ATOM     19  C   UNL     1      -1.228   2.361  -0.550  0.00  0.00    +0.052 A 
ATOM     20  C   UNL     1      -1.957   2.052  -1.692  0.00  0.00    +0.025 A 
ATOM     21  C   UNL     1      -3.101   2.765  -1.993  0.00  0.00    +0.005 A 
ATOM     22  C   UNL     1      -3.515   3.792  -1.166  0.00  0.00    -0.050 A 
ATOM     23  C   UNL     1      -2.789   4.106  -0.032  0.00  0.00    +0.005 A 
ATOM     24  C   UNL     1      -1.647   3.394   0.279  0.00  0.00    +0.025 A 
ATOM     25  C   UNL     1      -4.761   4.571  -1.501  0.00  0.00    +0.044 C 
ENDBRANCH  18  19
BRANCH  18  26
ATOM     26  S   UNL     1      -0.182   0.037   0.163  0.00  0.00    +0.043 S 
ATOM     27  O   UNL     1      -1.373  -0.415  -0.467  0.00  0.00    -0.155 OA
ATOM     28  O   UNL     1       1.079  -0.513  -0.192  0.00  0.00    -0.155 OA
ATOM     29  C   UNL     1      -0.385   0.022   1.966  0.00  0.00    +0.218 C 
ENDBRANCH  18  26
ENDBRANCH   1  18
TORSDOF 7
