REMARK  Name = ZINC27498538
REMARK  5 active torsions:
REMARK  status: ('A' for Active; 'I' for Inactive)
REMARK    1  A    between atoms: C_9  and  C_13
REMARK    2  A    between atoms: C_13  and  C_14
REMARK    3  A    between atoms: C_13  and  C_25
REMARK    4  A    between atoms: C_18  and  N_21
REMARK    5  A    between atoms: C_35  and  O_36
REMARK                            x       y       z     vdW  Elec       q    Type
REMARK                         _______ _______ _______ _____ _____    ______ ____
ROOT
ATOM      1  C   UNL     1       3.455   6.317   0.036  0.00  0.00    +0.104 C 
ENDROOT
BRANCH   1  10
ATOM      2  C   UNL     1       2.191   0.426   1.675  0.00  0.00    +0.001 A 
ATOM      3  C   UNL     1       3.444  -0.067   1.341  0.00  0.00    +0.004 A 
ATOM      4  C   UNL     1       4.414   0.767   0.827  0.00  0.00    +0.047 A 
ATOM      5  C   UNL     1       4.143   2.118   0.648  0.00  0.00    +0.143 A 
ATOM      6  C   UNL     1       2.877   2.616   0.991  0.00  0.00    +0.065 A 
ATOM      7  C   UNL     1       1.903   1.763   1.505  0.00  0.00    +0.015 A 
ATOM      8  C   UNL     1       2.610   4.056   0.792  0.00  0.00    +0.200 A 
ATOM      9  O   UNL     1       1.528   4.545   1.071  0.00  0.00    -0.287 OA
ATOM     10  C   UNL     1       3.657   4.841   0.265  0.00  0.00    +0.096 A 
ATOM     11  C   UNL     1       4.847   4.259  -0.034  0.00  0.00    +0.345 A 
ATOM     12  O   UNL     1       5.078   2.953   0.150  0.00  0.00    -0.422 OA
ATOM     13  O   UNL     1       5.836   5.028  -0.537  0.00  0.00    -0.245 OA
ENDBRANCH   1  10
BRANCH   1  14
ATOM     14  C   UNL     1       3.988   7.086   1.218  0.00  0.00    +0.092 A 
ATOM     15  C   UNL     1       3.605   6.729   2.528  0.00  0.00    +0.200 A 
ATOM     16  O   UNL     1       2.841   5.801   2.735  0.00  0.00    -0.287 OA
ATOM     17  C   UNL     1       4.166   7.525   3.639  0.00  0.00    +0.065 A 
ATOM     18  C   UNL     1       3.844   7.246   4.966  0.00  0.00    +0.015 A 
ATOM     19  C   UNL     1       4.389   8.012   5.973  0.00  0.00    +0.001 A 
ATOM     20  C   UNL     1       5.252   9.055   5.670  0.00  0.00    +0.004 A 
ATOM     21  C   UNL     1       5.578   9.341   4.361  0.00  0.00    +0.047 A 
ATOM     22  C   UNL     1       5.038   8.580   3.331  0.00  0.00    +0.143 A 
ATOM     23  O   UNL     1       5.344   8.841   2.043  0.00  0.00    -0.425 OA
ATOM     24  C   UNL     1       4.845   8.123   1.029  0.00  0.00    +0.292 A 
BRANCH  24  25
ATOM     25  O   UNL     1       5.204   8.446  -0.232  0.00  0.00    -0.480 OA
ATOM     26  H   UNL     1       5.896   9.282  -0.410  0.00  0.00    +0.295 HD
ENDBRANCH  24  25
ENDBRANCH   1  14
BRANCH   1  27
ATOM     27  C   UNL     1       1.985   6.604  -0.128  0.00  0.00    +0.015 A 
ATOM     28  C   UNL     1       1.256   7.105   0.933  0.00  0.00    +0.028 A 
ATOM     29  C   UNL     1      -0.094   7.370   0.782  0.00  0.00    +0.044 A 
ATOM     30  C   UNL     1      -0.716   7.133  -0.431  0.00  0.00    +0.056 A 
ATOM     31  C   UNL     1       0.010   6.632  -1.494  0.00  0.00    +0.174 A 
ATOM     32  C   UNL     1       1.365   6.372  -1.347  0.00  0.00    +0.213 A 
ATOM     33  O   UNL     1       2.082   5.884  -2.393  0.00  0.00    -0.285 OA
ATOM     34 CL   UNL     1      -1.008   8.000   2.117  0.00  0.00    -0.083 Cl
BRANCH  31  35
ATOM     35  N   UNL     1      -0.656   6.379  -2.792  0.00  0.00    +0.060 N 
ATOM     36  O   UNL     1      -1.844   6.613  -2.922  0.00  0.00    -0.126 OA
ATOM     37  O   UNL     1      -0.015   5.938  -3.729  0.00  0.00    -0.126 OA
ENDBRANCH  31  35
ENDBRANCH   1  27
TORSDOF 5
