REMARK  Name = ZINC21890587
REMARK  2 active torsions:
REMARK  status: ('A' for Active; 'I' for Inactive)
REMARK    1  A    between atoms: C_1  and  C_2
REMARK    2  A    between atoms: N_19  and  C_20
REMARK                            x       y       z     vdW  Elec       q    Type
REMARK                         _______ _______ _______ _____ _____    ______ ____
ROOT
ATOM      1  C   UNL     1       0.863   4.170   2.695  0.00  0.00    +0.035 C 
ATOM      2  C   UNL     1       1.384   5.391   1.934  0.00  0.00    +0.122 C 
ATOM      3  C   UNL     1       2.478   4.969   0.988  0.00  0.00    +0.044 A 
ATOM      4  C   UNL     1       3.707   5.490   0.852  0.00  0.00    +0.025 A 
ATOM      5  C   UNL     1       4.363   4.763  -0.165  0.00  0.00    +0.020 A 
ATOM      6  C   UNL     1       3.504   3.821  -0.611  0.00  0.00    +0.091 A 
ATOM      7  N   UNL     1       2.349   3.939   0.092  0.00  0.00    -0.318 N 
ATOM      8  C   UNL     1       1.171   3.182  -0.005  0.00  0.00    +0.051 A 
ATOM      9  C   UNL     1       1.204   1.798  -0.017  0.00  0.00    +0.026 A 
ATOM     10  C   UNL     1       0.020   1.085  -0.012  0.00  0.00    +0.002 A 
ATOM     11  C   UNL     1      -1.190   1.754   0.000  0.00  0.00    +0.000 A 
ATOM     12  C   UNL     1      -1.225   3.137  -0.003  0.00  0.00    +0.007 A 
ATOM     13  C   UNL     1      -0.046   3.855  -0.028  0.00  0.00    -0.006 A 
ATOM     14  C   UNL     1      -0.061   5.354  -0.135  0.00  0.00    +0.147 C 
ATOM     15  N   UNL     1       0.286   5.991   1.148  0.00  0.00    -0.273 N 
ATOM     16  C   UNL     1      -0.374   7.081   1.588  0.00  0.00    +0.307 C 
ATOM     17  O   UNL     1      -0.069   7.589   2.650  0.00  0.00    -0.252 OA
ATOM     18  N   UNL     1      -1.371   7.608   0.850  0.00  0.00    -0.269 N 
ATOM     19  H   UNL     1      -1.597   7.196  -0.144  0.00  0.00    +0.156 HD
ENDROOT
BRANCH  18  20
ATOM     20  C   UNL     1      -2.120   8.680   1.350  0.00  0.00    +0.038 A 
ATOM     21  C   UNL     1      -1.507   9.639   2.140  0.00  0.00    +0.023 A 
ATOM     22  C   UNL     1      -2.247  10.698   2.628  0.00  0.00    +0.002 A 
ATOM     23  C   UNL     1      -3.593  10.787   2.337  0.00  0.00    +0.004 A 
ATOM     24  C   UNL     1      -4.214   9.824   1.552  0.00  0.00    -0.042 A 
ATOM     25  C   UNL     1      -3.480   8.773   1.054  0.00  0.00    -0.023 A 
ATOM     26  C   UNL     1      -4.083   7.703   0.183  0.00  0.00    +0.037 C 
ATOM     27  C   UNL     1      -5.605   7.699   0.312  0.00  0.00    +0.005 C 
ATOM     28  C   UNL     1      -6.113   9.129   0.093  0.00  0.00    +0.005 C 
ATOM     29  C   UNL     1      -5.689   9.980   1.288  0.00  0.00    +0.035 C 
ENDBRANCH  18  20
TORSDOF 1
