REMARK  Name = ZINC39763918
REMARK  10 active torsions:
REMARK  status: ('A' for Active; 'I' for Inactive)
REMARK    1  A    between atoms: C_1  and  C_2
REMARK    2  A    between atoms: C_2  and  C_4
REMARK    3  A    between atoms: C_2  and  S_11
REMARK    4  A    between atoms: N_6  and  C_7
REMARK    5  A    between atoms: C_7  and  C_8
REMARK    6  A    between atoms: C_7  and  C_9
REMARK    7  A    between atoms: C_7  and  C_10
REMARK    8  A    between atoms: S_11  and  C_12
REMARK    9  A    between atoms: C_16  and  C_21
REMARK   10  A    between atoms: N_17  and  C_18
REMARK                            x       y       z     vdW  Elec       q    Type
REMARK                         _______ _______ _______ _____ _____    ______ ____
ROOT
ATOM      1  C   UNL     1       2.653  -0.029   1.258  0.00  0.00    +0.238 C 
ATOM      2  N   UNL     1       3.156  -0.519  -0.036  0.00  0.00    -0.237 N 
ATOM      3  N   UNL     1       3.372   0.611  -0.833  0.00  0.00    -0.169 NA
ATOM      4  C   UNL     1       3.068   1.709  -0.192  0.00  0.00    +0.147 C 
ATOM      5  N   UNL     1       2.616   1.435   1.104  0.00  0.00    -0.282 N 
ATOM      6  H   UNL     1       3.307  -1.444  -0.287  0.00  0.00    +0.171 HD
ENDROOT
BRANCH   4   7
ATOM      7  C   UNL     1       3.183   2.998  -0.734  0.00  0.00    +0.022 C 
ATOM      8  C   UNL     1       3.721   3.349  -1.972  0.00  0.00    +0.006 A 
ATOM      9  C   UNL     1       4.286   2.585  -3.016  0.00  0.00    +0.010 A 
ATOM     10  C   UNL     1       4.739   3.206  -4.136  0.00  0.00    +0.001 A 
ATOM     11  C   UNL     1       4.661   4.593  -4.285  0.00  0.00    +0.002 A 
ATOM     12  C   UNL     1       4.131   5.387  -3.323  0.00  0.00    +0.026 A 
ATOM     13  C   UNL     1       3.637   4.810  -2.125  0.00  0.00    +0.043 A 
ATOM     14  N   UNL     1       3.083   5.354  -1.058  0.00  0.00    -0.380 N 
ATOM     15  C   UNL     1       2.743   4.299  -0.099  0.00  0.00    +0.152 C 
ATOM     16  H   UNL     1       2.924   6.302  -0.931  0.00  0.00    +0.160 HD
ENDBRANCH   4   7
BRANCH   5  17
ATOM     17  C   UNL     1       2.189   2.410   2.111  0.00  0.00    +0.078 C 
ATOM     18  C   UNL     1       3.033   2.530   3.381  0.00  0.00    +0.024 C 
ATOM     19  C   UNL     1       1.655   1.869   3.438  0.00  0.00    +0.024 C 
ENDBRANCH   5  17
BRANCH   1  20
ATOM     20  S   UNL     1       0.989  -0.675   1.579  0.00  0.00    -0.106 S 
BRANCH  20  22
ATOM     21  C   UNL     1      -0.062   1.397   0.136  0.00  0.00    +0.029 C 
ATOM     22  C   UNL     1       0.022  -0.130   0.144  0.00  0.00    +0.132 C 
BRANCH  22  23
ATOM     23  C   UNL     1      -1.367  -0.710   0.224  0.00  0.00    +0.226 C 
ATOM     24  O   UNL     1      -1.833  -1.020   1.300  0.00  0.00    -0.275 OA
ATOM     25  N   UNL     1      -2.090  -0.884  -0.899  0.00  0.00    -0.310 N 
ATOM     26  H   UNL     1      -1.717  -0.637  -1.760  0.00  0.00    +0.149 HD
BRANCH  25  27
ATOM     27  C   UNL     1      -3.440  -1.448  -0.821  0.00  0.00    +0.026 C 
ATOM     28  C   UNL     1      -4.319  -0.547   0.049  0.00  0.00    +0.031 C 
ATOM     29  C   UNL     1      -4.037  -1.540  -2.227  0.00  0.00    +0.031 C 
ATOM     30  C   UNL     1      -3.374  -2.846  -0.203  0.00  0.00    +0.031 C 
ENDBRANCH  25  27
ENDBRANCH  22  23
ENDBRANCH  20  22
ENDBRANCH   1  20
TORSDOF 6
