REMARK  Name = ZINC41107228
REMARK  7 active torsions:
REMARK  status: ('A' for Active; 'I' for Inactive)
REMARK    1  A    between atoms: C_1  and  C_2
REMARK    2  A    between atoms: C_5  and  N_9
REMARK    3  A    between atoms: C_6  and  C_8
REMARK    4  A    between atoms: C_10  and  C_12
REMARK    5  A    between atoms: C_13  and  C_26
REMARK    6  A    between atoms: C_18  and  C_20
REMARK    7  A    between atoms: C_23  and  C_25
REMARK                            x       y       z     vdW  Elec       q    Type
REMARK                         _______ _______ _______ _____ _____    ______ ____
ROOT
ATOM      1  C   UNL     1      -0.530  -6.939  -0.715  0.00  0.00    +0.056 C 
ATOM      2  C   UNL     1      -0.787  -7.761  -1.754  0.00  0.00    +0.017 C 
ATOM      3  N   UNL     1      -1.026  -9.092  -1.558  0.00  0.00    -0.300 N 
ATOM      4  C   UNL     1      -1.025  -9.677  -0.354  0.00  0.00    +0.135 C 
ATOM      5  S   UNL     1      -1.339 -11.357  -0.249  0.00  0.00    -0.019 S 
ATOM      6  N   UNL     1      -0.784  -8.987   0.778  0.00  0.00    -0.315 N 
ATOM      7  C   UNL     1      -0.508  -7.544   0.674  0.00  0.00    +0.146 C 
ATOM      8  C   UNL     1      -0.813  -7.202  -3.153  0.00  0.00    +0.061 C 
ATOM      9  H   UNL     1      -1.206  -9.644  -2.335  0.00  0.00    +0.154 HD
ATOM     10  H   UNL     1      -0.788  -9.431   1.641  0.00  0.00    +0.149 HD
ENDROOT
BRANCH   7  11
ATOM     11  C   UNL     1      -1.530  -6.820   1.512  0.00  0.00    +0.015 A 
ATOM     12  C   UNL     1      -1.336  -5.910   2.498  0.00  0.00    +0.013 A 
ATOM     13  C   UNL     1      -2.436  -5.370   3.138  0.00  0.00    +0.011 A 
ATOM     14  C   UNL     1      -3.676  -5.765   2.760  0.00  0.00    -0.013 A 
ATOM     15  S   UNL     1      -3.311  -6.931   1.458  0.00  0.00    -0.096 S 
ATOM     16  C   UNL     1      -5.015  -5.329   3.296  0.00  0.00    +0.051 C 
ENDBRANCH   7  11
BRANCH   1  18
ATOM     17  N   UNL     1      -1.313  -4.713  -1.118  0.00  0.00    -0.281 N 
ATOM     18  C   UNL     1      -0.284  -5.559  -0.917  0.00  0.00    +0.248 C 
ATOM     19  O   UNL     1       0.859  -5.137  -0.908  0.00  0.00    -0.270 OA
ATOM     20  H   UNL     1      -2.226  -5.030  -1.032  0.00  0.00    +0.155 HD
BRANCH  17  25
ATOM     21  C   UNL     1      -0.308   0.704  -2.470  0.00  0.00    +0.044 C 
ATOM     22  C   UNL     1      -0.575  -0.736  -2.111  0.00  0.00    -0.050 A 
ATOM     23  C   UNL     1       0.327  -1.429  -1.326  0.00  0.00    +0.005 A 
ATOM     24  C   UNL     1       0.086  -2.748  -0.995  0.00  0.00    +0.024 A 
ATOM     25  C   UNL     1      -1.065  -3.377  -1.451  0.00  0.00    +0.037 A 
ATOM     26  C   UNL     1      -1.970  -2.678  -2.239  0.00  0.00    -0.029 A 
ATOM     27  C   UNL     1      -1.724  -1.357  -2.562  0.00  0.00    +0.008 A 
ATOM     28  C   UNL     1      -3.220  -3.356  -2.737  0.00  0.00    +0.045 C 
ENDBRANCH  17  25
ENDBRANCH   1  18
TORSDOF 3
