REMARK  Name = ZINC36340855
REMARK  14 active torsions:
REMARK  status: ('A' for Active; 'I' for Inactive)
REMARK    1  A    between atoms: C_1  and  C_2
REMARK    2  A    between atoms: C_2  and  C_3
REMARK    3  A    between atoms: C_3  and  C_4
REMARK    4  A    between atoms: C_4  and  O_5
REMARK    5  A    between atoms: O_5  and  C_6
REMARK    6  A    between atoms: C_6  and  C_7
REMARK    7  A    between atoms: C_7  and  C_9
REMARK    8  A    between atoms: C_7  and  O_38
REMARK    9  A    between atoms: C_9  and  N_10
REMARK   10  A    between atoms: C_17  and  C_30
REMARK   11  A    between atoms: C_18  and  C_28
REMARK   12  A    between atoms: C_20  and  C_22
REMARK   13  A    between atoms: C_28  and  C_29
REMARK   14  A    between atoms: C_30  and  C_31
REMARK                            x       y       z     vdW  Elec       q    Type
REMARK                         _______ _______ _______ _____ _____    ______ ____
ROOT
ATOM      1  N   UNL     1       2.271  -6.469  -4.216  0.00  0.00    -0.297 NA
ATOM      2  C   UNL     1       2.944  -5.698  -5.270  0.00  0.00    +0.103 C 
ATOM      3  C   UNL     1       3.322  -6.635  -6.422  0.00  0.00    +0.122 C 
ATOM      4  N   UNL     1       4.103  -7.755  -5.876  0.00  0.00    -0.312 N 
ATOM      5  C   UNL     1       3.555  -8.491  -4.726  0.00  0.00    +0.122 C 
ATOM      6  C   UNL     1       3.168  -7.480  -3.641  0.00  0.00    +0.103 C 
ATOM      7  C   UNL     1       5.323  -8.108  -6.430  0.00  0.00    +0.129 A 
ATOM      8  C   UNL     1       5.436  -9.251  -7.227  0.00  0.00    +0.018 A 
ATOM      9  C   UNL     1       6.672  -9.564  -7.758  0.00  0.00    +0.050 A 
ATOM     10  N   UNL     1       7.707  -8.779  -7.499  0.00  0.00    -0.232 NA
ATOM     11  C   UNL     1       7.571  -7.701  -6.740  0.00  0.00    +0.162 A 
ATOM     12  N   UNL     1       6.401  -7.363  -6.215  0.00  0.00    -0.212 NA
ENDROOT
BRANCH  11  13
ATOM     13  C   UNL     1       8.756  -6.850  -6.474  0.00  0.00    +0.019 A 
ATOM     14  C   UNL     1       8.637  -5.715  -5.673  0.00  0.00    +0.011 A 
ATOM     15  C   UNL     1       9.743  -4.927  -5.429  0.00  0.00    +0.001 A 
ATOM     16  C   UNL     1      10.968  -5.261  -5.978  0.00  0.00    +0.000 A 
ATOM     17  C   UNL     1      11.092  -6.386  -6.774  0.00  0.00    +0.001 A 
ATOM     18  C   UNL     1       9.994  -7.184  -7.020  0.00  0.00    +0.011 A 
ENDBRANCH  11  13
BRANCH   9  19
ATOM     19  C   UNL     1       6.841 -10.787  -8.623  0.00  0.00    +0.052 C 
ATOM     20  C   UNL     1       6.785 -10.380 -10.097  0.00  0.00    +0.010 C 
ENDBRANCH   9  19
BRANCH   1  21
ATOM     21  C   UNL     1       1.740  -5.582  -3.172  0.00  0.00    +0.118 C 
BRANCH  21  22
ATOM     22  C   UNL     1       0.816  -6.377  -2.249  0.00  0.00    +0.154 C 
BRANCH  22  23
ATOM     23  O   UNL     1      -0.321  -6.829  -2.987  0.00  0.00    -0.388 OA
ATOM     24  H   UNL     1      -0.848  -6.116  -3.373  0.00  0.00    +0.210 HD
ENDBRANCH  22  23
BRANCH  22  25
ATOM     25  C   UNL     1       0.353  -5.483  -1.097  0.00  0.00    +0.192 C 
BRANCH  25  26
ATOM     26  O   UNL     1      -0.415  -6.256  -0.172  0.00  0.00    -0.377 OA
BRANCH  26  27
ATOM     27  C   UNL     1      -0.898  -5.511   0.948  0.00  0.00    +0.160 C 
BRANCH  27  28
ATOM     28  C   UNL     1      -1.702  -6.434   1.865  0.00  0.00    +0.028 C 
BRANCH  28  30
ATOM     29  C   UNL     1      -3.023  -6.560   3.982  0.00  0.00    +0.004 C 
ATOM     30  C   UNL     1      -2.219  -5.637   3.064  0.00  0.00    -0.001 C 
ENDBRANCH  28  30
ENDBRANCH  27  28
ENDBRANCH  26  27
ENDBRANCH  25  26
ENDBRANCH  22  25
ENDBRANCH  21  22
ENDBRANCH   1  21
BRANCH   8  31
ATOM     31  C   UNL     1       4.236 -10.121  -7.500  0.00  0.00    +0.078 C 
BRANCH  31  32
ATOM     32  C   UNL     1       3.650  -9.761  -8.841  0.00  0.00    -0.008 A 
ATOM     33  C   UNL     1       2.962  -8.572  -8.998  0.00  0.00    +0.007 A 
ATOM     34  C   UNL     1       2.424  -8.242 -10.227  0.00  0.00    +0.000 A 
ATOM     35  C   UNL     1       2.572  -9.100 -11.301  0.00  0.00    +0.003 A 
ATOM     36  C   UNL     1       3.260 -10.289 -11.147  0.00  0.00    +0.038 A 
ATOM     37  C   UNL     1       3.804 -10.618  -9.917  0.00  0.00    +0.127 A 
ATOM     38  F   UNL     1       4.480 -11.778  -9.765  0.00  0.00    -0.205 F 
ENDBRANCH  31  32
ENDBRANCH   8  31
TORSDOF 12
