REMARK  Name = ZINC00690237
REMARK  13 active torsions:
REMARK  status: ('A' for Active; 'I' for Inactive)
REMARK    1  A    between atoms: C_1  and  N_2
REMARK    2  A    between atoms: N_2  and  C_3
REMARK    3  A    between atoms: N_2  and  C_4
REMARK    4  A    between atoms: C_4  and  C_5
REMARK    5  A    between atoms: C_5  and  N_6
REMARK    6  A    between atoms: N_6  and  C_7
REMARK    7  A    between atoms: C_7  and  C_8
REMARK    8  A    between atoms: C_14  and  C_16
REMARK    9  A    between atoms: C_16  and  C_17
REMARK   10  A    between atoms: C_23  and  C_25
REMARK   11  A    between atoms: C_25  and  N_26
REMARK   12  A    between atoms: N_26  and  C_27
REMARK   13  A    between atoms: C_30  and  C_32
REMARK                            x       y       z     vdW  Elec       q    Type
REMARK                         _______ _______ _______ _____ _____    ______ ____
ROOT
ATOM      1  C   UNL     1      -3.176  -3.997  -2.825  0.00  0.00    +0.059 A 
ATOM      2  C   UNL     1      -2.977  -4.425  -4.096  0.00  0.00    +0.072 A 
ATOM      3  S   UNL     1      -3.856  -5.980  -4.064  0.00  0.00    -0.060 S 
ATOM      4  C   UNL     1      -4.375  -5.920  -2.464  0.00  0.00    +0.165 A 
ATOM      5  N   UNL     1      -3.881  -4.780  -2.031  0.00  0.00    -0.229 NA
ATOM      6  N   UNL     1      -5.135  -6.853  -1.768  0.00  0.00    -0.263 N 
ATOM      7  C   UNL     1      -5.551  -7.978  -2.382  0.00  0.00    +0.236 C 
ATOM      8  O   UNL     1      -5.261  -8.177  -3.543  0.00  0.00    -0.274 OA
ATOM      9  H   UNL     1      -5.367  -6.693  -0.839  0.00  0.00    +0.157 HD
ENDROOT
BRANCH   1  10
ATOM     10  C   UNL     1      -2.612  -2.686  -2.340  0.00  0.00    +0.152 C 
BRANCH  10  12
ATOM     11  N   UNL     1      -3.452  -0.617  -1.276  0.00  0.00    -0.299 N 
ATOM     12  C   UNL     1      -3.723  -1.840  -1.773  0.00  0.00    +0.222 C 
ATOM     13  O   UNL     1      -4.861  -2.260  -1.764  0.00  0.00    -0.275 OA
BRANCH  11  14
ATOM     14  C   UNL     1      -2.078  -0.110  -1.286  0.00  0.00    +0.089 C 
BRANCH  14  15
ATOM     15  C   UNL     1      -1.376  -0.512   0.012  0.00  0.00    -0.060 C 
BRANCH  15  17
ATOM     16  C   UNL     1      -0.018   1.465   0.010  0.00  0.00    -0.097 C 
ATOM     17  N   UNL     1       0.002  -0.004   0.002  0.00  0.00    +0.377 N 
ATOM     18  C   UNL     1       0.713  -0.491   1.192  0.00  0.00    -0.097 C 
ATOM     19  H   UNL     1       0.474  -0.330  -0.828  0.00  0.00    -0.083 HD
ENDBRANCH  15  17
ENDBRANCH  14  15
ENDBRANCH  11  14
BRANCH  11  20
ATOM     20  C   UNL     1      -4.532   0.205  -0.725  0.00  0.00    +0.142 C 
BRANCH  20  21
ATOM     21  C   UNL     1      -5.123   1.057  -1.819  0.00  0.00    -0.030 A 
ATOM     22  C   UNL     1      -4.603   2.312  -2.074  0.00  0.00    +0.005 A 
ATOM     23  C   UNL     1      -5.144   3.094  -3.077  0.00  0.00    +0.000 A 
ATOM     24  C   UNL     1      -6.206   2.621  -3.825  0.00  0.00    +0.000 A 
ATOM     25  C   UNL     1      -6.725   1.365  -3.571  0.00  0.00    +0.000 A 
ATOM     26  C   UNL     1      -6.181   0.582  -2.570  0.00  0.00    +0.005 A 
ENDBRANCH  20  21
ENDBRANCH  11  20
ENDBRANCH  10  12
ENDBRANCH   1  10
BRANCH   7  27
ATOM     27  C   UNL     1      -6.375  -8.988  -1.627  0.00  0.00    +0.204 C 
BRANCH  27  28
ATOM     28  N   UNL     1      -6.698 -10.112  -2.510  0.00  0.00    -0.289 N 
ATOM     29  C   UNL     1      -7.822 -10.085  -3.253  0.00  0.00    +0.219 C 
ATOM     30  O   UNL     1      -8.567  -9.130  -3.191  0.00  0.00    -0.275 OA
BRANCH  29  31
ATOM     31  C   UNL     1      -8.154 -11.241  -4.160  0.00  0.00    +0.075 C 
ATOM     32  C   UNL     1      -7.036 -11.419  -5.189  0.00  0.00    +0.013 C 
ATOM     33  C   UNL     1      -7.373 -12.594  -6.110  0.00  0.00    +0.001 C 
ATOM     34  C   UNL     1      -8.691 -12.312  -6.834  0.00  0.00    +0.000 C 
ATOM     35  C   UNL     1      -9.809 -12.133  -5.805  0.00  0.00    +0.001 C 
ATOM     36  C   UNL     1      -9.472 -10.960  -4.884  0.00  0.00    +0.013 C 
ENDBRANCH  29  31
BRANCH  28  37
ATOM     37  C   UNL     1      -5.799 -11.266  -2.585  0.00  0.00    +0.077 C 
ATOM     38  C   UNL     1      -4.650 -11.334  -1.576  0.00  0.00    +0.024 C 
ATOM     39  C   UNL     1      -4.361 -11.013  -3.044  0.00  0.00    +0.024 C 
ENDBRANCH  28  37
ENDBRANCH  27  28
ENDBRANCH   7  27
TORSDOF 11
