REMARK  Name = ZINC11329095
REMARK  7 active torsions:
REMARK  status: ('A' for Active; 'I' for Inactive)
REMARK    1  A    between atoms: C_1  and  C_2
REMARK    2  A    between atoms: C_2  and  C_4
REMARK    3  A    between atoms: C_2  and  N_10
REMARK    4  A    between atoms: C_11  and  C_13
REMARK    5  A    between atoms: C_18  and  N_19
REMARK    6  A    between atoms: C_20  and  C_22
REMARK    7  A    between atoms: C_22  and  N_23
REMARK                            x       y       z     vdW  Elec       q    Type
REMARK                         _______ _______ _______ _____ _____    ______ ____
ROOT
ATOM      1  N   UNL     1       3.982   0.095  -1.701  0.00  0.00    -0.283 N 
ATOM      2  C   UNL     1       3.269   1.196  -1.390  0.00  0.00    +0.237 C 
ATOM      3  O   UNL     1       2.975   1.993  -2.256  0.00  0.00    -0.274 OA
ATOM      4  H   UNL     1       4.286  -0.500  -0.998  0.00  0.00    +0.155 HD
ENDROOT
BRANCH   1  10
ATOM      5  C   UNL     1       5.407  -0.960  -3.352  0.00  0.00    +0.058 A 
ATOM      6  C   UNL     1       5.694  -1.241  -4.690  0.00  0.00    +0.015 A 
ATOM      7  C   UNL     1       4.876  -0.751  -5.685  0.00  0.00    +0.001 A 
ATOM      8  C   UNL     1       3.768   0.017  -5.366  0.00  0.00    +0.002 A 
ATOM      9  C   UNL     1       3.469   0.298  -4.048  0.00  0.00    +0.024 A 
ATOM     10  C   UNL     1       4.281  -0.188  -3.032  0.00  0.00    +0.046 A 
BRANCH   5  12
ATOM     11  N   UNL     1       7.415  -2.134  -2.596  0.00  0.00    -0.305 N 
ATOM     12  C   UNL     1       6.281  -1.477  -2.282  0.00  0.00    +0.246 C 
ATOM     13  O   UNL     1       5.978  -1.312  -1.116  0.00  0.00    -0.270 OA
ATOM     14  H   UNL     1       7.657  -2.266  -3.526  0.00  0.00    +0.150 HD
BRANCH  11  16
ATOM     15  C   UNL     1       7.785  -4.023  -1.088  0.00  0.00    +0.033 C 
ATOM     16  C   UNL     1       8.283  -2.647  -1.534  0.00  0.00    +0.100 C 
BRANCH  16  17
ATOM     17  C   UNL     1       9.694  -2.767  -2.051  0.00  0.00    -0.027 A 
ATOM     18  C   UNL     1       9.923  -3.233  -3.332  0.00  0.00    +0.005 A 
ATOM     19  C   UNL     1      11.216  -3.339  -3.808  0.00  0.00    +0.000 A 
ATOM     20  C   UNL     1      12.281  -2.988  -2.999  0.00  0.00    +0.000 A 
ATOM     21  C   UNL     1      12.052  -2.528  -1.716  0.00  0.00    +0.000 A 
ATOM     22  C   UNL     1      10.759  -2.417  -1.242  0.00  0.00    +0.005 A 
ENDBRANCH  16  17
ENDBRANCH  11  16
ENDBRANCH   5  12
ENDBRANCH   1  10
BRANCH   2  23
ATOM     23  C   UNL     1       2.839   1.438   0.034  0.00  0.00    +0.222 C 
BRANCH  23  24
ATOM     24  N   UNL     1       2.084   2.691   0.110  0.00  0.00    -0.290 N 
ATOM     25  C   UNL     1       0.737   2.667  -0.059  0.00  0.00    +0.203 A 
ATOM     26  N   UNL     1       0.029   3.763  -0.003  0.00  0.00    -0.230 NA
ATOM     27  C   UNL     1       0.606   4.939   0.231  0.00  0.00    +0.116 A 
ATOM     28  C   UNL     1       1.992   5.063   0.419  0.00  0.00    +0.076 A 
ATOM     29  C   UNL     1       2.740   3.842   0.346  0.00  0.00    +0.263 A 
ATOM     30  O   UNL     1       3.949   3.847   0.496  0.00  0.00    -0.267 OA
ATOM     31  C   UNL     1       2.486   6.418   0.663  0.00  0.00    -0.023 A 
ATOM     32  C   UNL     1       1.570   7.409   0.684  0.00  0.00    -0.004 A 
ATOM     33  S   UNL     1       0.018   6.606   0.384  0.00  0.00    -0.073 S 
ATOM     34  C   UNL     1       1.817   8.868   0.912  0.00  0.00    +0.043 C 
ATOM     35  C   UNL     1       3.230   9.035   1.491  0.00  0.00    +0.005 C 
ATOM     36  C   UNL     1       4.206   8.210   0.648  0.00  0.00    +0.005 C 
ATOM     37  C   UNL     1       3.965   6.718   0.885  0.00  0.00    +0.037 C 
ENDBRANCH  23  24
ENDBRANCH   2  23
TORSDOF 6
