REMARK  Name = ZINC15709181
REMARK  8 active torsions:
REMARK  status: ('A' for Active; 'I' for Inactive)
REMARK    1  A    between atoms: C_3  and  N_9
REMARK    2  A    between atoms: C_6  and  C_7
REMARK    3  A    between atoms: N_9  and  C_10
REMARK    4  A    between atoms: C_10  and  N_12
REMARK    5  A    between atoms: N_12  and  C_13
REMARK    6  A    between atoms: C_23  and  O_25
REMARK    7  A    between atoms: O_25  and  C_26
REMARK    8  A    between atoms: N_28  and  C_29
REMARK                            x       y       z     vdW  Elec       q    Type
REMARK                         _______ _______ _______ _____ _____    ______ ____
ROOT
ATOM      1  C   UNL     1      -2.433   1.729   0.577  0.00  0.00    +0.129 C 
ATOM      2  C   UNL     1      -2.676   1.658   2.100  0.00  0.00    +0.185 C 
ATOM      3  O   UNL     1      -4.103   1.813   2.254  0.00  0.00    -0.368 OA
ATOM      4  C   UNL     1      -4.485   2.832   1.307  0.00  0.00    +0.192 C 
ATOM      5  C   UNL     1      -3.637   2.531   0.038  0.00  0.00    +0.173 C 
ATOM      6  O   UNL     1      -4.461   1.652  -0.754  0.00  0.00    -0.368 OA
ATOM      7  C   UNL     1      -5.805   2.163  -0.629  0.00  0.00    +0.207 C 
ATOM      8  C   UNL     1      -5.937   2.567   0.855  0.00  0.00    +0.235 C 
ENDROOT
BRANCH   1   9
ATOM      9  N   UNL     1      -1.180   2.431   0.290  0.00  0.00    -0.319 N 
ATOM     10  H   UNL     1      -1.188   3.385   0.112  0.00  0.00    +0.148 HD
BRANCH   9  11
ATOM     11  C   UNL     1      -0.016   1.752   0.273  0.00  0.00    +0.135 C 
ATOM     12  S   UNL     1      -0.002   0.070   0.587  0.00  0.00    -0.019 S 
BRANCH  11  13
ATOM     13  N   UNL     1       1.137   2.397   0.004  0.00  0.00    -0.297 N 
ATOM     14  H   UNL     1       1.121   3.333  -0.252  0.00  0.00    +0.154 HD
BRANCH  13  17
ATOM     15  C   UNL     1       4.532   1.250  -0.790  0.00  0.00    +0.020 A 
ATOM     16  C   UNL     1       3.330   1.917  -0.876  0.00  0.00    +0.024 A 
ATOM     17  C   UNL     1       2.353   1.720   0.094  0.00  0.00    +0.033 A 
ATOM     18  C   UNL     1       2.587   0.853   1.157  0.00  0.00    +0.024 A 
ATOM     19  C   UNL     1       3.784   0.178   1.246  0.00  0.00    +0.020 A 
ATOM     20  C   UNL     1       4.769   0.374   0.273  0.00  0.00    +0.052 A 
BRANCH  20  21
ATOM     21  C   UNL     1       6.017  -0.321   0.366  0.00  0.00    +0.099 C 
ATOM     22  N   UNL     1       7.008  -0.872   0.440  0.00  0.00    -0.191 NA
ENDBRANCH  20  21
ENDBRANCH  13  17
ENDBRANCH  11  13
ENDBRANCH   9  11
ENDBRANCH   1   9
BRANCH   8  23
ATOM     23  O   UNL     1      -6.521   1.486   1.629  0.00  0.00    -0.442 OA
BRANCH  23  24
ATOM     24  C   UNL     1      -7.852   1.526   1.828  0.00  0.00    +0.401 C 
ATOM     25  O   UNL     1      -8.508   2.440   1.368  0.00  0.00    -0.226 OA
ATOM     26  N   UNL     1      -8.457   0.553   2.537  0.00  0.00    -0.278 N 
ATOM     27  H   UNL     1      -7.933  -0.176   2.905  0.00  0.00    +0.152 HD
BRANCH  26  28
ATOM     28  C   UNL     1      -9.905   0.597   2.754  0.00  0.00    +0.076 C 
ATOM     29  C   UNL     1     -10.213   1.472   3.970  0.00  0.00    +0.022 C 
ATOM     30  C   UNL     1     -11.726   1.518   4.196  0.00  0.00    +0.002 C 
ATOM     31  C   UNL     1     -12.247   0.101   4.443  0.00  0.00    +0.000 C 
ATOM     32  C   UNL     1     -11.939  -0.775   3.227  0.00  0.00    +0.002 C 
ATOM     33  C   UNL     1     -10.427  -0.821   3.001  0.00  0.00    +0.022 C 
ENDBRANCH  26  28
ENDBRANCH  23  24
ENDBRANCH   8  23
TORSDOF 8
