REMARK  Name = ZINC15048403
REMARK  10 active torsions:
REMARK  status: ('A' for Active; 'I' for Inactive)
REMARK    1  A    between atoms: CB_1  and  CA_2
REMARK    2  A    between atoms: CA_2  and  C_4
REMARK    3  A    between atoms: CA_2  and  N_6
REMARK    4  A    between atoms: C_7  and  C_9
REMARK    5  A    between atoms: C_9  and  C_11
REMARK    6  A    between atoms: C_9  and  N_12
REMARK    7  A    between atoms: C_16  and  C_17
REMARK    8  A    between atoms: C_20  and  O_25
REMARK    9  A    between atoms: C_21  and  O_23
REMARK   10  A    between atoms: O_23  and  C_24
REMARK                            x       y       z     vdW  Elec       q    Type
REMARK                         _______ _______ _______ _____ _____    ______ ____
ROOT
ATOM      1  N   UNK A   0       3.541   1.551   0.857  0.00  0.00    -0.244 N 
ATOM      2  C   UNK A   0       2.488   0.826   0.519  0.00  0.00    +0.259 C 
ATOM      3  O   UNK A   0       2.568  -0.377   0.352  0.00  0.00    -0.269 OA
ATOM      4  C   UNK A   0       1.213   1.550   0.350  0.00  0.00    +0.077 C 
ATOM      5  C   UNK A   0      -0.013   1.076   0.008  0.00  0.00    +0.028 C 
ATOM      6  S   UNK A   0       1.724   3.221   0.728  0.00  0.00    -0.061 S 
ATOM      7  C   UNK A   0       3.447   2.882   1.049  0.00  0.00    +0.121 C 
ATOM      8  S   UNK A   0       4.681   3.982   1.493  0.00  0.00    -0.027 S 
ENDROOT
BRANCH   5   9
ATOM      9  C   UNK A   0      -1.184   1.960   0.064  0.00  0.00    -0.020 A 
ATOM     10  C   UNK A   0      -2.412   1.532  -0.455  0.00  0.00    +0.012 A 
ATOM     11  C   UNK A   0      -3.509   2.364  -0.400  0.00  0.00    +0.050 A 
ATOM     12  C   UNK A   0      -3.400   3.626   0.168  0.00  0.00    +0.158 A 
ATOM     13  C   UNK A   0      -2.181   4.059   0.687  0.00  0.00    +0.162 A 
ATOM     14  C   UNK A   0      -1.077   3.231   0.642  0.00  0.00    +0.057 A 
BRANCH  13  15
ATOM     15  O   UNK A   0      -2.080   5.297   1.242  0.00  0.00    -0.491 OA
ATOM     16  C   UNK A   0      -0.800   5.676   1.754  0.00  0.00    +0.277 C 
ENDBRANCH  13  15
BRANCH  12  17
ATOM     17  O   UNK A   0      -4.486   4.441   0.219  0.00  0.00    -0.503 OA
ATOM     18  H   UNK A   0      -5.016   4.341   1.022  0.00  0.00    +0.292 HD
ENDBRANCH  12  17
ENDBRANCH   5   9
BRANCH   1  19
ATOM     19  C   UNK A   0       4.838   0.892   1.034  0.00  0.00    +0.165 C 
ATOM     20  C   UNK A   0       5.326   1.105   2.468  0.00  0.00    +0.038 C 
BRANCH  19  22
ATOM     21  N   ALA A   1       7.104   1.025   0.053  0.00  0.00    -0.301 N 
ATOM     22  C   UNK A   0       5.836   1.480   0.071  0.00  0.00    +0.234 C 
ATOM     23  O   UNK A   0       5.498   2.362  -0.689  0.00  0.00    -0.274 OA
ATOM     24  H   ALA A   1       7.375   0.319   0.661  0.00  0.00    +0.150 HD
BRANCH  21  26
ATOM     25  CB  ALA A   1       7.957   0.888  -2.235  0.00  0.00    +0.040 C 
ATOM     26  CA  ALA A   1       8.075   1.597  -0.884  0.00  0.00    +0.183 C 
BRANCH  26  27
ATOM     27  C   ALA A   1       9.468   1.412  -0.339  0.00  0.00    +0.376 C 
ATOM     28  O   ALA A   1       9.633   0.860   0.723  0.00  0.00    -0.244 OA
ATOM     29  OXT ALA A   1      10.525   1.861  -1.033  0.00  0.00    -0.244 OA
ENDBRANCH  26  27
ENDBRANCH  21  26
ENDBRANCH  19  22
ENDBRANCH   1  19
TORSDOF 7
