REMARK  Name = ZINC36017283
REMARK  10 active torsions:
REMARK  status: ('A' for Active; 'I' for Inactive)
REMARK    1  A    between atoms: C_1  and  C_2
REMARK    2  A    between atoms: C_2  and  O_3
REMARK    3  A    between atoms: O_3  and  C_4
REMARK    4  A    between atoms: C_4  and  C_6
REMARK    5  A    between atoms: C_7  and  C_23
REMARK    6  A    between atoms: N_8  and  C_20
REMARK    7  A    between atoms: C_12  and  C_14
REMARK    8  A    between atoms: C_20  and  C_21
REMARK    9  A    between atoms: C_23  and  N_24
REMARK   10  A    between atoms: C_31  and  C_33
REMARK                            x       y       z     vdW  Elec       q    Type
REMARK                         _______ _______ _______ _____ _____    ______ ____
ROOT
ATOM      1  C   UNL     1       1.746  -1.445  -2.096  0.00  0.00    +0.080 C 
ATOM      2  C   UNL     1       1.891  -2.771  -2.307  0.00  0.00    +0.041 C 
ATOM      3  N   UNL     1       2.496  -3.243  -3.437  0.00  0.00    -0.254 N 
ATOM      4  C   UNL     1       2.983  -2.454  -4.403  0.00  0.00    +0.307 C 
ATOM      5  O   UNL     1       3.505  -2.967  -5.374  0.00  0.00    -0.252 OA
ATOM      6  N   UNL     1       2.912  -1.110  -4.335  0.00  0.00    -0.288 N 
ATOM      7  C   UNL     1       2.272  -0.500  -3.158  0.00  0.00    +0.144 C 
ATOM      8  H   UNL     1       3.272  -0.557  -5.047  0.00  0.00    +0.151 HD
ENDROOT
BRANCH   7   9
ATOM      9  C   UNL     1       3.278   0.414  -2.509  0.00  0.00    -0.022 A 
ATOM     10  C   UNL     1       4.571  -0.025  -2.289  0.00  0.00    +0.006 A 
ATOM     11  C   UNL     1       5.494   0.814  -1.694  0.00  0.00    +0.000 A 
ATOM     12  C   UNL     1       5.125   2.092  -1.318  0.00  0.00    +0.000 A 
ATOM     13  C   UNL     1       3.833   2.532  -1.538  0.00  0.00    +0.000 A 
ATOM     14  C   UNL     1       2.911   1.694  -2.138  0.00  0.00    +0.006 A 
ENDBRANCH   7   9
BRANCH   1  15
ATOM     15  C   UNL     1       1.119  -0.955  -0.926  0.00  0.00    +0.339 C 
ATOM     16  O   UNL     1       0.617  -1.731  -0.135  0.00  0.00    -0.245 OA
BRANCH  15  17
ATOM     17  O   UNL     1       1.079   0.372  -0.688  0.00  0.00    -0.462 OA
BRANCH  17  19
ATOM     18  C   UNL     1       0.485   2.323   0.609  0.00  0.00    +0.048 C 
ATOM     19  C   UNL     1       0.431   0.797   0.512  0.00  0.00    +0.229 C 
ENDBRANCH  17  19
ENDBRANCH  15  17
ENDBRANCH   1  15
BRANCH   3  20
ATOM     20  C   UNL     1       2.620  -4.693  -3.601  0.00  0.00    +0.141 C 
BRANCH  20  21
ATOM     21  C   UNL     1       1.462  -5.207  -4.416  0.00  0.00    -0.015 C 
ATOM     22  C   UNL     1       1.683  -5.855  -5.533  0.00  0.00    +0.005 C 
ENDBRANCH  20  21
ENDBRANCH   3  20
BRANCH   2  23
ATOM     23  C   UNL     1       1.378  -3.746  -1.279  0.00  0.00    +0.136 C 
BRANCH  23  24
ATOM     24  N   UNL     1       2.461  -4.091  -0.348  0.00  0.00    -0.295 NA
ATOM     25  C   UNL     1       2.190  -5.361   0.324  0.00  0.00    +0.086 C 
ATOM     26  C   UNL     1       3.494  -6.098   0.534  0.00  0.00    +0.034 C 
ATOM     27  C   UNL     1       4.067  -5.749   1.918  0.00  0.00    +0.109 C 
ATOM     28  N   UNL     1       3.884  -4.318   2.229  0.00  0.00    -0.296 N 
ATOM     29  C   UNL     1       4.098  -3.274   1.247  0.00  0.00    +0.123 C 
ATOM     30  C   UNL     1       2.779  -2.994   0.487  0.00  0.00    +0.103 C 
ATOM     31  C   UNL     1       3.504  -3.968   3.474  0.00  0.00    +0.253 C 
ATOM     32  O   UNL     1       3.432  -4.812   4.348  0.00  0.00    -0.269 OA
BRANCH  31  33
ATOM     33  C   UNL     1       3.177  -2.572   3.776  0.00  0.00    +0.074 A 
ATOM     34  C   UNL     1       2.897  -1.984   5.000  0.00  0.00    +0.021 A 
ATOM     35  C   UNL     1       2.623  -0.638   4.968  0.00  0.00    +0.008 A 
ATOM     36  C   UNL     1       2.644   0.010   3.777  0.00  0.00    +0.046 A 
ATOM     37  S   UNL     1       3.042  -1.184   2.665  0.00  0.00    -0.092 S 
ENDBRANCH  31  33
ENDBRANCH  23  24
ENDBRANCH   2  23
TORSDOF 9
