REMARK  Name = ZINC13625220
REMARK  5 active torsions:
REMARK  status: ('A' for Active; 'I' for Inactive)
REMARK    1  A    between atoms: C_3  and  N_12
REMARK    2  A    between atoms: C_5  and  O_7
REMARK    3  A    between atoms: O_7  and  C_8
REMARK    4  A    between atoms: C_13  and  C_15
REMARK    5  A    between atoms: C_15  and  C_16
REMARK                            x       y       z     vdW  Elec       q    Type
REMARK                         _______ _______ _______ _____ _____    ______ ____
ROOT
ATOM      1  N   UNL     1      -0.805   1.945   5.975  0.00  0.00    -0.285 N 
ATOM      2  C   UNL     1      -0.334   1.499   7.156  0.00  0.00    +0.216 C 
ATOM      3  O   UNL     1       0.665   0.812   7.191  0.00  0.00    -0.276 OA
ATOM      4  H   UNL     1      -1.558   2.556   5.952  0.00  0.00    +0.155 HD
ENDROOT
BRANCH   1   7
ATOM      5  C   UNL     1       0.916  -0.167   3.503  0.00  0.00    +0.005 A 
ATOM      6  C   UNL     1       0.326   0.247   4.682  0.00  0.00    +0.023 A 
ATOM      7  C   UNL     1      -0.208   1.526   4.781  0.00  0.00    +0.037 A 
ATOM      8  C   UNL     1      -0.144   2.388   3.696  0.00  0.00    +0.069 A 
ATOM      9  C   UNL     1       0.444   1.968   2.513  0.00  0.00    +0.132 A 
ATOM     10  C   UNL     1       0.976   0.689   2.420  0.00  0.00    +0.046 A 
BRANCH   9  11
ATOM     11  O   UNL     1       0.504   2.808   1.447  0.00  0.00    -0.406 OA
BRANCH  11  12
ATOM     12  C   UNL     1       1.129   2.310   0.262  0.00  0.00    +0.575 C 
ATOM     13  F   UNL     1       0.439   1.180  -0.189  0.00  0.00    -0.133 F 
ATOM     14  F   UNL     1       2.455   1.966   0.544  0.00  0.00    -0.133 F 
ATOM     15  F   UNL     1       1.104   3.298  -0.729  0.00  0.00    -0.133 F 
ENDBRANCH  11  12
ENDBRANCH   9  11
ENDBRANCH   1   7
BRANCH   2  16
ATOM     16  C   UNL     1      -1.049   1.855   8.435  0.00  0.00    +0.089 C 
BRANCH  16  17
ATOM     17  C   UNL     1      -0.314   1.228   9.621  0.00  0.00    +0.025 C 
ATOM     18  C   UNL     1      -1.099   1.473  10.878  0.00  0.00    +0.200 C 
ATOM     19  O   UNL     1      -2.303   1.327  10.850  0.00  0.00    -0.278 OA
ATOM     20  N   UNL     1      -0.525   1.848  12.029  0.00  0.00    -0.315 N 
ATOM     21  C   UNL     1       0.907   2.089  12.146  0.00  0.00    +0.059 C 
ATOM     22  C   UNL     1       1.432   1.611  13.495  0.00  0.00    +0.020 C 
ATOM     23  C   UNL     1       1.287   0.092  13.605  0.00  0.00    +0.002 C 
ATOM     24  C   UNL     1       2.084  -0.570  12.478  0.00  0.00    -0.001 C 
ATOM     25  C   UNL     1       1.524  -0.113  11.130  0.00  0.00    -0.014 C 
ATOM     26  C   UNL     1       1.654   1.407  11.002  0.00  0.00    -0.050 C 
ATOM     27  H   UNL     1      -1.084   1.963  12.813  0.00  0.00    +0.149 HD
ATOM     28  N   UNL     1       1.025   1.827   9.733  0.00  0.00    +0.390 N 
ATOM     29  H   UNL     1       0.943   2.850   9.715  0.00  0.00    -0.084 HD
ATOM     30  H   UNL     1       1.605   1.516   8.945  0.00  0.00    -0.084 HD
ENDBRANCH  16  17
ENDBRANCH   2  16
TORSDOF 5
