REMARK  Name = ZINC06321136
REMARK  7 active torsions:
REMARK  status: ('A' for Active; 'I' for Inactive)
REMARK    1  A    between atoms: C_1  and  C_2
REMARK    2  A    between atoms: C_6  and  C_15
REMARK    3  A    between atoms: C_13  and  C_14
REMARK    4  A    between atoms: C_15  and  C_17
REMARK    5  A    between atoms: C_15  and  N_60
REMARK    6  A    between atoms: N_21  and  C_22
REMARK    7  A    between atoms: C_22  and  C_23
REMARK                            x       y       z     vdW  Elec       q    Type
REMARK                         _______ _______ _______ _____ _____    ______ ____
ROOT
ATOM      1  C   UNL     1      -2.331  -0.863   1.881  0.00  0.00    +0.039 C 
ENDROOT
BRANCH   1   7
ATOM      2  C   UNL     1      -1.970   5.504   5.747  0.00  0.00    +0.044 C 
ATOM      3  C   UNL     1      -2.758   4.482   4.969  0.00  0.00    -0.047 A 
ATOM      4  C   UNL     1      -2.124   3.386   4.455  0.00  0.00    +0.013 A 
ATOM      5  C   UNL     1      -2.855   2.438   3.732  0.00  0.00    -0.001 A 
ATOM      6  C   UNL     1      -2.208   1.250   3.171  0.00  0.00    +0.017 A 
ATOM      7  C   UNL     1      -2.966   0.367   2.476  0.00  0.00    +0.011 A 
ATOM      8  C   UNL     1      -4.350   0.592   2.313  0.00  0.00    +0.251 A 
ATOM      9  O   UNL     1      -5.014  -0.217   1.689  0.00  0.00    -0.268 OA
ATOM     10  N   UNL     1      -4.954   1.677   2.829  0.00  0.00    -0.322 N 
ATOM     11  H   UNL     1      -5.907   1.801   2.698  0.00  0.00    +0.169 HD
ATOM     12  C   UNL     1      -4.238   2.615   3.542  0.00  0.00    +0.049 A 
ATOM     13  C   UNL     1      -4.862   3.738   4.075  0.00  0.00    +0.030 A 
ATOM     14  C   UNL     1      -4.122   4.661   4.782  0.00  0.00    -0.046 A 
ATOM     15  C   UNL     1      -4.800   5.876   5.360  0.00  0.00    +0.044 C 
ENDBRANCH   1   7
BRANCH   1  21
ATOM     16  C   UNL     1      -2.869  -2.056   3.917  0.00  0.00    -0.077 C 
ATOM     17  C   UNL     1      -3.655  -3.241   4.483  0.00  0.00    -0.019 C 
ATOM     18  C   UNL     1      -3.077  -4.544   3.924  0.00  0.00    -0.004 C 
ATOM     19  C   UNL     1      -3.137  -4.505   2.394  0.00  0.00    -0.019 C 
ATOM     20  C   UNL     1      -2.365  -3.284   1.890  0.00  0.00    -0.077 C 
ATOM     21  N   UNL     1      -2.986  -2.062   2.444  0.00  0.00    +0.389 N 
ATOM     22  H   UNL     1      -3.981  -2.049   2.189  0.00  0.00    -0.080 HD
ENDBRANCH   1  21
BRANCH   1  23
ATOM     23  C   UNL     1      -0.857  -0.869   2.195  0.00  0.00    +0.143 A 
ATOM     24  N   UNL     1      -0.307  -1.061   3.369  0.00  0.00    -0.115 NA
ATOM     25  N   UNL     1       0.971  -0.992   3.226  0.00  0.00    -0.023 NA
ATOM     26  N   UNL     1       1.252  -0.766   1.990  0.00  0.00    -0.044 NA
ATOM     27  N   UNL     1       0.151  -0.678   1.323  0.00  0.00    -0.226 N 
BRANCH  27  28
ATOM     28  C   UNL     1       0.023  -0.424  -0.114  0.00  0.00    +0.182 C 
BRANCH  28  29
ATOM     29  C   UNL     1       0.061   1.061  -0.367  0.00  0.00    -0.026 A 
ATOM     30  C   UNL     1      -1.118   1.772  -0.487  0.00  0.00    +0.008 A 
ATOM     31  C   UNL     1      -1.084   3.135  -0.715  0.00  0.00    +0.038 A 
ATOM     32  C   UNL     1       0.133   3.786  -0.833  0.00  0.00    +0.123 A 
ATOM     33  C   UNL     1       1.313   3.072  -0.718  0.00  0.00    +0.038 A 
ATOM     34  C   UNL     1       1.276   1.710  -0.485  0.00  0.00    +0.008 A 
ATOM     35  F   UNL     1       0.167   5.117  -1.060  0.00  0.00    -0.205 F 
ENDBRANCH  28  29
ENDBRANCH  27  28
ENDBRANCH   1  23
TORSDOF 5
