REMARK  Name = ZINC03241866
REMARK  10 active torsions:
REMARK  status: ('A' for Active; 'I' for Inactive)
REMARK    1  A    between atoms: C_1  and  O_2
REMARK    2  A    between atoms: O_2  and  C_3
REMARK    3  A    between atoms: C_6  and  N_29
REMARK    4  A    between atoms: C_8  and  N_9
REMARK    5  A    between atoms: C_10  and  C_12
REMARK    6  A    between atoms: C_12  and  O_13
REMARK    7  A    between atoms: O_13  and  C_14
REMARK    8  A    between atoms: C_14  and  C_16
REMARK    9  A    between atoms: C_16  and  S_17
REMARK   10  A    between atoms: S_17  and  C_18
REMARK                            x       y       z     vdW  Elec       q    Type
REMARK                         _______ _______ _______ _____ _____    ______ ____
ROOT
ATOM      1  C   UNL     1       4.214  11.685   0.037  0.00  0.00    +0.328 C 
ENDROOT
BRANCH   1   3
ATOM      2  N   UNL     1       5.942  13.455   0.013  0.00  0.00    -0.280 N 
ATOM      3  C   UNL     1       5.651  12.139   0.013  0.00  0.00    +0.255 C 
ATOM      4  O   UNL     1       6.545  11.319  -0.006  0.00  0.00    -0.272 OA
ATOM      5  H   UNL     1       5.229  14.109  -0.053  0.00  0.00    +0.155 HD
BRANCH   2  11
ATOM      6  C   UNL     1       7.649  15.124  -0.387  0.00  0.00    +0.141 A 
ATOM      7  C   UNL     1       8.968  15.537  -0.290  0.00  0.00    +0.050 A 
ATOM      8  C   UNL     1       9.910  14.712   0.296  0.00  0.00    +0.036 A 
ATOM      9  C   UNL     1       9.539  13.473   0.787  0.00  0.00    +0.128 A 
ATOM     10  C   UNL     1       8.224  13.057   0.700  0.00  0.00    +0.059 A 
ATOM     11  C   UNL     1       7.275  13.877   0.108  0.00  0.00    +0.078 A 
BRANCH   9  12
ATOM     12  N   UNL     1      10.552  12.595   1.415  0.00  0.00    +0.056 N 
ATOM     13  O   UNL     1      11.710  12.963   1.498  0.00  0.00    -0.126 OA
ATOM     14  O   UNL     1      10.227  11.504   1.848  0.00  0.00    -0.126 OA
ENDBRANCH   9  12
BRANCH   6  16
ATOM     15  C   UNL     1       7.178  17.200  -1.448  0.00  0.00    +0.277 C 
ATOM     16  O   UNL     1       6.722  15.935  -0.963  0.00  0.00    -0.493 OA
ENDBRANCH   6  16
ENDBRANCH   2  11
ENDBRANCH   1   3
BRANCH   1  17
ATOM     17  O   UNL     1       4.164  10.234   0.032  0.00  0.00    -0.455 OA
BRANCH  17  18
ATOM     18  C   UNL     1       2.949   9.666   0.052  0.00  0.00    +0.318 C 
ATOM     19  O   UNL     1       1.958  10.358   0.072  0.00  0.00    -0.250 OA
BRANCH  18  20
ATOM     20  C   UNL     1       2.818   8.164   0.049  0.00  0.00    +0.194 C 
BRANCH  20  21
ATOM     21  S   UNL     1       1.062   7.710   0.078  0.00  0.00    -0.113 S 
BRANCH  21  22
ATOM     22  C   UNL     1       1.078   5.948   0.071  0.00  0.00    +0.023 A 
ATOM     23  C   UNL     1       2.301   5.266   0.046  0.00  0.00    +0.016 A 
ATOM     24  C   UNL     1       2.343   3.907   0.041  0.00  0.00    +0.009 A 
ATOM     25  C   UNL     1       1.147   3.168   0.059  0.00  0.00    -0.017 A 
ATOM     26  C   UNL     1       1.160   1.763   0.053  0.00  0.00    +0.008 A 
ATOM     27  C   UNL     1      -0.015   1.077   0.071  0.00  0.00    +0.001 A 
ATOM     28  C   UNL     1      -1.237   1.747   0.089  0.00  0.00    +0.001 A 
ATOM     29  C   UNL     1      -1.290   3.107   0.102  0.00  0.00    +0.009 A 
ATOM     30  C   UNL     1      -0.096   3.850   0.084  0.00  0.00    -0.003 A 
ATOM     31  C   UNL     1      -0.114   5.254   0.090  0.00  0.00    +0.039 A 
ATOM     32 BR   UNL     1      -1.758   6.187   0.122  0.00  0.00    -0.049 Br
ENDBRANCH  21  22
ENDBRANCH  20  21
ENDBRANCH  18  20
ENDBRANCH  17  18
ENDBRANCH   1  17
TORSDOF 9
