REMARK  Name = ZINC06396063
REMARK  5 active torsions:
REMARK  status: ('A' for Active; 'I' for Inactive)
REMARK    1  A    between atoms: C_1  and  C_2
REMARK    2  A    between atoms: C_2  and  C_3
REMARK    3  A    between atoms: C_3  and  N_5
REMARK    4  A    between atoms: C_11  and  C_12
REMARK    5  A    between atoms: C_15  and  C_17
REMARK                            x       y       z     vdW  Elec       q    Type
REMARK                         _______ _______ _______ _____ _____    ______ ____
ROOT
ATOM      1  N   UNL     1       2.068   4.150   0.003  0.00  0.00    -0.159 NA
ATOM      2  C   UNL     1       1.056   3.289   0.009  0.00  0.00    +0.158 C 
ATOM      3  N   UNL     1       1.104   1.921   0.002  0.00  0.00    -0.262 N 
ATOM      4  C   UNL     1      -0.014   1.214   0.009  0.00  0.00    +0.256 C 
ATOM      5  O   UNL     1       0.002  -0.004   0.002  0.00  0.00    -0.269 OA
ATOM      6  C   UNL     1      -1.240   1.943   0.018  0.00  0.00    +0.081 C 
ATOM      7  C   UNL     1      -2.534   1.475   0.022  0.00  0.00    +0.066 C 
ATOM      8  S   UNL     1      -0.646   3.627   0.027  0.00  0.00    -0.051 S 
ATOM      9  H   UNL     1       2.075   1.405  -0.010  0.00  0.00    +0.157 HD
ENDROOT
BRANCH   7  10
ATOM     10  C   UNL     1      -3.612   2.383   0.032  0.00  0.00    +0.130 A 
ATOM     11  C   UNL     1      -4.955   2.048   0.030  0.00  0.00    +0.050 A 
ATOM     12  C   UNL     1      -5.671   3.248   0.046  0.00  0.00    +0.050 A 
ATOM     13  C   UNL     1      -4.746   4.268   0.047  0.00  0.00    +0.138 A 
ATOM     14  O   UNL     1      -3.514   3.729   0.038  0.00  0.00    -0.455 OA
BRANCH  13  15
ATOM     15  C   UNL     1      -5.056   5.710   0.055  0.00  0.00    +0.052 A 
ATOM     16  C   UNL     1      -5.962   6.240  -0.867  0.00  0.00    +0.014 A 
ATOM     17  C   UNL     1      -6.250   7.588  -0.851  0.00  0.00    +0.001 A 
ATOM     18  C   UNL     1      -5.636   8.420   0.070  0.00  0.00    +0.003 A 
ATOM     19  C   UNL     1      -4.734   7.907   0.984  0.00  0.00    +0.039 A 
ATOM     20  C   UNL     1      -4.439   6.556   0.983  0.00  0.00    +0.134 A 
ATOM     21  F   UNL     1      -3.557   6.055   1.876  0.00  0.00    -0.205 F 
ENDBRANCH  13  15
ENDBRANCH   7  10
BRANCH   1  22
ATOM     22  C   UNL     1       3.321   3.704  -0.011  0.00  0.00    +0.238 C 
ATOM     23  O   UNL     1       3.540   2.508  -0.019  0.00  0.00    -0.274 OA
BRANCH  22  25
ATOM     24  C   UNL     1       5.792   3.912  -0.035  0.00  0.00    +0.013 C 
ATOM     25  C   UNL     1       4.469   4.681  -0.018  0.00  0.00    +0.094 C 
ENDBRANCH  22  25
ENDBRANCH   1  22
TORSDOF 4
