REMARK  Name = ZINC28524322
REMARK  11 active torsions:
REMARK  status: ('A' for Active; 'I' for Inactive)
REMARK    1  A    between atoms: C_1  and  C_2
REMARK    2  A    between atoms: C_2  and  C_4
REMARK    3  A    between atoms: C_2  and  N_13
REMARK    4  A    between atoms: C_9  and  C_10
REMARK    5  A    between atoms: C_10  and  N_11
REMARK    6  A    between atoms: C_14  and  C_16
REMARK    7  A    between atoms: C_16  and  C_17
REMARK    8  A    between atoms: C_21  and  N_24
REMARK    9  A    between atoms: N_24  and  C_25
REMARK   10  A    between atoms: C_25  and  C_26
REMARK   11  A    between atoms: C_26  and  C_27
REMARK                            x       y       z     vdW  Elec       q    Type
REMARK                         _______ _______ _______ _____ _____    ______ ____
ROOT
ATOM      1  C   UNL     1      -3.444  -6.387   0.001  0.00  0.00    +0.091 A 
ATOM      2  C   UNL     1      -2.276  -7.127  -0.015  0.00  0.00    +0.064 A 
ATOM      3  C   UNL     1      -1.054  -6.468  -0.023  0.00  0.00    +0.025 A 
ATOM      4  C   UNL     1      -1.050  -5.083  -0.015  0.00  0.00    +0.046 A 
ATOM      5  C   UNL     1      -2.262  -4.403   0.000  0.00  0.00    +0.140 A 
ATOM      6  N   UNL     1      -3.408  -5.067   0.013  0.00  0.00    -0.121 N 
ATOM      7  O   UNL     1      -4.625  -4.344   0.035  0.00  0.00    -0.162 OA
ATOM      8 CL   UNL     1      -2.337  -8.862  -0.024  0.00  0.00    -0.082 Cl
ENDROOT
BRANCH   5   9
ATOM      9  N   UNL     1      -2.271  -3.010   0.008  0.00  0.00    -0.322 N 
ATOM     10  H   UNL     1      -3.228  -2.467   0.020  0.00  0.00    +0.148 HD
BRANCH   9  11
ATOM     11  C   UNL     1      -1.008  -2.269  -0.001  0.00  0.00    +0.185 C 
BRANCH  11  12
ATOM     12  C   UNL     1      -1.298  -0.767   0.010  0.00  0.00    +0.305 C 
ATOM     13  F   UNL     1      -2.023  -0.440   1.161  0.00  0.00    -0.197 F 
ATOM     14  F   UNL     1      -2.045  -0.428  -1.123  0.00  0.00    -0.197 F 
BRANCH  12  15
ATOM     15  C   UNL     1       0.002  -0.004   0.002  0.00  0.00    +0.111 A 
ATOM     16  C   UNL     1      -0.017   1.378   0.010  0.00  0.00    +0.029 A 
ATOM     17  C   UNL     1       1.185   2.070   0.002  0.00  0.00    +0.003 A 
ATOM     18  C   UNL     1       2.365   1.343  -0.013  0.00  0.00    +0.020 A 
ATOM     19  C   UNL     1       2.305  -0.038  -0.020  0.00  0.00    +0.111 A 
ATOM     20  N   UNL     1       1.144  -0.663  -0.012  0.00  0.00    -0.254 NA
ENDBRANCH  12  15
ENDBRANCH  11  12
ENDBRANCH   9  11
ENDBRANCH   5   9
BRANCH   1  21
ATOM     21  C   UNL     1      -4.774  -7.096   0.009  0.00  0.00    +0.154 C 
BRANCH  21  23
ATOM     22  N   UNL     1      -6.402  -7.946  -1.647  0.00  0.00    -0.308 N 
ATOM     23  C   UNL     1      -5.231  -7.324  -1.408  0.00  0.00    +0.219 C 
ATOM     24  O   UNL     1      -4.544  -6.949  -2.335  0.00  0.00    -0.275 OA
ATOM     25  H   UNL     1      -7.025  -8.287  -0.806  0.00  0.00    +0.149 HD
BRANCH  22  27
ATOM     26  C   UNL     1      -7.572  -6.921  -3.534  0.00  0.00    +0.033 C 
ATOM     27  C   UNL     1      -6.846  -8.168  -3.025  0.00  0.00    +0.100 C 
BRANCH  27  28
ATOM     28  C   UNL     1      -7.784  -9.348  -3.067  0.00  0.00    -0.025 A 
ATOM     29  C   UNL     1      -8.492  -9.708  -1.935  0.00  0.00    +0.025 A 
ATOM     30  C   UNL     1      -9.355 -10.788  -1.975  0.00  0.00    +0.041 A 
ATOM     31  C   UNL     1      -9.502 -11.513  -3.144  0.00  0.00    +0.020 A 
ATOM     32  C   UNL     1      -8.790 -11.155  -4.274  0.00  0.00    +0.003 A 
ATOM     33  C   UNL     1      -7.931 -10.072  -4.234  0.00  0.00    -0.060 A 
ATOM     34 CL   UNL     1     -10.250 -11.237  -0.557  0.00  0.00    -0.084 Cl
BRANCH  33  35
ATOM     35  C   UNL     1      -7.154  -9.682  -5.466  0.00  0.00    -0.050 C 
BRANCH  35  36
ATOM     36  N   UNL     1      -5.782 -10.197  -5.362  0.00  0.00    +0.381 N 
ATOM     37  H   UNL     1      -5.215  -9.913  -6.261  0.00  0.00    -0.090 HD
ATOM     38  H   UNL     1      -5.808 -11.294  -5.277  0.00  0.00    -0.090 HD
ATOM     39  H   UNL     1      -5.297  -9.771  -4.472  0.00  0.00    -0.090 HD
ENDBRANCH  35  36
ENDBRANCH  33  35
ENDBRANCH  27  28
ENDBRANCH  22  27
ENDBRANCH  21  23
ENDBRANCH   1  21
TORSDOF 10
