REMARK  Name = ZINC05446106
REMARK  6 active torsions:
REMARK  status: ('A' for Active; 'I' for Inactive)
REMARK    1  A    between atoms: C_1  and  C_2
REMARK    2  A    between atoms: C_5  and  C_8
REMARK    3  A    between atoms: C_8  and  C_10
REMARK    4  A    between atoms: N_14  and  C_24
REMARK    5  A    between atoms: C_15  and  C_17
REMARK    6  A    between atoms: C_27  and  O_30
REMARK                            x       y       z     vdW  Elec       q    Type
REMARK                         _______ _______ _______ _____ _____    ______ ____
ROOT
ATOM      1  C   UNL     1       2.792   1.007  -1.370  0.00  0.00    +0.077 C 
ATOM      2  C   UNL     1       4.027   1.519  -1.153  0.00  0.00    +0.250 C 
ATOM      3  C   UNL     1       4.052   2.182   0.167  0.00  0.00    +0.292 C 
ATOM      4  O   UNL     1       5.018   2.739   0.650  0.00  0.00    -0.266 OA
ATOM      5  N   UNL     1       2.847   2.079   0.757  0.00  0.00    -0.253 N 
ATOM      6  C   UNL     1       1.962   1.339  -0.151  0.00  0.00    +0.150 C 
ATOM      7  O   UNL     1       5.071   1.437  -2.009  0.00  0.00    -0.282 OA
ENDROOT
BRANCH   6   8
ATOM      8  C   UNL     1       0.787   2.196  -0.543  0.00  0.00    -0.019 A 
ATOM      9  C   UNL     1      -0.475   1.638  -0.634  0.00  0.00    +0.006 A 
ATOM     10  C   UNL     1      -1.554   2.422  -0.999  0.00  0.00    +0.003 A 
ATOM     11  C   UNL     1      -1.373   3.767  -1.262  0.00  0.00    +0.038 A 
ATOM     12  C   UNL     1      -0.111   4.327  -1.170  0.00  0.00    +0.124 A 
ATOM     13  C   UNL     1       0.970   3.539  -0.810  0.00  0.00    +0.044 A 
ATOM     14  F   UNL     1       0.068   5.640  -1.432  0.00  0.00    -0.205 F 
ENDBRANCH   6   8
BRANCH   5  15
ATOM     15  C   UNL     1       2.498   2.588   2.012  0.00  0.00    +0.038 A 
ATOM     16  C   UNL     1       1.209   2.414   2.499  0.00  0.00    +0.027 A 
ATOM     17  C   UNL     1       0.867   2.911   3.741  0.00  0.00    +0.047 A 
ATOM     18  C   UNL     1       1.808   3.595   4.497  0.00  0.00    +0.117 A 
ATOM     19  C   UNL     1       3.094   3.774   4.010  0.00  0.00    +0.047 A 
ATOM     20  C   UNL     1       3.439   3.272   2.770  0.00  0.00    +0.027 A 
BRANCH  18  21
ATOM     21  O   UNL     1       1.469   4.090   5.717  0.00  0.00    -0.507 OA
ATOM     22  H   UNL     1       2.215   4.633   6.317  0.00  0.00    +0.292 HD
ENDBRANCH  18  21
ENDBRANCH   5  15
BRANCH   1  23
ATOM     23  C   UNL     1       2.347   0.272  -2.556  0.00  0.00    +0.195 C 
ATOM     24  O   UNL     1       2.311   0.827  -3.638  0.00  0.00    -0.287 OA
BRANCH  23  29
ATOM     25  C   UNL     1       0.767  -5.244  -2.101  0.00  0.00    +0.044 C 
ATOM     26  C   UNL     1       1.181  -3.800  -2.220  0.00  0.00    -0.050 A 
ATOM     27  C   UNL     1       1.029  -3.137  -3.426  0.00  0.00    +0.004 A 
ATOM     28  C   UNL     1       1.405  -1.815  -3.542  0.00  0.00    +0.012 A 
ATOM     29  C   UNL     1       1.940  -1.145  -2.439  0.00  0.00    +0.022 A 
ATOM     30  C   UNL     1       2.095  -1.821  -1.227  0.00  0.00    +0.012 A 
ATOM     31  C   UNL     1       1.710  -3.142  -1.124  0.00  0.00    +0.004 A 
ENDBRANCH  23  29
ENDBRANCH   1  23
TORSDOF 5
