REMARK  Name = ZINC15306562
REMARK  5 active torsions:
REMARK  status: ('A' for Active; 'I' for Inactive)
REMARK    1  A    between atoms: C_1  and  C_2
REMARK    2  A    between atoms: C_2  and  C_3
REMARK    3  A    between atoms: N_11  and  C_14
REMARK    4  A    between atoms: N_32  and  C_35
REMARK    5  A    between atoms: C_35  and  C_36
REMARK                            x       y       z     vdW  Elec       q    Type
REMARK                         _______ _______ _______ _____ _____    ______ ____
ROOT
ATOM      1  C   UNL     1       6.581   3.985  -1.172  0.00  0.00    +0.067 C 
ATOM      2  C   UNL     1       5.309   3.389  -0.729  0.00  0.00    +0.107 C 
ATOM      3  C   UNL     1       5.716   2.776   0.671  0.00  0.00    +0.123 C 
ATOM      4  C   UNL     1       4.312   2.454   1.111  0.00  0.00    +0.233 C 
ATOM      5  O   UNL     1       3.867   2.509   2.237  0.00  0.00    -0.274 OA
ATOM      6  N   UNL     1       3.643   2.086  -0.022  0.00  0.00    -0.209 N 
ATOM      7  C   UNL     1       4.295   2.465  -1.169  0.00  0.00    +0.232 C 
ATOM      8  O   UNL     1       4.067   2.102  -2.304  0.00  0.00    -0.274 OA
ATOM      9  C   UNL     1       6.403   4.019   1.233  0.00  0.00    +0.136 C 
ATOM     10  N   UNL     1       7.053   4.684   0.075  0.00  0.00    -0.295 NA
ATOM     11  C   UNL     1       7.423   3.663   2.280  0.00  0.00    +0.004 A 
ATOM     12  C   UNL     1       8.537   2.855   2.280  0.00  0.00    +0.008 A 
ATOM     13  C   UNL     1       9.299   2.726   3.428  0.00  0.00    +0.000 A 
ATOM     14  C   UNL     1       8.937   3.410   4.574  0.00  0.00    +0.002 A 
ATOM     15  C   UNL     1       7.821   4.220   4.579  0.00  0.00    +0.024 A 
ATOM     16  C   UNL     1       7.049   4.357   3.427  0.00  0.00    +0.042 A 
ATOM     17  N   UNL     1       5.895   5.105   3.185  0.00  0.00    -0.265 N 
ATOM     18  C   UNL     1       5.452   4.961   1.921  0.00  0.00    +0.246 C 
ATOM     19  O   UNL     1       4.476   5.489   1.432  0.00  0.00    -0.273 OA
ATOM     20  H   UNL     1       8.148   4.602   0.150  0.00  0.00    +0.123 HD
ENDROOT
BRANCH   6  21
ATOM     21  C   UNL     1       2.423   1.401  -0.013  0.00  0.00    +0.052 A 
ATOM     22  C   UNL     1       2.399   0.024  -0.021  0.00  0.00    +0.024 A 
ATOM     23  C   UNL     1       1.191  -0.667  -0.013  0.00  0.00    +0.002 A 
ATOM     24  C   UNL     1       0.002  -0.004   0.002  0.00  0.00    +0.008 A 
ATOM     25  C   UNL     1      -0.017   1.401   0.010  0.00  0.00    -0.016 A 
ATOM     26  C   UNL     1       1.207   2.115   0.002  0.00  0.00    +0.004 A 
ATOM     27  C   UNL     1       1.186   3.519   0.009  0.00  0.00    +0.010 A 
ATOM     28  C   UNL     1      -0.007   4.175   0.022  0.00  0.00    +0.001 A 
ATOM     29  C   UNL     1      -1.211   3.474   0.030  0.00  0.00    +0.001 A 
ATOM     30  C   UNL     1      -1.229   2.113   0.019  0.00  0.00    +0.008 A 
ENDBRANCH   6  21
BRANCH   1  32
ATOM     31  C   UNL     1       7.698   5.490  -2.824  0.00  0.00    +0.005 C 
ATOM     32  C   UNL     1       6.350   4.986  -2.306  0.00  0.00    +0.016 C 
ENDBRANCH   1  32
BRANCH  17  33
ATOM     33  C   UNL     1       5.242   5.948   4.189  0.00  0.00    +0.148 C 
BRANCH  33  34
ATOM     34  C   UNL     1       5.817   7.339   4.128  0.00  0.00    -0.030 A 
ATOM     35  C   UNL     1       6.911   7.670   4.906  0.00  0.00    +0.005 A 
ATOM     36  C   UNL     1       7.442   8.944   4.846  0.00  0.00    +0.000 A 
ATOM     37  C   UNL     1       6.874   9.892   4.016  0.00  0.00    +0.000 A 
ATOM     38  C   UNL     1       5.777   9.563   3.241  0.00  0.00    +0.000 A 
ATOM     39  C   UNL     1       5.249   8.287   3.297  0.00  0.00    +0.005 A 
ENDBRANCH  33  34
ENDBRANCH  17  33
TORSDOF 4
