REMARK  Name = ZINC67218736
REMARK  5 active torsions:
REMARK  status: ('A' for Active; 'I' for Inactive)
REMARK    1  A    between atoms: C_6  and  C_7
REMARK    2  A    between atoms: C_7  and  N_8
REMARK    3  A    between atoms: C_9  and  C_11
REMARK    4  A    between atoms: C_11  and  N_12
REMARK    5  A    between atoms: N_20  and  C_23
REMARK                            x       y       z     vdW  Elec       q    Type
REMARK                         _______ _______ _______ _____ _____    ______ ____
ROOT
ATOM      1  N   UNL     1      -4.685  -2.873  -2.318  0.00  0.00    -0.284 N 
ATOM      2  C   UNL     1      -4.553  -4.099  -2.988  0.00  0.00    +0.066 A 
ATOM      3  C   UNL     1      -3.457  -4.950  -3.090  0.00  0.00    +0.034 A 
ATOM      4  C   UNL     1      -3.562  -6.095  -3.799  0.00  0.00    +0.048 A 
ATOM      5  S   UNL     1      -5.144  -6.091  -4.368  0.00  0.00    -0.090 S 
ATOM      6  C   UNL     1      -5.686  -4.557  -3.666  0.00  0.00    +0.101 A 
ATOM      7  C   UNL     1      -6.878  -3.826  -3.670  0.00  0.00    +0.275 A 
ATOM      8  O   UNL     1      -7.856  -4.241  -4.265  0.00  0.00    -0.266 OA
ATOM      9  N   UNL     1      -6.928  -2.652  -3.001  0.00  0.00    -0.228 N 
ATOM     10  C   UNL     1      -5.848  -2.204  -2.340  0.00  0.00    +0.337 A 
ATOM     11  O   UNL     1      -5.924  -1.147  -1.743  0.00  0.00    -0.246 OA
ENDROOT
BRANCH   9  12
ATOM     12  C   UNL     1      -8.113  -1.904  -2.992  0.00  0.00    +0.060 A 
ATOM     13  C   UNL     1      -9.059  -2.112  -1.997  0.00  0.00    +0.065 A 
ATOM     14  C   UNL     1     -10.228  -1.372  -1.990  0.00  0.00    +0.128 A 
ATOM     15  C   UNL     1     -10.455  -0.424  -2.974  0.00  0.00    +0.076 A 
ATOM     16  C   UNL     1      -9.512  -0.215  -3.966  0.00  0.00    +0.128 A 
ATOM     17  C   UNL     1      -8.340  -0.949  -3.974  0.00  0.00    +0.065 A 
ATOM     18  F   UNL     1      -9.736   0.710  -4.925  0.00  0.00    -0.205 F 
ATOM     19  F   UNL     1     -11.149  -1.574  -1.022  0.00  0.00    -0.205 F 
ENDBRANCH   9  12
BRANCH   1  20
ATOM     20  C   UNL     1      -3.544  -2.322  -1.583  0.00  0.00    +0.222 C 
BRANCH  20  22
ATOM     21  N   UNL     1      -2.614  -2.445   0.706  0.00  0.00    -0.310 N 
ATOM     22  C   UNL     1      -3.573  -2.824  -0.162  0.00  0.00    +0.233 C 
ATOM     23  O   UNL     1      -4.459  -3.568   0.201  0.00  0.00    -0.274 OA
ATOM     24  H   UNL     1      -1.905  -1.850   0.416  0.00  0.00    +0.149 HD
BRANCH  21  25
ATOM     25  C   UNL     1      -2.642  -2.933   2.087  0.00  0.00    +0.139 C 
BRANCH  25  31
ATOM     26  C   UNL     1      -1.594  -1.162   3.510  0.00  0.00    +0.009 A 
ATOM     27  C   UNL     1      -0.520  -0.638   4.206  0.00  0.00    +0.050 A 
ATOM     28  C   UNL     1       0.685  -1.319   4.236  0.00  0.00    +0.166 A 
ATOM     29  C   UNL     1       0.812  -2.533   3.564  0.00  0.00    +0.167 A 
ATOM     30  C   UNL     1      -0.267  -3.052   2.869  0.00  0.00    +0.054 A 
ATOM     31  C   UNL     1      -1.468  -2.366   2.844  0.00  0.00    -0.027 A 
ATOM     32  O   UNL     1       2.082  -3.000   3.744  0.00  0.00    -0.453 OA
ATOM     33  C   UNL     1       2.850  -1.865   4.189  0.00  0.00    +0.466 C 
ATOM     34  O   UNL     1       1.876  -1.026   4.836  0.00  0.00    -0.453 OA
ENDBRANCH  25  31
ENDBRANCH  21  25
ENDBRANCH  20  22
ENDBRANCH   1  20
TORSDOF 5
