REMARK  Name = ZINC24961049
REMARK  10 active torsions:
REMARK  status: ('A' for Active; 'I' for Inactive)
REMARK    1  A    between atoms: C_1  and  C_2
REMARK    2  A    between atoms: C_4  and  C_34
REMARK    3  A    between atoms: C_5  and  N_9
REMARK    4  A    between atoms: C_6  and  C_8
REMARK    5  A    between atoms: C_10  and  C_12
REMARK    6  A    between atoms: C_12  and  N_13
REMARK    7  A    between atoms: C_14  and  C_16
REMARK    8  A    between atoms: C_16  and  N_17
REMARK    9  A    between atoms: C_20  and  C_24
REMARK   10  A    between atoms: C_20  and  C_25
REMARK                            x       y       z     vdW  Elec       q    Type
REMARK                         _______ _______ _______ _____ _____    ______ ____
ROOT
ATOM      1  C   UNL     1      -1.082  -2.572  -1.021  0.00  0.00    +0.213 C 
ENDROOT
BRANCH   1   2
ATOM      2  N   UNL     1      -1.387  -1.140  -0.969  0.00  0.00    -0.215 N 
ATOM      3  C   UNL     1      -0.734  -0.255  -0.190  0.00  0.00    +0.251 C 
ATOM      4  O   UNL     1       0.183  -0.484   0.569  0.00  0.00    -0.272 OA
ATOM      5  C   UNL     1      -1.383   1.087  -0.462  0.00  0.00    +0.135 C 
ATOM      6  N   UNL     1      -2.425   0.773  -1.455  0.00  0.00    -0.281 N 
ATOM      7  C   UNL     1      -2.349  -0.550  -1.687  0.00  0.00    +0.310 C 
ATOM      8  O   UNL     1      -3.073  -1.143  -2.462  0.00  0.00    -0.252 OA
ATOM      9  C   UNL     1      -2.010   1.651   0.815  0.00  0.00    +0.047 C 
ATOM     10  H   UNL     1      -3.071   1.573  -1.847  0.00  0.00    +0.152 HD
BRANCH   5  11
ATOM     11  C   UNL     1      -0.380   2.056  -1.034  0.00  0.00    -0.015 A 
ATOM     12  C   UNL     1       0.938   2.012  -0.620  0.00  0.00    +0.006 A 
ATOM     13  C   UNL     1       1.857   2.896  -1.149  0.00  0.00    +0.004 A 
ATOM     14  C   UNL     1       1.460   3.836  -2.087  0.00  0.00    -0.044 A 
ATOM     15  C   UNL     1       0.141   3.883  -2.497  0.00  0.00    -0.044 A 
ATOM     16  C   UNL     1      -0.778   2.992  -1.968  0.00  0.00    +0.010 A 
ATOM     17  C   UNL     1      -0.038   4.987  -3.517  0.00  0.00    +0.036 C 
ATOM     18  C   UNL     1       1.387   5.317  -4.009  0.00  0.00    +0.009 C 
ATOM     19  C   UNL     1       2.257   4.904  -2.804  0.00  0.00    +0.036 C 
ENDBRANCH   5  11
ENDBRANCH   1   2
BRANCH   1  21
ATOM     20  N   UNL     1       0.389  -4.081  -2.318  0.00  0.00    -0.305 N 
ATOM     21  C   UNL     1      -0.048  -2.827  -2.088  0.00  0.00    +0.231 C 
ATOM     22  O   UNL     1       0.390  -1.903  -2.740  0.00  0.00    -0.274 OA
ATOM     23  H   UNL     1      -0.009  -4.919  -1.726  0.00  0.00    +0.149 HD
BRANCH  20  24
ATOM     24  C   UNL     1       1.393  -4.328  -3.355  0.00  0.00    +0.200 C 
BRANCH  24  26
ATOM     25  N   UNL     1       2.610  -6.266  -4.295  0.00  0.00    -0.284 N 
ATOM     26  C   UNL     1       1.707  -5.801  -3.409  0.00  0.00    +0.234 C 
ATOM     27  O   UNL     1       1.147  -6.569  -2.655  0.00  0.00    -0.274 OA
ATOM     28  H   UNL     1       3.075  -5.579  -5.018  0.00  0.00    +0.155 HD
BRANCH  25  33
ATOM     29  C   UNL     1       4.019 -11.761  -4.292  0.00  0.00    +0.044 C 
ATOM     30  C   UNL     1       3.645 -10.302  -4.293  0.00  0.00    -0.050 A 
ATOM     31  C   UNL     1       3.242  -9.693  -5.468  0.00  0.00    +0.008 A 
ATOM     32  C   UNL     1       2.899  -8.355  -5.471  0.00  0.00    -0.029 A 
ATOM     33  C   UNL     1       2.958  -7.621  -4.294  0.00  0.00    +0.039 A 
ATOM     34  C   UNL     1       3.368  -8.234  -3.117  0.00  0.00    -0.029 A 
ATOM     35  C   UNL     1       3.704  -9.573  -3.119  0.00  0.00    +0.008 A 
ATOM     36  C   UNL     1       3.440  -7.440  -1.839  0.00  0.00    +0.045 C 
ATOM     37  C   UNL     1       2.461  -7.693  -6.752  0.00  0.00    +0.045 C 
ENDBRANCH  25  33
ENDBRANCH  24  26
ENDBRANCH  20  24
ENDBRANCH   1  21
TORSDOF 6
