REMARK  Name = ZINC39449464
REMARK  6 active torsions:
REMARK  status: ('A' for Active; 'I' for Inactive)
REMARK    1  A    between atoms: C_1  and  C_2
REMARK    2  A    between atoms: C_2  and  C_3
REMARK    3  A    between atoms: C_2  and  S_4
REMARK    4  A    between atoms: S_4  and  C_7
REMARK    5  A    between atoms: C_20  and  C_23
REMARK    6  A    between atoms: C_28  and  O_29
REMARK                            x       y       z     vdW  Elec       q    Type
REMARK                         _______ _______ _______ _____ _____    ______ ____
ROOT
ATOM      1  C   UNL     1      -1.614  -2.697  -0.623  0.00  0.00    +0.107 A 
ATOM      2  C   UNL     1      -1.484  -3.616  -1.649  0.00  0.00    +0.044 A 
ATOM      3  C   UNL     1      -1.332  -4.961  -1.309  0.00  0.00    +0.069 A 
ATOM      4  C   UNL     1      -1.318  -5.329   0.054  0.00  0.00    +0.099 A 
ATOM      5  C   UNL     1      -1.156  -6.752   0.386  0.00  0.00    +0.082 A 
ATOM      6  C   UNL     1      -1.027  -7.683  -0.627  0.00  0.00    +0.122 A 
ATOM      7  N   UNL     1      -1.042  -7.293  -1.960  0.00  0.00    -0.237 N 
ATOM      8  C   UNL     1      -1.186  -6.008  -2.330  0.00  0.00    +0.271 A 
ATOM      9  O   UNL     1      -1.195  -5.711  -3.510  0.00  0.00    -0.266 OA
ATOM     10 BR   UNL     1      -0.859  -8.585  -3.271  0.00  0.00    +0.058 Br
ATOM     11  C   UNL     1      -0.883  -9.053  -0.308  0.00  0.00    +0.184 C 
ATOM     12  O   UNL     1      -0.721  -9.864  -1.197  0.00  0.00    -0.290 OA
ATOM     13  C   UNL     1      -0.927  -9.516   1.125  0.00  0.00    +0.108 C 
ATOM     14  C   UNL     1      -0.406  -8.399   2.036  0.00  0.00    +0.112 C 
ATOM     15  N   UNL     1      -1.128  -7.161   1.706  0.00  0.00    -0.333 N 
ATOM     16  N   UNL     1      -1.447  -4.405   0.997  0.00  0.00    -0.251 NA
ATOM     17  C   UNL     1      -1.586  -3.132   0.695  0.00  0.00    +0.138 A 
ATOM     18  H   UNL     1      -1.572  -6.645   2.396  0.00  0.00    +0.147 HD
ENDROOT
BRANCH  14  19
ATOM     19  C   UNL     1       1.071  -8.205   1.808  0.00  0.00    +0.014 A 
ATOM     20  C   UNL     1       1.519  -7.140   1.050  0.00  0.00    +0.009 A 
ATOM     21  C   UNL     1       2.873  -6.961   0.839  0.00  0.00    +0.001 A 
ATOM     22  C   UNL     1       3.783  -7.847   1.387  0.00  0.00    +0.004 A 
ATOM     23  C   UNL     1       3.341  -8.912   2.146  0.00  0.00    +0.046 A 
ATOM     24  C   UNL     1       1.982  -9.091   2.363  0.00  0.00    +0.122 A 
BRANCH  24  25
ATOM     25  O   UNL     1       1.544 -10.136   3.114  0.00  0.00    -0.506 OA
ATOM     26  H   UNL     1       1.371 -10.940   2.606  0.00  0.00    +0.292 HD
ENDBRANCH  24  25
ENDBRANCH  14  19
BRANCH   1  27
ATOM     27  S   UNL     1      -1.808  -0.984  -0.986  0.00  0.00    +0.001 S 
ATOM     28  O   UNL     1      -2.497  -0.450   0.137  0.00  0.00    -0.169 OA
ATOM     29  O   UNL     1      -2.397  -0.952  -2.279  0.00  0.00    -0.169 OA
BRANCH  27  31
ATOM     30  C   UNL     1      -0.168   1.190  -1.241  0.00  0.00    +0.032 C 
ATOM     31  C   UNL     1      -0.119  -0.327  -1.053  0.00  0.00    +0.130 C 
ATOM     32  C   UNL     1       0.608  -0.655   0.253  0.00  0.00    +0.032 C 
ENDBRANCH  27  31
ENDBRANCH   1  27
TORSDOF 4
