REMARK  Name = ZINC38635105
REMARK  7 active torsions:
REMARK  status: ('A' for Active; 'I' for Inactive)
REMARK    1  A    between atoms: C_1  and  C_2
REMARK    2  A    between atoms: C_4  and  S_9
REMARK    3  A    between atoms: S_9  and  N_12
REMARK    4  A    between atoms: N_24  and  C_25
REMARK    5  A    between atoms: C_25  and  C_26
REMARK    6  A    between atoms: C_26  and  C_27
REMARK    7  A    between atoms: C_27  and  C_28
REMARK                            x       y       z     vdW  Elec       q    Type
REMARK                         _______ _______ _______ _____ _____    ______ ____
ROOT
ATOM      1  N   UNL     1       1.593  -3.097  -3.288  0.00  0.00    -0.144 NA
ATOM      2  C   UNL     1       2.361  -2.107  -4.077  0.00  0.00    +0.140 C 
ATOM      3  C   UNL     1       3.830  -2.526  -3.814  0.00  0.00    +0.179 C 
ATOM      4  O   UNL     1       3.735  -3.968  -3.754  0.00  0.00    -0.356 OA
ATOM      5  C   UNL     1       2.494  -4.242  -3.083  0.00  0.00    +0.145 C 
ATOM      6  C   UNL     1       2.749  -4.435  -1.588  0.00  0.00    +0.072 C 
ATOM      7  C   UNL     1       1.418  -4.696  -0.876  0.00  0.00    +0.113 C 
ATOM      8  N   UNL     1       0.746  -5.828  -1.530  0.00  0.00    -0.285 N 
ATOM      9  C   UNL     1       0.525  -5.775  -2.981  0.00  0.00    +0.113 C 
ATOM     10  C   UNL     1       1.864  -5.504  -3.674  0.00  0.00    +0.072 C 
ATOM     11  C   UNL     1       0.341  -6.894  -0.811  0.00  0.00    +0.302 C 
ATOM     12  O   UNL     1       0.446  -6.886   0.400  0.00  0.00    -0.253 OA
ATOM     13  N   UNL     1      -0.181  -7.968  -1.436  0.00  0.00    -0.299 N 
ATOM     14  H   UNL     1      -0.334  -7.946  -2.393  0.00  0.00    +0.150 HD
ENDROOT
BRANCH   1  15
ATOM     15  S   UNL     1       0.038  -2.943  -2.740  0.00  0.00    +0.063 S 
ATOM     16  O   UNL     1      -0.244  -4.113  -1.984  0.00  0.00    -0.153 OA
ATOM     17  O   UNL     1      -0.748  -2.550  -3.857  0.00  0.00    -0.153 OA
BRANCH  15  21
ATOM     18  C   UNL     1      -0.193   2.175  -1.707  0.00  0.00    +0.047 C 
ATOM     19  C   UNL     1      -0.094   0.762  -1.192  0.00  0.00    -0.013 A 
ATOM     20  C   UNL     1      -0.075  -0.297  -2.080  0.00  0.00    +0.034 A 
ATOM     21  C   UNL     1       0.016  -1.593  -1.608  0.00  0.00    +0.106 A 
ATOM     22  C   UNL     1       0.089  -1.832  -0.248  0.00  0.00    +0.031 A 
ATOM     23  C   UNL     1       0.071  -0.774   0.641  0.00  0.00    +0.040 A 
ATOM     24  C   UNL     1      -0.015   0.525   0.170  0.00  0.00    +0.126 A 
ATOM     25  F   UNL     1      -0.027   1.560   1.038  0.00  0.00    -0.205 F 
ENDBRANCH  15  21
ENDBRANCH   1  15
BRANCH  13  26
ATOM     26  C   UNL     1      -0.517  -9.170  -0.669  0.00  0.00    +0.106 C 
BRANCH  26  27
ATOM     27  C   UNL     1      -1.087 -10.233  -1.610  0.00  0.00    +0.023 C 
BRANCH  27  28
ATOM     28  C   UNL     1      -1.438 -11.488  -0.808  0.00  0.00    +0.036 C 
BRANCH  28  29
ATOM     29  C   UNL     1      -2.000 -12.535  -1.735  0.00  0.00    -0.047 A 
ATOM     30  C   UNL     1      -3.360 -12.585  -1.978  0.00  0.00    +0.003 A 
ATOM     31  C   UNL     1      -3.876 -13.545  -2.829  0.00  0.00    +0.000 A 
ATOM     32  C   UNL     1      -3.031 -14.456  -3.436  0.00  0.00    +0.000 A 
ATOM     33  C   UNL     1      -1.671 -14.405  -3.193  0.00  0.00    +0.000 A 
ATOM     34  C   UNL     1      -1.155 -13.443  -2.347  0.00  0.00    +0.003 A 
ENDBRANCH  28  29
ENDBRANCH  27  28
ENDBRANCH  26  27
ENDBRANCH  13  26
TORSDOF 6
