REMARK  Name = ZINC44649514
REMARK  13 active torsions:
REMARK  status: ('A' for Active; 'I' for Inactive)
REMARK    1  A    between atoms: C_1  and  C_2
REMARK    2  A    between atoms: C_4  and  C_33
REMARK    3  A    between atoms: C_5  and  C_32
REMARK    4  A    between atoms: C_6  and  C_8
REMARK    5  A    between atoms: C_8  and  C_10
REMARK    6  A    between atoms: C_10  and  C_12
REMARK    7  A    between atoms: C_10  and  S_13
REMARK    8  A    between atoms: S_13  and  C_14
REMARK    9  A    between atoms: C_17  and  C_25
REMARK   10  A    between atoms: N_18  and  C_19
REMARK   11  A    between atoms: C_25  and  N_26
REMARK   12  A    between atoms: C_33  and  O_35
REMARK   13  A    between atoms: O_35  and  C_36
REMARK                            x       y       z     vdW  Elec       q    Type
REMARK                         _______ _______ _______ _____ _____    ______ ____
ROOT
ATOM      1  C   UNL     1       2.938  -1.741   6.177  0.00  0.00    +0.197 A 
ATOM      2  N   UNL     1       3.982  -1.398   5.459  0.00  0.00    -0.122 NA
ATOM      3  N   UNL     1       5.008  -1.253   6.220  0.00  0.00    -0.135 NA
ATOM      4  C   UNL     1       4.684  -1.493   7.460  0.00  0.00    +0.122 A 
ATOM      5  N   UNL     1       3.352  -1.807   7.479  0.00  0.00    -0.276 N 
ENDROOT
BRANCH   5   6
ATOM      6  C   UNL     1       2.574  -2.132   8.600  0.00  0.00    +0.050 A 
ATOM      7  C   UNL     1       2.341  -1.181   9.584  0.00  0.00    +0.026 A 
ATOM      8  C   UNL     1       1.574  -1.503  10.687  0.00  0.00    +0.002 A 
ATOM      9  C   UNL     1       1.039  -2.772  10.812  0.00  0.00    +0.000 A 
ATOM     10  C   UNL     1       1.270  -3.721   9.833  0.00  0.00    +0.002 A 
ATOM     11  C   UNL     1       2.031  -3.403   8.725  0.00  0.00    +0.026 A 
ENDBRANCH   5   6
BRANCH   1  12
ATOM     12  S   UNL     1       1.310  -2.050   5.578  0.00  0.00    -0.074 S 
BRANCH  12  13
ATOM     13  C   UNL     1       1.445  -1.793   3.787  0.00  0.00    +0.124 C 
ATOM     14  C   UNL     1       2.374  -2.852   3.188  0.00  0.00    +0.028 C 
BRANCH  13  15
ATOM     15  C   UNL     1       0.081  -1.909   3.158  0.00  0.00    +0.194 C 
ATOM     16  O   UNL     1      -0.782  -2.557   3.702  0.00  0.00    -0.289 OA
BRANCH  15  21
ATOM     17  C   UNL     1      -0.019   1.526   0.010  0.00  0.00    +0.038 C 
ATOM     18  C   UNL     1       0.002  -0.004   0.002  0.00  0.00    +0.140 C 
ATOM     19  C   UNL     1      -1.410  -0.546   0.041  0.00  0.00    +0.065 C 
ATOM     20  C   UNL     1      -1.496  -1.272   1.173  0.00  0.00    -0.010 C 
ATOM     21  C   UNL     1      -0.203  -1.226   1.873  0.00  0.00    +0.106 C 
ATOM     22  N   UNL     1       0.656  -0.509   1.215  0.00  0.00    -0.272 NA
ATOM     23  C   UNL     1      -2.720  -2.011   1.647  0.00  0.00    +0.046 C 
BRANCH  19  24
ATOM     24  C   UNL     1      -2.470  -0.326  -0.952  0.00  0.00    +0.337 C 
ATOM     25  O   UNL     1      -3.566  -0.826  -0.792  0.00  0.00    -0.245 OA
BRANCH  24  26
ATOM     26  O   UNL     1      -2.227   0.432  -2.041  0.00  0.00    -0.465 OA
ATOM     27  C   UNL     1      -3.304   0.604  -2.965  0.00  0.00    +0.280 C 
ENDBRANCH  24  26
ENDBRANCH  19  24
ENDBRANCH  15  21
ENDBRANCH  13  15
ENDBRANCH  12  13
ENDBRANCH   1  12
BRANCH   4  28
ATOM     28  C   UNL     1       5.605  -1.430   8.651  0.00  0.00    -0.001 C 
BRANCH  28  29
ATOM     29  N   UNL     1       5.586  -0.073   9.214  0.00  0.00    +0.384 N 
ATOM     30  C   UNL     1       6.139   0.870   8.235  0.00  0.00    -0.078 C 
ATOM     31  C   UNL     1       6.047   2.295   8.784  0.00  0.00    -0.019 C 
ATOM     32  C   UNL     1       6.843   2.386  10.089  0.00  0.00    -0.004 C 
ATOM     33  C   UNL     1       6.305   1.347  11.077  0.00  0.00    -0.019 C 
ATOM     34  C   UNL     1       6.388  -0.043  10.443  0.00  0.00    -0.078 C 
ATOM     35  H   UNL     1       4.635   0.188   9.428  0.00  0.00    -0.081 HD
ENDBRANCH  28  29
ENDBRANCH   4  28
TORSDOF 9
