REMARK  Name = ZINC33569483
REMARK  10 active torsions:
REMARK  status: ('A' for Active; 'I' for Inactive)
REMARK    1  A    between atoms: C_1  and  C_2
REMARK    2  A    between atoms: C_5  and  C_31
REMARK    3  A    between atoms: C_6  and  O_8
REMARK    4  A    between atoms: O_8  and  C_9
REMARK    5  A    between atoms: C_9  and  C_10
REMARK    6  A    between atoms: N_12  and  C_13
REMARK    7  A    between atoms: C_21  and  C_22
REMARK    8  A    between atoms: C_22  and  C_24
REMARK    9  A    between atoms: C_31  and  C_32
REMARK   10  A    between atoms: C_31  and  C_33
REMARK                            x       y       z     vdW  Elec       q    Type
REMARK                         _______ _______ _______ _____ _____    ______ ____
ROOT
ATOM      1  C   UNL     1       2.175   4.172   0.018  0.00  0.00    +0.091 A 
ATOM      2  C   UNL     1       1.409   5.160  -0.750  0.00  0.00    +0.042 A 
ATOM      3  C   UNL     1       1.758   6.183  -1.633  0.00  0.00    +0.013 A 
ATOM      4  C   UNL     1       0.780   6.951  -2.202  0.00  0.00    +0.001 A 
ATOM      5  C   UNL     1      -0.556   6.721  -1.903  0.00  0.00    +0.004 A 
ATOM      6  C   UNL     1      -0.920   5.712  -1.038  0.00  0.00    +0.047 A 
ATOM      7  C   UNL     1       0.057   4.918  -0.448  0.00  0.00    +0.138 A 
ATOM      8  O   UNL     1       0.001   3.887   0.419  0.00  0.00    -0.450 OA
ATOM      9  C   UNL     1       1.238   3.428   0.710  0.00  0.00    +0.197 A 
ENDROOT
BRANCH   1  12
ATOM     10  C   UNL     1       4.356   5.081  -0.155  0.00  0.00    +0.255 C 
ATOM     11  O   UNL     1       3.876   6.189  -0.271  0.00  0.00    -0.272 OA
ATOM     12  N   UNL     1       3.554   4.017   0.045  0.00  0.00    -0.279 N 
ATOM     13  H   UNL     1       3.992   3.025   0.229  0.00  0.00    +0.155 HD
BRANCH  10  14
ATOM     14  C   UNL     1       5.849   4.895  -0.236  0.00  0.00    +0.324 C 
BRANCH  14  15
ATOM     15  O   UNL     1       6.476   6.161  -0.451  0.00  0.00    -0.482 OA
BRANCH  15  21
ATOM     16  C   UNL     1      10.695   3.708  -0.420  0.00  0.00    +0.044 C 
ATOM     17  C   UNL     1       9.921   4.996  -0.538  0.00  0.00    -0.047 A 
ATOM     18  C   UNL     1      10.591   6.188  -0.747  0.00  0.00    +0.004 A 
ATOM     19  C   UNL     1       9.883   7.370  -0.856  0.00  0.00    +0.008 A 
ATOM     20  C   UNL     1       8.505   7.364  -0.757  0.00  0.00    -0.003 A 
ATOM     21  C   UNL     1       7.832   6.170  -0.549  0.00  0.00    +0.125 A 
ATOM     22  C   UNL     1       8.544   4.985  -0.434  0.00  0.00    +0.049 A 
BRANCH  20  23
ATOM     23  C   UNL     1       7.735   8.654  -0.877  0.00  0.00    +0.016 C 
ATOM     24  C   UNL     1       8.179   9.617   0.226  0.00  0.00    +0.012 C 
ATOM     25  C   UNL     1       8.005   9.284  -2.244  0.00  0.00    +0.012 C 
ENDBRANCH  20  23
ENDBRANCH  15  21
ENDBRANCH  14  15
ENDBRANCH  10  14
ENDBRANCH   1  12
BRANCH   9  26
ATOM     26  C   UNL     1       1.529   2.355   1.587  0.00  0.00    +0.230 C 
ATOM     27  O   UNL     1       2.672   1.948   1.693  0.00  0.00    -0.283 OA
BRANCH  26  28
ATOM     28  C   UNL     1       0.445   1.728   2.374  0.00  0.00    +0.026 A 
ATOM     29  C   UNL     1      -0.836   2.283   2.369  0.00  0.00    +0.013 A 
ATOM     30  C   UNL     1      -1.844   1.691   3.100  0.00  0.00    +0.016 A 
ATOM     31  C   UNL     1      -1.585   0.555   3.848  0.00  0.00    +0.018 A 
ATOM     32  C   UNL     1      -0.315   0.003   3.862  0.00  0.00    +0.016 A 
ATOM     33  C   UNL     1       0.700   0.582   3.130  0.00  0.00    +0.013 A 
ATOM     34 BR   UNL     1      -2.971  -0.246   4.855  0.00  0.00    -0.050 Br
ENDBRANCH  26  28
ENDBRANCH   9  26
TORSDOF 7
