REMARK  Name = ZINC12873131
REMARK  4 active torsions:
REMARK  status: ('A' for Active; 'I' for Inactive)
REMARK    1  A    between atoms: C_10  and  N_11
REMARK    2  A    between atoms: C_16  and  C_32
REMARK    3  A    between atoms: C_32  and  C_33
REMARK    4  A    between atoms: C_36  and  O_39
REMARK                            x       y       z     vdW  Elec       q    Type
REMARK                         _______ _______ _______ _____ _____    ______ ____
ROOT
ATOM      1  N   UNL     1       1.530   2.463   1.077  0.00  0.00    -0.209 N 
ATOM      2  C   UNL     1       1.374   1.687  -0.002  0.00  0.00    +0.228 C 
ATOM      3  O   UNL     1       2.215   1.495  -0.855  0.00  0.00    -0.275 OA
ATOM      4  C   UNL     1      -0.013   1.086   0.008  0.00  0.00    +0.074 C 
ATOM      5  C   UNL     1      -0.832   1.674  -1.160  0.00  0.00    -0.053 C 
ATOM      6  C   UNL     1      -1.782   2.575   0.794  0.00  0.00    +0.050 C 
ATOM      7  C   UNL     1      -0.649   1.673   1.299  0.00  0.00    +0.088 C 
ATOM      8  C   UNL     1       0.459   2.524   1.876  0.00  0.00    +0.229 C 
ATOM      9  O   UNL     1       0.388   3.164   2.904  0.00  0.00    -0.275 OA
ATOM     10  C   UNL     1      -3.112   1.881   0.862  0.00  0.00    -0.028 A 
ATOM     11  C   UNL     1      -3.609   0.727   0.298  0.00  0.00    +0.004 A 
ATOM     12  C   UNL     1      -4.911   0.336   0.555  0.00  0.00    +0.000 A 
ATOM     13  C   UNL     1      -5.711   1.106   1.380  0.00  0.00    +0.002 A 
ATOM     14  C   UNL     1      -5.218   2.263   1.946  0.00  0.00    +0.023 A 
ATOM     15  C   UNL     1      -3.909   2.665   1.691  0.00  0.00    +0.036 A 
ATOM     16  N   UNL     1      -3.192   3.778   2.137  0.00  0.00    -0.286 N 
ATOM     17  C   UNL     1      -1.934   3.799   1.656  0.00  0.00    +0.211 C 
ATOM     18  O   UNL     1      -1.089   4.641   1.874  0.00  0.00    -0.277 OA
ATOM     19  H   UNL     1      -3.558   4.457   2.726  0.00  0.00    +0.155 HD
ATOM     20  N   UNL     1      -1.422   2.901  -0.576  0.00  0.00    +0.394 N 
ATOM     21  H   UNL     1      -2.257   3.180  -1.105  0.00  0.00    -0.083 HD
ATOM     22  H   UNL     1      -0.737   3.666  -0.590  0.00  0.00    -0.083 HD
ENDROOT
BRANCH   1  32
ATOM     23  C   UNL     1       5.763   1.395   3.615  0.00  0.00    +0.001 A 
ATOM     24  C   UNL     1       4.588   0.690   3.357  0.00  0.00    +0.001 A 
ATOM     25  C   UNL     1       3.586   1.245   2.622  0.00  0.00    +0.010 A 
ATOM     26  C   UNL     1       3.734   2.546   2.114  0.00  0.00    +0.004 A 
ATOM     27  C   UNL     1       4.928   3.263   2.376  0.00  0.00    -0.016 A 
ATOM     28  C   UNL     1       5.941   2.658   3.139  0.00  0.00    +0.008 A 
ATOM     29  C   UNL     1       5.077   4.565   1.869  0.00  0.00    +0.008 A 
ATOM     30  C   UNL     1       4.079   5.126   1.133  0.00  0.00    +0.002 A 
ATOM     31  C   UNL     1       2.905   4.428   0.864  0.00  0.00    +0.024 A 
ATOM     32  C   UNL     1       2.717   3.152   1.348  0.00  0.00    +0.052 A 
ENDBRANCH   1  32
BRANCH   5  33
ATOM     33  C   UNL     1       0.084   2.003  -2.340  0.00  0.00    +0.020 C 
BRANCH  33  34
ATOM     34  C   UNL     1      -0.749   2.460  -3.510  0.00  0.00    -0.049 A 
ATOM     35  C   UNL     1      -1.211   1.538  -4.431  0.00  0.00    +0.007 A 
ATOM     36  C   UNL     1      -1.980   1.953  -5.501  0.00  0.00    +0.045 A 
ATOM     37  C   UNL     1      -2.278   3.299  -5.658  0.00  0.00    +0.117 A 
ATOM     38  C   UNL     1      -1.809   4.223  -4.736  0.00  0.00    +0.045 A 
ATOM     39  C   UNL     1      -1.046   3.802  -3.664  0.00  0.00    +0.007 A 
BRANCH  37  40
ATOM     40  O   UNL     1      -3.028   3.711  -6.714  0.00  0.00    -0.507 OA
ATOM     41  H   UNL     1      -2.511   3.936  -7.499  0.00  0.00    +0.292 HD
ENDBRANCH  37  40
ENDBRANCH  33  34
ENDBRANCH   5  33
TORSDOF 4
