REMARK  Name = ZINC28161653
REMARK  9 active torsions:
REMARK  status: ('A' for Active; 'I' for Inactive)
REMARK    1  A    between atoms: C_1  and  C_2
REMARK    2  A    between atoms: C_5  and  N_8
REMARK    3  A    between atoms: C_9  and  C_11
REMARK    4  A    between atoms: C_11  and  C_12
REMARK    5  A    between atoms: C_20  and  C_30
REMARK    6  A    between atoms: C_23  and  C_25
REMARK    7  A    between atoms: C_33  and  C_36
REMARK    8  A    between atoms: C_36  and  C_37
REMARK    9  A    between atoms: C_36  and  C_38
REMARK                            x       y       z     vdW  Elec       q    Type
REMARK                         _______ _______ _______ _____ _____    ______ ____
ROOT
ATOM      1  C   UNL     1      -0.727   1.581   1.267  0.00  0.00    +0.150 C 
ATOM      2  C   UNL     1      -0.030   1.092   2.531  0.00  0.00    +0.252 C 
ATOM      3  O   UNL     1       0.074  -0.089   2.800  0.00  0.00    -0.272 OA
ATOM      4  N   UNL     1       0.447   2.029   3.303  0.00  0.00    -0.157 NA
ATOM      5  C   UNL     1       0.357   3.328   3.048  0.00  0.00    +0.170 C 
ATOM      6  S   UNL     1      -0.524   3.394   1.492  0.00  0.00    -0.078 S 
ATOM      7  N   UNL     1       0.825   4.368   3.796  0.00  0.00    -0.195 N 
ATOM      8  C   UNL     1       1.540   4.247   5.076  0.00  0.00    +0.136 C 
ATOM      9  C   UNL     1       1.832   5.709   5.468  0.00  0.00    +0.087 C 
ATOM     10  C   UNL     1       1.226   6.517   4.343  0.00  0.00    +0.075 C 
ATOM     11  N   UNL     1       0.700   5.718   3.475  0.00  0.00    -0.181 NA
ENDROOT
BRANCH   8  12
ATOM     12  C   UNL     1       2.827   3.483   4.895  0.00  0.00    -0.025 A 
ATOM     13  C   UNL     1       3.587   3.671   3.756  0.00  0.00    +0.006 A 
ATOM     14  C   UNL     1       4.769   2.973   3.592  0.00  0.00    +0.004 A 
ATOM     15  C   UNL     1       5.186   2.081   4.562  0.00  0.00    -0.045 A 
ATOM     16  C   UNL     1       4.423   1.890   5.699  0.00  0.00    +0.004 A 
ATOM     17  C   UNL     1       3.243   2.591   5.865  0.00  0.00    +0.006 A 
BRANCH  15  18
ATOM     18  C   UNL     1       6.472   1.317   4.380  0.00  0.00    +0.013 C 
ATOM     19  C   UNL     1       6.387   0.468   3.111  0.00  0.00    +0.012 C 
ATOM     20  C   UNL     1       7.637   2.302   4.258  0.00  0.00    +0.012 C 
ENDBRANCH  15  18
ENDBRANCH   8  12
BRANCH  10  21
ATOM     21  C   UNL     1       1.236   7.980   4.250  0.00  0.00    +0.035 A 
ATOM     22  C   UNL     1       0.709   8.796   3.263  0.00  0.00    +0.017 A 
ATOM     23  C   UNL     1       0.845  10.158   3.400  0.00  0.00    +0.008 A 
ATOM     24  C   UNL     1       1.485  10.656   4.489  0.00  0.00    +0.046 A 
ATOM     25  S   UNL     1       1.923   9.175   5.385  0.00  0.00    -0.095 S 
ENDBRANCH  10  21
BRANCH   1  26
ATOM     26  C   UNL     1      -0.009   1.091   0.008  0.00  0.00    +0.120 C 
BRANCH  26  28
ATOM     27  N   UNL     1      -0.288   1.272  -2.443  0.00  0.00    -0.285 N 
ATOM     28  C   UNL     1      -0.743   1.583  -1.213  0.00  0.00    +0.219 C 
ATOM     29  O   UNL     1      -1.742   2.260  -1.088  0.00  0.00    -0.275 OA
ATOM     30  H   UNL     1       0.658   0.724  -2.558  0.00  0.00    +0.155 HD
BRANCH  27  35
ATOM     31  C   UNL     1      -3.259   2.790  -7.032  0.00  0.00    +0.044 C 
ATOM     32  C   UNL     1      -2.470   2.387  -5.813  0.00  0.00    -0.050 A 
ATOM     33  C   UNL     1      -2.445   3.212  -4.703  0.00  0.00    +0.005 A 
ATOM     34  C   UNL     1      -1.722   2.845  -3.585  0.00  0.00    +0.023 A 
ATOM     35  C   UNL     1      -1.022   1.646  -3.575  0.00  0.00    +0.033 A 
ATOM     36  C   UNL     1      -1.045   0.822  -4.692  0.00  0.00    +0.023 A 
ATOM     37  C   UNL     1      -1.773   1.192  -5.806  0.00  0.00    +0.005 A 
ENDBRANCH  27  35
ENDBRANCH  26  28
ENDBRANCH   1  26
TORSDOF 6
