REMARK  Name = ZINC39858842
REMARK  8 active torsions:
REMARK  status: ('A' for Active; 'I' for Inactive)
REMARK    1  A    between atoms: C_1  and  C_2
REMARK    2  A    between atoms: C_5  and  C_35
REMARK    3  A    between atoms: C_6  and  N_8
REMARK    4  A    between atoms: C_9  and  C_11
REMARK    5  A    between atoms: C_11  and  C_33
REMARK    6  A    between atoms: C_12  and  C_13
REMARK    7  A    between atoms: C_14  and  O_24
REMARK    8  A    between atoms: O_24  and  C_25
REMARK                            x       y       z     vdW  Elec       q    Type
REMARK                         _______ _______ _______ _____ _____    ______ ____
ROOT
ATOM      1  C   UNL     1       0.030  -0.820   5.878  0.00  0.00    +0.103 A 
ATOM      2  C   UNL     1       0.153  -0.095   7.089  0.00  0.00    +0.235 A 
ATOM      3  N   UNL     1       0.042   1.222   7.075  0.00  0.00    -0.194 NA
ATOM      4  C   UNL     1      -0.185   1.895   5.945  0.00  0.00    +0.144 A 
ATOM      5  C   UNL     1      -0.294   3.296   5.994  0.00  0.00    +0.047 A 
ATOM      6  C   UNL     1      -0.526   3.994   4.846  0.00  0.00    +0.005 A 
ATOM      7  C   UNL     1      -0.653   3.305   3.632  0.00  0.00    +0.018 A 
ATOM      8  C   UNL     1      -0.546   1.957   3.604  0.00  0.00    +0.096 A 
ATOM      9  N   UNL     1      -0.313   1.251   4.746  0.00  0.00    -0.268 N 
ATOM     10  C   UNL     1      -0.206  -0.093   4.681  0.00  0.00    +0.269 A 
ATOM     11  O   UNL     1      -0.314  -0.673   3.615  0.00  0.00    -0.266 OA
ENDROOT
BRANCH   1  13
ATOM     12  C   UNL     1      -0.942  -3.001   5.486  0.00  0.00    +0.114 C 
ATOM     13  C   UNL     1       0.144  -2.221   5.861  0.00  0.00    +0.042 C 
BRANCH  12  15
ATOM     14  N   UNL     1      -3.280  -3.116   4.806  0.00  0.00    -0.281 N 
ATOM     15  C   UNL     1      -2.253  -2.380   5.277  0.00  0.00    +0.259 C 
ATOM     16  O   UNL     1      -2.415  -1.200   5.528  0.00  0.00    -0.269 OA
ATOM     17  H   UNL     1      -3.155  -4.059   4.619  0.00  0.00    +0.155 HD
BRANCH  14  23
ATOM     18  C   UNL     1      -6.482   0.478   5.804  0.00  0.00    +0.044 C 
ATOM     19  C   UNL     1      -6.105  -0.777   5.060  0.00  0.00    -0.049 A 
ATOM     20  C   UNL     1      -6.992  -1.340   4.160  0.00  0.00    +0.004 A 
ATOM     21  C   UNL     1      -6.649  -2.490   3.475  0.00  0.00    +0.005 A 
ATOM     22  C   UNL     1      -5.419  -3.082   3.687  0.00  0.00    -0.029 A 
ATOM     23  C   UNL     1      -4.526  -2.519   4.589  0.00  0.00    +0.037 A 
ATOM     24  C   UNL     1      -4.871  -1.360   5.272  0.00  0.00    +0.027 A 
ATOM     25  C   UNL     1      -5.047  -4.337   2.940  0.00  0.00    +0.045 C 
ENDBRANCH  14  23
ENDBRANCH  12  15
BRANCH  12  26
ATOM     26  C   UNL     1      -0.780  -4.412   5.303  0.00  0.00    +0.104 C 
ATOM     27  N   UNL     1      -0.652  -5.532   5.157  0.00  0.00    -0.191 NA
ENDBRANCH  12  26
ENDBRANCH   1  13
BRANCH   2  28
ATOM     28  O   UNL     1       0.383  -0.746   8.251  0.00  0.00    -0.436 OA
BRANCH  28  29
ATOM     29  C   UNL     1       0.384  -0.019   9.400  0.00  0.00    +0.149 A 
ATOM     30  C   UNL     1       1.579   0.453   9.923  0.00  0.00    +0.049 A 
ATOM     31  C   UNL     1       1.578   1.191  11.091  0.00  0.00    +0.023 A 
ATOM     32  C   UNL     1       0.386   1.459  11.740  0.00  0.00    +0.043 A 
ATOM     33  C   UNL     1      -0.808   0.990  11.221  0.00  0.00    +0.043 A 
ATOM     34  C   UNL     1      -0.812   0.256  10.049  0.00  0.00    +0.085 A 
ATOM     35 CL   UNL     1      -2.310  -0.327   9.394  0.00  0.00    -0.080 Cl
ATOM     36 CL   UNL     1       0.388   2.387  13.207  0.00  0.00    -0.083 Cl
ENDBRANCH  28  29
ENDBRANCH   2  28
TORSDOF 6
