REMARK  Name = ZINC59021359
REMARK  9 active torsions:
REMARK  status: ('A' for Active; 'I' for Inactive)
REMARK    1  A    between atoms: C_1  and  C_2
REMARK    2  A    between atoms: C_5  and  C_8
REMARK    3  A    between atoms: C_8  and  C_31
REMARK    4  A    between atoms: N_9  and  N_10
REMARK    5  A    between atoms: C_13  and  S_16
REMARK    6  A    between atoms: S_16  and  C_17
REMARK    7  A    between atoms: C_17  and  C_18
REMARK    8  A    between atoms: N_20  and  C_21
REMARK    9  A    between atoms: C_22  and  C_29
REMARK                            x       y       z     vdW  Elec       q    Type
REMARK                         _______ _______ _______ _____ _____    ______ ____
ROOT
ATOM      1  N   UNL     1      -0.050  -4.189  -2.356  0.00  0.00    -0.205 N 
ATOM      2  C   UNL     1      -0.255  -4.865  -3.545  0.00  0.00    +0.232 A 
ATOM      3  N   UNL     1      -0.452  -6.160  -3.675  0.00  0.00    -0.186 NA
ATOM      4  C   UNL     1      -0.613  -6.463  -4.967  0.00  0.00    +0.211 A 
ATOM      5  N   UNL     1      -0.520  -5.364  -5.678  0.00  0.00    -0.144 NA
ATOM      6  N   UNL     1      -0.293  -4.312  -4.776  0.00  0.00    -0.245 N 
ATOM      7  H   UNL     1       0.082  -3.228  -2.361  0.00  0.00    +0.177 HD
ATOM      8  H   UNL     1      -0.184  -3.373  -4.995  0.00  0.00    +0.192 HD
ENDROOT
BRANCH   1  10
ATOM      9  C   UNL     1       0.272  -4.279  -0.042  0.00  0.00    +0.063 C 
ATOM     10  N   UNL     1      -0.034  -4.892  -1.144  0.00  0.00    -0.184 NA
ATOM     11  C   UNL     1       0.125  -4.987   1.280  0.00  0.00    +0.068 C 
BRANCH   9  16
ATOM     12  C   UNL     1       2.193   1.140  -0.204  0.00  0.00    +0.044 C 
ATOM     13  C   UNL     1       1.690  -0.280  -0.161  0.00  0.00    -0.050 A 
ATOM     14  C   UNL     1       0.884  -0.694   0.885  0.00  0.00    +0.004 A 
ATOM     15  C   UNL     1       0.420  -1.992   0.930  0.00  0.00    +0.010 A 
ATOM     16  C   UNL     1       0.764  -2.889  -0.084  0.00  0.00    -0.003 A 
ATOM     17  C   UNL     1       1.578  -2.464  -1.137  0.00  0.00    +0.010 A 
ATOM     18  C   UNL     1       2.031  -1.162  -1.172  0.00  0.00    +0.004 A 
ENDBRANCH   9  16
ENDBRANCH   1  10
BRANCH   4  19
ATOM     19  S   UNL     1      -0.903  -8.077  -5.612  0.00  0.00    -0.075 S 
BRANCH  19  20
ATOM     20  C   UNL     1      -1.028  -7.818  -7.403  0.00  0.00    +0.173 C 
BRANCH  20  21
ATOM     21  C   UNL     1      -1.280  -9.139  -8.085  0.00  0.00    +0.228 C 
ATOM     22  O   UNL     1      -1.365 -10.154  -7.428  0.00  0.00    -0.275 OA
ATOM     23  N   UNL     1      -1.409  -9.191  -9.426  0.00  0.00    -0.278 N 
ATOM     24  H   UNL     1      -1.340  -8.379  -9.951  0.00  0.00    +0.155 HD
BRANCH  23  25
ATOM     25  C   UNL     1      -1.640 -10.407 -10.054  0.00  0.00    +0.090 A 
ATOM     26  C   UNL     1      -1.792 -10.649 -11.405  0.00  0.00    +0.084 A 
ATOM     27  C   UNL     1      -2.029 -12.032 -11.816  0.00  0.00    -0.018 A 
ATOM     28  C   UNL     1      -2.070 -12.908 -10.795  0.00  0.00    -0.004 A 
ATOM     29  S   UNL     1      -1.792 -11.920  -9.347  0.00  0.00    -0.077 S 
ATOM     30  C   UNL     1      -2.320 -14.313 -11.272  0.00  0.00    +0.043 C 
ATOM     31  C   UNL     1      -2.860 -14.147 -12.710  0.00  0.00    +0.010 C 
ATOM     32  C   UNL     1      -2.248 -12.793 -13.122  0.00  0.00    +0.037 C 
BRANCH  26  33
ATOM     33  C   UNL     1      -1.720  -9.589 -12.365  0.00  0.00    +0.102 C 
ATOM     34  N   UNL     1      -1.664  -8.748 -13.127  0.00  0.00    -0.191 NA
ENDBRANCH  26  33
ENDBRANCH  23  25
ENDBRANCH  20  21
ENDBRANCH  19  20
ENDBRANCH   4  19
TORSDOF 7
