REMARK  Name = ZINC25149878
REMARK  12 active torsions:
REMARK  status: ('A' for Active; 'I' for Inactive)
REMARK    1  A    between atoms: C_1  and  C_2
REMARK    2  A    between atoms: C_2  and  C_4
REMARK    3  A    between atoms: C_2  and  S_18
REMARK    4  A    between atoms: N_6  and  C_7
REMARK    5  A    between atoms: C_7  and  C_8
REMARK    6  A    between atoms: C_11  and  O_16
REMARK    7  A    between atoms: C_12  and  O_14
REMARK    8  A    between atoms: O_14  and  C_15
REMARK    9  A    between atoms: O_16  and  C_17
REMARK   10  A    between atoms: S_18  and  C_19
REMARK   11  A    between atoms: N_26  and  C_34
REMARK   12  A    between atoms: C_29  and  C_31
REMARK                            x       y       z     vdW  Elec       q    Type
REMARK                         _______ _______ _______ _____ _____    ______ ____
ROOT
ATOM      1  S   UNL     1      -6.370   5.495  -2.986  0.00  0.00    -0.093 S 
ENDROOT
BRANCH   1   2
ATOM      2  C   UNL     1      -6.647   5.596  -4.724  0.00  0.00    +0.116 A 
ATOM      3  C   UNL     1      -7.942   5.749  -5.241  0.00  0.00    +0.116 A 
ATOM      4  C   UNL     1      -9.130   5.845  -4.387  0.00  0.00    +0.288 A 
ATOM      5  O   UNL     1      -9.036   5.785  -3.175  0.00  0.00    -0.265 OA
ATOM      6  N   UNL     1     -10.333   5.997  -4.985  0.00  0.00    -0.153 NA
ATOM      7  C   UNL     1     -10.441   6.063  -6.321  0.00  0.00    +0.353 A 
ATOM      8  O   UNL     1     -11.546   6.200  -6.809  0.00  0.00    -0.244 OA
ATOM      9  N   UNL     1      -9.380   5.984  -7.144  0.00  0.00    -0.273 N 
ATOM     10  C   UNL     1      -8.109   5.829  -6.636  0.00  0.00    +0.155 A 
ATOM     11  N   UNL     1      -7.037   5.746  -7.413  0.00  0.00    -0.214 NA
ATOM     12  C   UNL     1      -5.837   5.597  -6.886  0.00  0.00    +0.136 A 
ATOM     13  N   UNL     1      -5.632   5.523  -5.587  0.00  0.00    -0.225 NA
BRANCH  12  14
ATOM     14  C   UNL     1      -4.649   5.509  -7.810  0.00  0.00    +0.057 C 
ATOM     15  C   UNL     1      -3.300   5.136  -7.192  0.00  0.00    +0.012 C 
ATOM     16  C   UNL     1      -3.557   6.570  -7.660  0.00  0.00    +0.012 C 
ENDBRANCH  12  14
BRANCH   9  17
ATOM     17  C   UNL     1      -9.579   6.063  -8.593  0.00  0.00    +0.094 C 
ATOM     18  C   UNL     1      -8.661   7.000  -9.382  0.00  0.00    +0.027 C 
ATOM     19  C   UNL     1     -10.129   7.373  -9.160  0.00  0.00    +0.027 C 
ENDBRANCH   9  17
ENDBRANCH   1   2
BRANCH   1  21
ATOM     20  C   UNL     1      -3.915   6.571  -3.516  0.00  0.00    +0.029 C 
ATOM     21  C   UNL     1      -4.570   5.303  -2.966  0.00  0.00    +0.135 C 
BRANCH  21  22
ATOM     22  C   UNL     1      -4.106   5.071  -1.551  0.00  0.00    +0.226 C 
ATOM     23  O   UNL     1      -4.815   5.390  -0.620  0.00  0.00    -0.275 OA
ATOM     24  N   UNL     1      -2.902   4.509  -1.320  0.00  0.00    -0.310 N 
ATOM     25  H   UNL     1      -2.259   4.220  -2.165  0.00  0.00    +0.149 HD
BRANCH  24  26
ATOM     26  C   UNL     1      -2.451   4.284   0.055  0.00  0.00    +0.139 C 
BRANCH  26  27
ATOM     27  C   UNL     1      -1.084   3.649   0.038  0.00  0.00    -0.027 A 
ATOM     28  C   UNL     1      -0.964   2.272   0.011  0.00  0.00    +0.009 A 
ATOM     29  C   UNL     1       0.288   1.685   0.000  0.00  0.00    +0.050 A 
ATOM     30  C   UNL     1       1.425   2.477   0.004  0.00  0.00    +0.162 A 
ATOM     31  C   UNL     1       1.303   3.863   0.025  0.00  0.00    +0.162 A 
ATOM     32  C   UNL     1       0.046   4.445   0.042  0.00  0.00    +0.054 A 
BRANCH  31  33
ATOM     33  O   UNL     1       2.416   4.645   0.030  0.00  0.00    -0.491 OA
ATOM     34  C   UNL     1       2.215   6.060   0.052  0.00  0.00    +0.277 C 
ENDBRANCH  31  33
BRANCH  30  35
ATOM     35  O   UNL     1       2.657   1.901  -0.012  0.00  0.00    -0.491 OA
ATOM     36  C   UNL     1       2.705   0.473  -0.034  0.00  0.00    +0.277 C 
ENDBRANCH  30  35
ENDBRANCH  26  27
ENDBRANCH  24  26
ENDBRANCH  21  22
ENDBRANCH   1  21
TORSDOF 9
