REMARK  Name = ZINC39667244
REMARK  6 active torsions:
REMARK  status: ('A' for Active; 'I' for Inactive)
REMARK    1  A    between atoms: C_1  and  S_2
REMARK    2  A    between atoms: S_2  and  C_3
REMARK    3  A    between atoms: C_6  and  C_9
REMARK    4  A    between atoms: C_9  and  N_10
REMARK    5  A    between atoms: C_11  and  C_13
REMARK    6  A    between atoms: C_24  and  C_26
REMARK                            x       y       z     vdW  Elec       q    Type
REMARK                         _______ _______ _______ _____ _____    ______ ____
ROOT
ATOM      1  C   UNL     1      -8.123  -1.887  -2.819  0.00  0.00    +0.100 C 
ATOM      2  C   UNL     1      -8.179  -0.554  -3.598  0.00  0.00    +0.121 C 
ATOM      3  N   UNL     1      -9.365  -0.683  -4.477  0.00  0.00    -0.296 N 
ATOM      4  C   UNL     1     -10.373  -1.372  -3.636  0.00  0.00    +0.115 C 
ATOM      5  C   UNL     1      -9.566  -2.420  -2.845  0.00  0.00    -0.004 C 
ATOM      6  C   UNL     1      -9.617  -3.771  -3.554  0.00  0.00    -0.010 C 
ATOM      7  C   UNL     1     -11.051  -4.306  -3.518  0.00  0.00    -0.082 C 
ATOM      8  N   UNL     1     -11.488  -4.446  -2.123  0.00  0.00    +0.379 N 
ATOM      9  C   UNL     1     -11.524  -3.130  -1.475  0.00  0.00    -0.082 C 
ATOM     10  C   UNL     1     -10.110  -2.544  -1.425  0.00  0.00    -0.010 C 
ATOM     11  C   UNL     1      -9.498  -0.268  -5.752  0.00  0.00    +0.247 C 
ATOM     12  O   UNL     1     -10.570  -0.368  -6.315  0.00  0.00    -0.270 OA
ATOM     13  H   UNL     1     -12.409  -4.856  -2.100  0.00  0.00    -0.086 HD
ATOM     14  H   UNL     1     -10.844  -5.045  -1.629  0.00  0.00    -0.086 HD
ENDROOT
BRANCH  11  15
ATOM     15  C   UNL     1      -8.339   0.308  -6.465  0.00  0.00    +0.045 A 
ATOM     16  C   UNL     1      -7.585   1.327  -5.873  0.00  0.00    +0.014 A 
ATOM     17  C   UNL     1      -6.504   1.866  -6.536  0.00  0.00    +0.001 A 
ATOM     18  C   UNL     1      -6.151   1.406  -7.795  0.00  0.00    +0.012 A 
ATOM     19  C   UNL     1      -6.888   0.394  -8.402  0.00  0.00    +0.031 A 
ATOM     20  C   UNL     1      -7.988  -0.168  -7.735  0.00  0.00    +0.006 A 
ATOM     21  C   UNL     1      -8.581  -1.220  -8.598  0.00  0.00    -0.006 A 
ATOM     22  C   UNL     1      -9.669  -2.063  -8.417  0.00  0.00    +0.009 A 
ATOM     23  C   UNL     1     -10.013  -2.974  -9.404  0.00  0.00    +0.001 A 
ATOM     24  C   UNL     1      -9.279  -3.051 -10.571  0.00  0.00    +0.001 A 
ATOM     25  C   UNL     1      -8.190  -2.217 -10.767  0.00  0.00    +0.012 A 
ATOM     26  C   UNL     1      -7.835  -1.300  -9.787  0.00  0.00    +0.030 A 
ATOM     27  C   UNL     1      -6.754  -0.287  -9.712  0.00  0.00    +0.194 C 
ATOM     28  O   UNL     1      -5.911  -0.066 -10.557  0.00  0.00    -0.287 OA
ENDBRANCH  11  15
BRANCH   1  30
ATOM     29  N   UNL     1      -7.139  -2.652  -0.682  0.00  0.00    -0.311 N 
ATOM     30  C   UNL     1      -7.679  -1.647  -1.399  0.00  0.00    +0.218 C 
ATOM     31  O   UNL     1      -7.807  -0.548  -0.901  0.00  0.00    -0.275 OA
ATOM     32  H   UNL     1      -7.037  -3.531  -1.080  0.00  0.00    +0.149 HD
BRANCH  29  33
ATOM     33  C   UNL     1      -6.707  -2.419   0.698  0.00  0.00    +0.139 C 
BRANCH  33  37
ATOM     34  C   UNL     1      -5.109  -6.035   2.322  0.00  0.00    +0.008 A 
ATOM     35  C   UNL     1      -4.275  -5.139   1.663  0.00  0.00    +0.015 A 
ATOM     36  C   UNL     1      -4.795  -3.972   1.140  0.00  0.00    +0.006 A 
ATOM     37  C   UNL     1      -6.143  -3.694   1.271  0.00  0.00    -0.030 A 
ATOM     38  C   UNL     1      -6.976  -4.582   1.926  0.00  0.00    +0.006 A 
ATOM     39  C   UNL     1      -6.464  -5.755   2.447  0.00  0.00    +0.015 A 
BRANCH  34  41
ATOM     40  C   UNL     1      -2.683  -7.444   2.589  0.00  0.00    +0.090 C 
ATOM     41  S   UNL     1      -4.450  -7.525   2.992  0.00  0.00    -0.129 S 
ENDBRANCH  34  41
ENDBRANCH  33  37
ENDBRANCH  29  33
ENDBRANCH   1  30
TORSDOF 5
