REMARK  Name = ZINC02960539
REMARK  7 active torsions:
REMARK  status: ('A' for Active; 'I' for Inactive)
REMARK    1  A    between atoms: C_4  and  N_7
REMARK    2  A    between atoms: C_8  and  N_30
REMARK    3  A    between atoms: C_9  and  C_12
REMARK    4  A    between atoms: C_12  and  N_62
REMARK    5  A    between atoms: C_16  and  C_19
REMARK    6  A    between atoms: N_21  and  C_22
REMARK    7  A    between atoms: C_22  and  C_23
REMARK                            x       y       z     vdW  Elec       q    Type
REMARK                         _______ _______ _______ _____ _____    ______ ____
ROOT
ATOM      1  C   UNL     1      -3.004   1.506   6.296  0.00  0.00    -0.078 C 
ATOM      2  C   UNL     1      -3.979   2.203   5.344  0.00  0.00    -0.018 C 
ATOM      3  C   UNL     1      -3.546   1.944   3.899  0.00  0.00    +0.009 C 
ATOM      4  C   UNL     1      -2.112   2.446   3.705  0.00  0.00    +0.058 C 
ATOM      5  C   UNL     1      -1.192   1.742   4.705  0.00  0.00    -0.066 C 
ATOM      6  N   UNL     1      -1.647   2.051   6.077  0.00  0.00    +0.383 N 
ATOM      7  H   UNL     1      -1.674   3.071   6.197  0.00  0.00    -0.081 HD
ENDROOT
BRANCH   4   8
ATOM      8  C   UNL     1      -1.658   2.142   2.301  0.00  0.00    +0.215 C 
ATOM      9  O   UNL     1      -0.690   1.435   2.117  0.00  0.00    -0.276 OA
ATOM     10  N   UNL     1      -2.327   2.656   1.250  0.00  0.00    -0.311 N 
ATOM     11  H   UNL     1      -3.101   3.222   1.397  0.00  0.00    +0.149 HD
BRANCH  10  12
ATOM     12  C   UNL     1      -1.885   2.360  -0.115  0.00  0.00    +0.139 C 
BRANCH  12  13
ATOM     13  C   UNL     1      -2.795   3.050  -1.098  0.00  0.00    -0.030 A 
ATOM     14  C   UNL     1      -3.918   2.399  -1.574  0.00  0.00    +0.006 A 
ATOM     15  C   UNL     1      -4.756   3.033  -2.472  0.00  0.00    +0.020 A 
ATOM     16  C   UNL     1      -4.465   4.315  -2.903  0.00  0.00    +0.041 A 
ATOM     17  C   UNL     1      -3.337   4.964  -2.431  0.00  0.00    +0.020 A 
ATOM     18  C   UNL     1      -2.503   4.331  -1.529  0.00  0.00    +0.006 A 
ATOM     19 CL   UNL     1      -5.513   5.110  -4.035  0.00  0.00    -0.084 Cl
ENDBRANCH  12  13
ENDBRANCH  10  12
ENDBRANCH   4   8
BRANCH   6  20
ATOM     20  C   UNL     1      -0.707   1.477   7.062  0.00  0.00    -0.038 C 
BRANCH  20  23
ATOM     21  N   UNL     1      -0.897   3.675   9.980  0.00  0.00    -0.216 N 
ATOM     22  C   UNL     1      -0.525   3.437   8.693  0.00  0.00    +0.142 A 
ATOM     23  C   UNL     1      -0.912   2.170   8.384  0.00  0.00    -0.001 A 
ATOM     24  C   UNL     1      -1.539   1.626   9.509  0.00  0.00    +0.138 A 
ATOM     25  N   UNL     1      -1.526   2.521  10.464  0.00  0.00    -0.173 NA
BRANCH  21  29
ATOM     26  C   UNL     1      -0.274   7.208  12.103  0.00  0.00    +0.000 A 
ATOM     27  C   UNL     1      -1.422   6.468  12.317  0.00  0.00    +0.002 A 
ATOM     28  C   UNL     1      -1.632   5.297  11.615  0.00  0.00    +0.028 A 
ATOM     29  C   UNL     1      -0.688   4.863  10.693  0.00  0.00    +0.068 A 
ATOM     30  C   UNL     1       0.467   5.606  10.485  0.00  0.00    +0.028 A 
ATOM     31  C   UNL     1       0.668   6.778  11.187  0.00  0.00    +0.002 A 
ENDBRANCH  21  29
BRANCH  22  32
ATOM     32  N   UNL     1       0.133   4.330   7.843  0.00  0.00    -0.308 N 
ATOM     33  C   UNL     1       1.307   4.088   7.188  0.00  0.00    +0.092 A 
ATOM     34  C   UNL     1       1.620   5.183   6.466  0.00  0.00    +0.019 A 
ATOM     35  C   UNL     1       0.609   6.140   6.689  0.00  0.00    +0.019 A 
ATOM     36  C   UNL     1      -0.287   5.593   7.535  0.00  0.00    +0.092 A 
ENDBRANCH  22  32
ENDBRANCH  20  23
ENDBRANCH   6  20
TORSDOF 7
