REMARK  Name = ZINC27019154
REMARK  10 active torsions:
REMARK  status: ('A' for Active; 'I' for Inactive)
REMARK    1  A    between atoms: C_1  and  C_2
REMARK    2  A    between atoms: C_2  and  N_3
REMARK    3  A    between atoms: N_3  and  C_4
REMARK    4  A    between atoms: N_3  and  S_6
REMARK    5  A    between atoms: C_4  and  C_5
REMARK    6  A    between atoms: S_6  and  C_9
REMARK    7  A    between atoms: C_12  and  C_15
REMARK    8  A    between atoms: N_19  and  C_20
REMARK    9  A    between atoms: N_26  and  C_27
REMARK   10  A    between atoms: C_27  and  C_28
REMARK                            x       y       z     vdW  Elec       q    Type
REMARK                         _______ _______ _______ _____ _____    ______ ____
ROOT
ATOM      1  C   UNL     1      -1.572   6.094  -1.842  0.00  0.00    +0.058 A 
ATOM      2  C   UNL     1      -1.688   6.624  -3.077  0.00  0.00    +0.075 A 
ATOM      3  S   UNL     1       0.016   6.742  -3.596  0.00  0.00    -0.059 S 
ATOM      4  C   UNL     1       0.771   6.076  -2.120  0.00  0.00    +0.152 A 
ATOM      5  N   UNL     1       2.049   5.891  -1.849  0.00  0.00    -0.336 N 
ATOM      6  N   UNL     1      -0.330   5.807  -1.343  0.00  0.00    -0.316 N 
ATOM      7  H   UNL     1       2.355   5.547  -0.849  0.00  0.00    +0.168 HD
ENDROOT
BRANCH   1  11
ATOM      8  C   UNL     1      -5.041   5.317   0.484  0.00  0.00    +0.106 A 
ATOM      9  C   UNL     1      -4.837   6.578  -0.049  0.00  0.00    +0.029 A 
ATOM     10  C   UNL     1      -3.712   6.837  -0.805  0.00  0.00    +0.012 A 
ATOM     11  C   UNL     1      -2.779   5.824  -1.032  0.00  0.00    -0.001 A 
ATOM     12  C   UNL     1      -2.994   4.553  -0.497  0.00  0.00    +0.012 A 
ATOM     13  C   UNL     1      -4.120   4.308   0.262  0.00  0.00    +0.029 A 
BRANCH   8  14
ATOM     14  S   UNL     1      -6.480   4.995   1.448  0.00  0.00    +0.061 S 
ATOM     15  O   UNL     1      -6.168   3.892   2.287  0.00  0.00    -0.153 OA
ATOM     16  O   UNL     1      -6.911   6.247   1.965  0.00  0.00    -0.153 OA
BRANCH  14  17
ATOM     17  N   UNL     1      -7.661   4.480   0.408  0.00  0.00    -0.177 NA
BRANCH  17  19
ATOM     18  C   UNL     1      -8.863   2.445   1.036  0.00  0.00    +0.022 C 
ATOM     19  C   UNL     1      -7.805   3.053   0.113  0.00  0.00    +0.106 C 
ENDBRANCH  17  19
BRANCH  17  20
ATOM     20  C   UNL     1      -8.562   5.452  -0.216  0.00  0.00    +0.106 C 
ATOM     21  C   UNL     1      -8.024   5.834  -1.596  0.00  0.00    +0.022 C 
ENDBRANCH  17  20
ENDBRANCH  14  17
ENDBRANCH   8  14
ENDBRANCH   1  11
BRANCH   5  22
ATOM     22  C   UNL     1       2.993   6.125  -2.810  0.00  0.00    +0.041 A 
ATOM     23  C   UNL     1       3.358   5.109  -3.698  0.00  0.00    +0.025 A 
ATOM     24  C   UNL     1       4.307   5.354  -4.668  0.00  0.00    +0.002 A 
ATOM     25  C   UNL     1       4.906   6.599  -4.756  0.00  0.00    +0.000 A 
ATOM     26  C   UNL     1       4.554   7.607  -3.876  0.00  0.00    +0.002 A 
ATOM     27  C   UNL     1       3.603   7.378  -2.904  0.00  0.00    +0.025 A 
ENDBRANCH   5  22
BRANCH   6  28
ATOM     28  C   UNL     1      -0.178   5.231  -0.005  0.00  0.00    +0.161 C 
BRANCH  28  29
ATOM     29  C   UNL     1      -0.073   6.340   1.011  0.00  0.00    -0.010 A 
ATOM     30  C   UNL     1      -1.196   6.768   1.702  0.00  0.00    +0.008 A 
ATOM     31  C   UNL     1      -1.053   7.791   2.626  0.00  0.00    +0.020 A 
ATOM     32  C   UNL     1       0.197   8.347   2.826  0.00  0.00    +0.111 A 
ATOM     33  N   UNL     1       1.242   7.918   2.147  0.00  0.00    -0.263 NA
ATOM     34  C   UNL     1       1.144   6.943   1.264  0.00  0.00    +0.116 A 
ENDBRANCH  28  29
ENDBRANCH   6  28
TORSDOF 8
