REMARK  Name = ZINC39538111
REMARK  11 active torsions:
REMARK  status: ('A' for Active; 'I' for Inactive)
REMARK    1  A    between atoms: C_1  and  C_2
REMARK    2  A    between atoms: C_2  and  C_4
REMARK    3  A    between atoms: C_2  and  N_16
REMARK    4  A    between atoms: C_7  and  C_10
REMARK    5  A    between atoms: N_16  and  C_17
REMARK    6  A    between atoms: N_16  and  C_18
REMARK    7  A    between atoms: C_18  and  C_19
REMARK    8  A    between atoms: C_24  and  S_34
REMARK    9  A    between atoms: N_27  and  C_30
REMARK   10  A    between atoms: C_30  and  C_31
REMARK   11  A    between atoms: S_34  and  C_35
REMARK                            x       y       z     vdW  Elec       q    Type
REMARK                         _______ _______ _______ _____ _____    ______ ____
ROOT
ATOM      1  C   UNL     1      -1.174  -2.078   0.322  0.00  0.00    -0.037 C 
ENDROOT
BRANCH   1   2
ATOM      2  C   UNL     1      -2.514  -2.753   0.191  0.00  0.00    +0.001 A 
ATOM      3  C   UNL     1      -2.882  -3.298  -0.996  0.00  0.00    +0.017 A 
ATOM      4  C   UNL     1      -4.146  -3.931  -1.105  0.00  0.00    -0.001 A 
ATOM      5  C   UNL     1      -4.559  -4.506  -2.315  0.00  0.00    +0.011 A 
ATOM      6  C   UNL     1      -5.778  -5.110  -2.399  0.00  0.00    +0.015 A 
ATOM      7  C   UNL     1      -6.622  -5.162  -1.287  0.00  0.00    +0.010 A 
ATOM      8  C   UNL     1      -6.231  -4.598  -0.081  0.00  0.00    +0.041 A 
ATOM      9  C   UNL     1      -4.993  -3.981   0.021  0.00  0.00    +0.053 A 
ATOM     10  N   UNL     1      -4.582  -3.415   1.211  0.00  0.00    -0.303 N 
ATOM     11  C   UNL     1      -3.378  -2.821   1.303  0.00  0.00    +0.253 A 
ATOM     12  O   UNL     1      -3.030  -2.330   2.363  0.00  0.00    -0.267 OA
BRANCH   7  13
ATOM     13  S   UNL     1      -8.194  -5.947  -1.417  0.00  0.00    -0.129 S 
ATOM     14  C   UNL     1      -8.259  -6.517  -3.138  0.00  0.00    +0.090 C 
ENDBRANCH   7  13
BRANCH  10  15
ATOM     15  C   UNL     1      -5.461  -3.465   2.382  0.00  0.00    +0.172 C 
BRANCH  15  16
ATOM     16  C   UNL     1      -5.177  -4.718   3.170  0.00  0.00    +0.031 C 
ATOM     17  C   UNL     1      -4.685  -4.633   4.382  0.00  0.00    +0.027 C 
ATOM     18 CL   UNL     1      -5.502  -6.274   2.472  0.00  0.00    -0.087 Cl
ENDBRANCH  15  16
ENDBRANCH  10  15
ENDBRANCH   1   2
BRANCH   1  19
ATOM     19  N   UNL     1      -1.331  -0.632   0.112  0.00  0.00    +0.384 N 
ATOM     20  C   UNL     1      -2.147  -0.066   1.194  0.00  0.00    -0.095 C 
ATOM     21  H   UNL     1      -1.787  -0.469  -0.773  0.00  0.00    -0.081 HD
BRANCH  19  23
ATOM     22  C   UNL     1      -0.179   1.526   0.006  0.00  0.00    -0.011 C 
ATOM     23  C   UNL     1      -0.009   0.009   0.107  0.00  0.00    -0.049 C 
BRANCH  23  24
ATOM     24  C   UNL     1       0.798  -0.495  -1.091  0.00  0.00    +0.081 C 
ATOM     25  C   UNL     1       0.105  -0.109  -2.413  0.00  0.00    +0.079 C 
ATOM     26  C   UNL     1       1.115   0.778  -3.107  0.00  0.00    +0.068 C 
ATOM     27  N   UNL     1       2.165   0.893  -2.370  0.00  0.00    -0.191 NA
ATOM     28  N   UNL     1       2.098   0.191  -1.165  0.00  0.00    -0.267 N 
ATOM     29  H   UNL     1       2.792   0.160  -0.487  0.00  0.00    +0.168 HD
BRANCH  26  30
ATOM     30  C   UNL     1       0.926   1.412  -4.425  0.00  0.00    -0.002 A 
ATOM     31  C   UNL     1      -0.263   1.219  -5.133  0.00  0.00    +0.010 A 
ATOM     32  C   UNL     1      -0.432   1.815  -6.365  0.00  0.00    +0.001 A 
ATOM     33  C   UNL     1       0.571   2.604  -6.899  0.00  0.00    +0.000 A 
ATOM     34  C   UNL     1       1.751   2.800  -6.204  0.00  0.00    +0.001 A 
ATOM     35  C   UNL     1       1.932   2.214  -4.968  0.00  0.00    +0.010 A 
ENDBRANCH  26  30
ENDBRANCH  23  24
ENDBRANCH  19  23
ENDBRANCH   1  19
TORSDOF 8
