REMARK  Name = ZINC33283964
REMARK  6 active torsions:
REMARK  status: ('A' for Active; 'I' for Inactive)
REMARK    1  A    between atoms: C_7  and  N_17
REMARK    2  A    between atoms: C_10  and  N_11
REMARK    3  A    between atoms: C_20  and  C_23
REMARK    4  A    between atoms: N_25  and  C_26
REMARK    5  A    between atoms: C_26  and  C_27
REMARK    6  A    between atoms: C_27  and  C_28
REMARK                            x       y       z     vdW  Elec       q    Type
REMARK                         _______ _______ _______ _____ _____    ______ ____
ROOT
ATOM      1  N   UNL     1      -3.864   2.473   1.314  0.00  0.00    -0.313 N 
ATOM      2  C   UNL     1      -3.895   1.505   0.210  0.00  0.00    +0.107 C 
ATOM      3  C   UNL     1      -2.564   0.752   0.153  0.00  0.00    +0.031 C 
ATOM      4  C   UNL     1      -1.425   1.754  -0.055  0.00  0.00    +0.078 C 
ATOM      5  C   UNL     1      -1.444   2.781   1.081  0.00  0.00    +0.031 C 
ATOM      6  C   UNL     1      -2.808   3.474   1.113  0.00  0.00    +0.107 C 
ENDROOT
BRANCH   1  13
ATOM      7  C   UNL     1      -5.382   3.465   5.146  0.00  0.00    +0.001 A 
ATOM      8  C   UNL     1      -6.630   4.074   5.242  0.00  0.00    +0.001 A 
ATOM      9  C   UNL     1      -7.364   4.352   4.126  0.00  0.00    +0.012 A 
ATOM     10  C   UNL     1      -6.853   4.020   2.867  0.00  0.00    +0.025 A 
ATOM     11  C   UNL     1      -5.583   3.395   2.770  0.00  0.00    +0.027 A 
ATOM     12  C   UNL     1      -4.854   3.129   3.934  0.00  0.00    +0.012 A 
ATOM     13  C   UNL     1      -5.102   3.082   1.478  0.00  0.00    +0.149 A 
ATOM     14  N   UNL     1      -5.850   3.371   0.431  0.00  0.00    -0.157 NA
ATOM     15  N   UNL     1      -6.999   3.930   0.519  0.00  0.00    -0.262 N 
ATOM     16  C   UNL     1      -7.553   4.275   1.665  0.00  0.00    +0.123 A 
ATOM     17  H   UNL     1      -7.576   4.147  -0.392  0.00  0.00    +0.190 HD
BRANCH  16  18
ATOM     18  N   UNL     1      -8.803   4.880   1.691  0.00  0.00    -0.311 N 
ATOM     19  C   UNL     1      -9.830   3.992   1.129  0.00  0.00    +0.134 C 
ATOM     20  C   UNL     1     -11.198   4.672   1.232  0.00  0.00    +0.178 C 
ATOM     21  O   UNL     1     -11.148   5.935   0.562  0.00  0.00    -0.377 OA
ATOM     22  C   UNL     1     -10.159   6.825   1.085  0.00  0.00    +0.178 C 
ATOM     23  C   UNL     1      -8.781   6.167   0.980  0.00  0.00    +0.134 C 
ENDBRANCH  16  18
ENDBRANCH   1  13
BRANCH   4  24
ATOM     24  C   UNL     1      -0.106   1.025  -0.052  0.00  0.00    +0.216 C 
ATOM     25  O   UNL     1      -0.078  -0.178   0.098  0.00  0.00    -0.276 OA
ATOM     26  N   UNL     1       1.043   1.709  -0.223  0.00  0.00    -0.315 N 
ATOM     27  H   UNL     1       1.018   2.800  -0.359  0.00  0.00    +0.149 HD
BRANCH  26  28
ATOM     28  C   UNL     1       2.325   1.000  -0.227  0.00  0.00    +0.108 C 
BRANCH  28  29
ATOM     29  C   UNL     1       3.462   2.002  -0.436  0.00  0.00    +0.049 C 
BRANCH  29  30
ATOM     30  C   UNL     1       4.780   1.272  -0.440  0.00  0.00    -0.072 C 
ATOM     31  C   UNL     1       5.276   0.922  -1.583  0.00  0.00    -0.028 C 
ATOM     32  C   UNL     1       6.572   0.183  -1.746  0.00  0.00    +0.027 C 
ATOM     33  C   UNL     1       7.401   0.282  -0.464  0.00  0.00    +0.004 C 
ATOM     34  C   UNL     1       6.503  -0.088   0.724  0.00  0.00    +0.005 C 
ATOM     35  C   UNL     1       5.439   1.002   0.881  0.00  0.00    +0.030 C 
ENDBRANCH  29  30
ENDBRANCH  28  29
ENDBRANCH  26  28
ENDBRANCH   4  24
TORSDOF 6
