REMARK  Name = ZINC12602114
REMARK  5 active torsions:
REMARK  status: ('A' for Active; 'I' for Inactive)
REMARK    1  A    between atoms: C_6  and  C_7
REMARK    2  A    between atoms: C_7  and  C_9
REMARK    3  A    between atoms: C_9  and  O_10
REMARK    4  A    between atoms: O_10  and  C_11
REMARK    5  A    between atoms: C_11  and  C_13
REMARK                            x       y       z     vdW  Elec       q    Type
REMARK                         _______ _______ _______ _____ _____    ______ ____
ROOT
ATOM      1  C   UNL     1      -1.529   3.711   5.184  0.00  0.00    +0.311 C 
ENDROOT
BRANCH   1   2
ATOM      2  C   UNL     1      -1.588   5.215   5.261  0.00  0.00    +0.200 C 
ATOM      3  O   UNL     1      -1.097   5.887   4.379  0.00  0.00    -0.288 OA
BRANCH   2   9
ATOM      4  C   UNL     1      -2.808   5.092   7.423  0.00  0.00    +0.015 A 
ATOM      5  C   UNL     1      -3.419   5.704   8.496  0.00  0.00    +0.048 A 
ATOM      6  C   UNL     1      -3.474   7.088   8.570  0.00  0.00    +0.142 A 
ATOM      7  C   UNL     1      -2.910   7.868   7.555  0.00  0.00    +0.076 A 
ATOM      8  C   UNL     1      -2.291   7.264   6.480  0.00  0.00    +0.038 A 
ATOM      9  C   UNL     1      -2.240   5.866   6.404  0.00  0.00    +0.023 A 
ATOM     10  N   UNL     1      -2.978   9.266   7.648  0.00  0.00    -0.280 N 
ATOM     11  C   UNL     1      -3.290   9.828   8.836  0.00  0.00    +0.255 C 
ATOM     12  O   UNL     1      -3.384  11.033   8.934  0.00  0.00    -0.272 OA
ATOM     13  C   UNL     1      -3.521   8.951  10.040  0.00  0.00    +0.325 C 
ATOM     14  O   UNL     1      -4.073   7.699   9.625  0.00  0.00    -0.481 OA
ATOM     15  H   UNL     1      -2.780   9.886   6.762  0.00  0.00    +0.155 HD
ENDBRANCH   2   9
ENDBRANCH   1   2
BRANCH   1  16
ATOM     16  O   UNL     1      -0.839   3.315   3.970  0.00  0.00    -0.456 OA
BRANCH  16  17
ATOM     17  C   UNL     1      -0.700   1.998   3.749  0.00  0.00    +0.314 C 
ATOM     18  O   UNL     1      -1.141   1.203   4.544  0.00  0.00    -0.250 OA
BRANCH  17  19
ATOM     19  C   UNL     1       0.005   1.512   2.509  0.00  0.00    +0.070 C 
ATOM     20  C   UNL     1      -0.735   2.019   1.269  0.00  0.00    +0.021 C 
ATOM     21  C   UNL     1      -0.019   1.526   0.010  0.00  0.00    -0.008 C 
ATOM     22  C   UNL     1       1.417   2.055  -0.000  0.00  0.00    +0.007 C 
ATOM     23  C   UNL     1       2.157   1.548   1.239  0.00  0.00    -0.008 C 
ATOM     24  C   UNL     1       1.441   2.042   2.498  0.00  0.00    +0.021 C 
ATOM     25  C   UNL     1       2.178   0.019   1.231  0.00  0.00    +0.021 C 
ATOM     26  C   UNL     1       0.742  -0.511   1.242  0.00  0.00    +0.028 C 
ATOM     27  C   UNL     1       0.002  -0.004   0.002  0.00  0.00    +0.021 C 
ATOM     28  C   UNL     1       0.026  -0.018   2.500  0.00  0.00    +0.036 C 
ATOM     29 BR   UNL     1       0.769  -2.477   1.231  0.00  0.00    -0.084 Br
ENDBRANCH  17  19
ENDBRANCH  16  17
ENDBRANCH   1  16
TORSDOF 5
