REMARK  Name = ZINC09884367
REMARK  11 active torsions:
REMARK  status: ('A' for Active; 'I' for Inactive)
REMARK    1  A    between atoms: C_1  and  N_2
REMARK    2  A    between atoms: N_2  and  C_3
REMARK    3  A    between atoms: N_2  and  C_4
REMARK    4  A    between atoms: C_4  and  C_6
REMARK    5  A    between atoms: C_4  and  C_29
REMARK    6  A    between atoms: C_6  and  N_7
REMARK    7  A    between atoms: C_8  and  C_10
REMARK    8  A    between atoms: C_12  and  S_17
REMARK    9  A    between atoms: S_17  and  N_20
REMARK   10  A    between atoms: N_20  and  C_21
REMARK   11  A    between atoms: N_20  and  C_22
REMARK                            x       y       z     vdW  Elec       q    Type
REMARK                         _______ _______ _______ _____ _____    ______ ____
ROOT
ATOM      1  C   UNL     1      -1.553   3.883  -3.163  0.00  0.00    +0.057 A 
ATOM      2  C   UNL     1      -0.967   4.375  -1.995  0.00  0.00    +0.043 A 
ATOM      3  C   UNL     1      -0.757   5.730  -1.849  0.00  0.00    +0.110 A 
ATOM      4  C   UNL     1      -1.127   6.604  -2.857  0.00  0.00    +0.030 A 
ATOM      5  C   UNL     1      -1.708   6.125  -4.017  0.00  0.00    +0.022 A 
ATOM      6  C   UNL     1      -1.919   4.769  -4.179  0.00  0.00    +0.053 A 
ATOM      7 CL   UNL     1      -2.641   4.169  -5.639  0.00  0.00    -0.083 Cl
ENDROOT
BRANCH   1   9
ATOM      8  N   UNL     1      -1.425   1.580  -2.343  0.00  0.00    -0.312 N 
ATOM      9  C   UNL     1      -1.780   2.432  -3.326  0.00  0.00    +0.246 C 
ATOM     10  O   UNL     1      -2.285   2.007  -4.346  0.00  0.00    -0.270 OA
ATOM     11  H   UNL     1      -1.022   1.920  -1.529  0.00  0.00    +0.149 HD
BRANCH   8  12
ATOM     12  C   UNL     1      -1.650   0.142  -2.505  0.00  0.00    +0.097 C 
BRANCH  12  13
ATOM     13  C   UNL     1      -1.075  -0.603  -1.298  0.00  0.00    +0.016 C 
BRANCH  13  14
ATOM     14  C   UNL     1      -1.824  -0.199  -0.055  0.00  0.00    +0.093 A 
ATOM     15  C   UNL     1      -1.410   0.700   0.856  0.00  0.00    +0.043 A 
ATOM     16  C   UNL     1      -2.414   0.768   1.849  0.00  0.00    +0.041 A 
ATOM     17  C   UNL     1      -3.381  -0.093   1.486  0.00  0.00    +0.195 A 
ATOM     18  O   UNL     1      -3.021  -0.672   0.329  0.00  0.00    -0.469 OA
ENDBRANCH  13  14
BRANCH  13  20
ATOM     19  C   UNL     1      -0.466  -2.448  -2.706  0.00  0.00    -0.096 C 
ATOM     20  N   UNL     1      -1.213  -2.051  -1.505  0.00  0.00    +0.384 N 
ATOM     21  C   UNL     1      -0.680  -2.765  -0.338  0.00  0.00    -0.096 C 
ATOM     22  H   UNL     1      -2.188  -2.282  -1.625  0.00  0.00    -0.082 HD
ENDBRANCH  13  20
ENDBRANCH  12  13
ENDBRANCH   8  12
ENDBRANCH   1   9
BRANCH   3  23
ATOM     23  S   UNL     1      -0.018   6.351  -0.376  0.00  0.00    +0.074 S 
ATOM     24  O   UNL     1      -0.428   7.706  -0.255  0.00  0.00    -0.150 OA
ATOM     25  O   UNL     1      -0.263   5.388   0.640  0.00  0.00    -0.150 OA
BRANCH  23  26
ATOM     26  N   UNL     1       1.620   6.373  -0.621  0.00  0.00    -0.206 N 
ATOM     27  C   UNL     1       2.271   7.591  -1.111  0.00  0.00    +0.157 C 
BRANCH  26  28
ATOM     28  C   UNL     1       2.381   5.230  -0.361  0.00  0.00    +0.051 A 
ATOM     29  C   UNL     1       3.094   4.621  -1.385  0.00  0.00    +0.027 A 
ATOM     30  C   UNL     1       3.846   3.492  -1.126  0.00  0.00    +0.040 A 
ATOM     31  C   UNL     1       3.889   2.967   0.155  0.00  0.00    +0.124 A 
ATOM     32  C   UNL     1       3.179   3.572   1.178  0.00  0.00    +0.040 A 
ATOM     33  C   UNL     1       2.430   4.705   0.924  0.00  0.00    +0.027 A 
ATOM     34  F   UNL     1       4.625   1.862   0.407  0.00  0.00    -0.205 F 
ENDBRANCH  26  28
ENDBRANCH  23  26
ENDBRANCH   3  23
TORSDOF 8
