REMARK  Name = ZINC03336239
REMARK  5 active torsions:
REMARK  status: ('A' for Active; 'I' for Inactive)
REMARK    1  A    between atoms: C_1  and  C_2
REMARK    2  A    between atoms: C_2  and  C_3
REMARK    3  A    between atoms: C_2  and  N_4
REMARK    4  A    between atoms: C_8  and  C_10
REMARK    5  A    between atoms: C_10  and  N_11
REMARK                            x       y       z     vdW  Elec       q    Type
REMARK                         _______ _______ _______ _____ _____    ______ ____
ROOT
ATOM      1  N   UNL     1      -4.623  -5.286  -1.553  0.00  0.00    -0.215 N 
ATOM      2  C   UNL     1      -4.806  -5.531  -2.867  0.00  0.00    +0.247 C 
ATOM      3  O   UNL     1      -4.971  -4.717  -3.750  0.00  0.00    -0.273 OA
ATOM      4  C   UNL     1      -4.763  -7.035  -3.005  0.00  0.00    +0.117 C 
ATOM      5  C   UNL     1      -3.611  -7.456  -3.914  0.00  0.00    +0.040 C 
ATOM      6  C   UNL     1      -3.433  -8.969  -3.803  0.00  0.00    +0.038 C 
ATOM      7  C   UNL     1      -4.750  -9.675  -3.995  0.00  0.00    -0.044 A 
ATOM      8  C   UNL     1      -4.716 -11.029  -4.305  0.00  0.00    +0.004 A 
ATOM      9  C   UNL     1      -5.886 -11.736  -4.488  0.00  0.00    +0.000 A 
ATOM     10  C   UNL     1      -7.104 -11.094  -4.361  0.00  0.00    +0.000 A 
ATOM     11  C   UNL     1      -7.140  -9.750  -4.055  0.00  0.00    +0.004 A 
ATOM     12  C   UNL     1      -5.963  -9.035  -3.874  0.00  0.00    -0.042 A 
ATOM     13  C   UNL     1      -6.076  -7.566  -3.559  0.00  0.00    +0.070 C 
ATOM     14  N   UNL     1      -4.541  -7.515  -1.636  0.00  0.00    -0.285 N 
ATOM     15  C   UNL     1      -4.466  -6.418  -0.856  0.00  0.00    +0.310 C 
ATOM     16  O   UNL     1      -4.282  -6.454   0.344  0.00  0.00    -0.252 OA
ATOM     17  H   UNL     1      -4.460  -8.438  -1.349  0.00  0.00    +0.151 HD
ENDROOT
BRANCH   1  18
ATOM     18  C   UNL     1      -4.592  -3.945  -0.962  0.00  0.00    +0.214 C 
BRANCH  18  23
ATOM     19  N   UNL     1      -1.372  -0.511   0.012  0.00  0.00    -0.297 N 
ATOM     20  C   UNL     1      -1.643  -1.734  -0.485  0.00  0.00    +0.306 C 
ATOM     21  O   UNL     1      -0.747  -2.416  -0.942  0.00  0.00    -0.252 OA
ATOM     22  N   UNL     1      -2.908  -2.201  -0.475  0.00  0.00    -0.239 N 
ATOM     23  C   UNL     1      -3.178  -3.424  -0.973  0.00  0.00    +0.238 C 
ATOM     24  O   UNL     1      -2.285  -4.104  -1.429  0.00  0.00    -0.274 OA
ATOM     25  H   UNL     1      -2.087   0.033   0.377  0.00  0.00    +0.151 HD
ATOM     26  H   UNL     1      -3.623  -1.656  -0.111  0.00  0.00    +0.159 HD
BRANCH  19  28
ATOM     27  C   UNL     1      -0.019   1.526   0.010  0.00  0.00    +0.027 C 
ATOM     28  C   UNL     1       0.002  -0.004   0.002  0.00  0.00    +0.068 C 
ATOM     29  C   UNL     1       0.742  -0.511   1.242  0.00  0.00    +0.027 C 
ENDBRANCH  19  28
ENDBRANCH  18  23
ENDBRANCH   1  18
TORSDOF 3
