REMARK  Name = ZINC60016095
REMARK  13 active torsions:
REMARK  status: ('A' for Active; 'I' for Inactive)
REMARK    1  A    between atoms: C_1  and  C_2
REMARK    2  A    between atoms: C_2  and  N_3
REMARK    3  A    between atoms: N_3  and  C_4
REMARK    4  A    between atoms: N_3  and  S_6
REMARK    5  A    between atoms: C_4  and  C_5
REMARK    6  A    between atoms: S_6  and  C_9
REMARK    7  A    between atoms: C_13  and  C_15
REMARK    8  A    between atoms: N_17  and  C_18
REMARK    9  A    between atoms: C_18  and  C_20
REMARK   10  A    between atoms: C_18  and  C_21
REMARK   11  A    between atoms: C_21  and  N_22
REMARK   12  A    between atoms: C_24  and  C_31
REMARK   13  A    between atoms: C_27  and  C_30
REMARK                            x       y       z     vdW  Elec       q    Type
REMARK                         _______ _______ _______ _____ _____    ______ ____
ROOT
ATOM      1  C   UNL     1      -6.251   2.196   1.834  0.00  0.00    +0.246 C 
ATOM      2  O   UNL     1      -6.803   3.192   2.259  0.00  0.00    -0.270 OA
ATOM      3  N   UNL     1      -6.920   1.345   1.031  0.00  0.00    -0.310 N 
ATOM      4  H   UNL     1      -6.479   0.550   0.693  0.00  0.00    +0.149 HD
ENDROOT
BRANCH   1   9
ATOM      5  C   UNL     1      -2.898   0.520   2.058  0.00  0.00    +0.106 A 
ATOM      6  C   UNL     1      -2.213   1.396   2.882  0.00  0.00    +0.030 A 
ATOM      7  C   UNL     1      -2.836   2.530   3.367  0.00  0.00    +0.022 A 
ATOM      8  C   UNL     1      -4.149   2.797   3.031  0.00  0.00    +0.053 A 
ATOM      9  C   UNL     1      -4.846   1.917   2.199  0.00  0.00    +0.057 A 
ATOM     10  C   UNL     1      -4.207   0.777   1.709  0.00  0.00    +0.043 A 
ATOM     11 CL   UNL     1      -4.932   4.222   3.641  0.00  0.00    -0.083 Cl
BRANCH   5  12
ATOM     12  S   UNL     1      -2.092  -0.923   1.446  0.00  0.00    +0.061 S 
ATOM     13  O   UNL     1      -3.116  -1.857   1.133  0.00  0.00    -0.153 OA
ATOM     14  O   UNL     1      -1.043  -1.219   2.357  0.00  0.00    -0.153 OA
BRANCH  12  15
ATOM     15  N   UNL     1      -1.372  -0.511   0.012  0.00  0.00    -0.177 NA
BRANCH  15  17
ATOM     16  C   UNL     1      -0.019   1.526   0.010  0.00  0.00    +0.022 C 
ATOM     17  C   UNL     1       0.002  -0.004   0.002  0.00  0.00    +0.106 C 
ENDBRANCH  15  17
BRANCH  15  18
ATOM     18  C   UNL     1      -2.110  -0.654  -1.245  0.00  0.00    +0.106 C 
ATOM     19  C   UNL     1      -1.773  -2.003  -1.884  0.00  0.00    +0.022 C 
ENDBRANCH  15  18
ENDBRANCH  12  15
ENDBRANCH   5  12
ENDBRANCH   1   9
BRANCH   3  20
ATOM     20  C   UNL     1      -8.312   1.620   0.670  0.00  0.00    +0.054 C 
ATOM     21  C   UNL     1      -9.239   1.085   1.764  0.00  0.00    +0.026 C 
BRANCH  20  22
ATOM     22  C   UNL     1      -8.640   0.933  -0.657  0.00  0.00    -0.057 C 
BRANCH  22  23
ATOM     23  N   UNL     1      -7.675   1.358  -1.680  0.00  0.00    +0.381 N 
ATOM     24  C   UNL     1      -7.829   2.796  -1.929  0.00  0.00    -0.076 C 
ATOM     25  C   UNL     1      -6.772   3.260  -2.934  0.00  0.00    -0.031 C 
ATOM     26  C   UNL     1      -6.951   2.491  -4.246  0.00  0.00    +0.003 C 
ATOM     27  C   UNL     1      -6.863   0.989  -3.962  0.00  0.00    -0.031 C 
ATOM     28  C   UNL     1      -7.916   0.609  -2.919  0.00  0.00    -0.076 C 
ATOM     29  C   UNL     1      -7.117   0.209  -5.254  0.00  0.00    +0.005 C 
ATOM     30  C   UNL     1      -6.935   4.759  -3.192  0.00  0.00    +0.005 C 
ATOM     31  H   UNL     1      -6.738   1.173  -1.354  0.00  0.00    -0.082 HD
ENDBRANCH  22  23
ENDBRANCH  20  22
ENDBRANCH   3  20
TORSDOF 8
