REMARK  Name = ZINC05190807
REMARK  3 active torsions:
REMARK  status: ('A' for Active; 'I' for Inactive)
REMARK    1  A    between atoms: C_1  and  C_2
REMARK    2  A    between atoms: C_2  and  C_25
REMARK    3  A    between atoms: C_6  and  C_17
REMARK                            x       y       z     vdW  Elec       q    Type
REMARK                         _______ _______ _______ _____ _____    ______ ____
ROOT
ATOM      1  C   UNL     1       3.153   6.001   3.027  0.00  0.00    +0.011 C 
ATOM      2  C   UNL     1       2.377   4.989   3.873  0.00  0.00    -0.023 C 
ATOM      3  C   UNL     1       0.909   4.980   3.453  0.00  0.00    +0.058 C 
ATOM      4  C   UNL     1       0.793   4.603   1.984  0.00  0.00    +0.017 C 
ATOM      5  C   UNL     1       1.666   3.744   1.433  0.00  0.00    +0.039 C 
ATOM      6  C   UNL     1       1.647   3.256   0.004  0.00  0.00    +0.172 C 
ATOM      7  N   UNL     1       0.748   3.985  -0.866  0.00  0.00    -0.329 N 
ATOM      8  C   UNL     1      -0.630   3.959  -0.662  0.00  0.00    +0.051 A 
ATOM      9  C   UNL     1      -1.488   3.384  -1.586  0.00  0.00    +0.044 A 
ATOM     10  C   UNL     1      -2.846   3.341  -1.319  0.00  0.00    +0.043 A 
ATOM     11  C   UNL     1      -3.344   3.865  -0.139  0.00  0.00    +0.022 A 
ATOM     12  C   UNL     1      -2.491   4.455   0.778  0.00  0.00    +0.026 A 
ATOM     13  C   UNL     1      -1.136   4.516   0.503  0.00  0.00    +0.052 A 
ATOM     14  N   UNL     1      -0.241   5.188   1.329  0.00  0.00    -0.316 N 
ATOM     15 CL   UNL     1      -3.930   2.627  -2.472  0.00  0.00    -0.083 Cl
ATOM     16  C   UNL     1       2.726   3.211   2.204  0.00  0.00    +0.163 C 
ATOM     17  O   UNL     1       3.493   2.426   1.682  0.00  0.00    -0.292 OA
ATOM     18  C   UNL     1       2.938   3.580   3.642  0.00  0.00    +0.086 C 
ATOM     19  C   UNL     1       2.490   5.355   5.354  0.00  0.00    +0.011 C 
ATOM     20  H   UNL     1       1.112   4.500  -1.603  0.00  0.00    +0.147 HD
ATOM     21  H   UNL     1      -0.365   6.143   1.445  0.00  0.00    +0.152 HD
ENDROOT
BRANCH   6  22
ATOM     22  C   UNL     1       1.244   1.804  -0.000  0.00  0.00    +0.130 A 
ATOM     23  C   UNL     1       2.084   0.754  -0.014  0.00  0.00    +0.047 A 
ATOM     24  C   UNL     1       1.284  -0.412  -0.012  0.00  0.00    +0.041 A 
ATOM     25  C   UNL     1       0.002  -0.004   0.002  0.00  0.00    +0.195 A 
ATOM     26  O   UNL     1      -0.016   1.339   0.009  0.00  0.00    -0.466 OA
ENDBRANCH   6  22
TORSDOF 1
