REMARK  Name = ZINC09783431
REMARK  8 active torsions:
REMARK  status: ('A' for Active; 'I' for Inactive)
REMARK    1  A    between atoms: C_1  and  C_2
REMARK    2  A    between atoms: C_3  and  C_16
REMARK    3  A    between atoms: N_5  and  C_7
REMARK    4  A    between atoms: C_7  and  C_8
REMARK    5  A    between atoms: N_17  and  N_18
REMARK    6  A    between atoms: N_18  and  C_19
REMARK    7  A    between atoms: C_22  and  S_25
REMARK    8  A    between atoms: S_25  and  N_28
REMARK                            x       y       z     vdW  Elec       q    Type
REMARK                         _______ _______ _______ _____ _____    ______ ____
ROOT
ATOM      1  C   UNL     1       1.324   1.718   2.813  0.00  0.00    +0.143 C 
ATOM      2  N   UNL     1       1.751   2.008   4.004  0.00  0.00    -0.190 NA
ENDROOT
BRANCH   1   5
ATOM      3  C   UNL     1      -0.013   1.086   0.008  0.00  0.00    +0.068 C 
ATOM      4  C   UNL     1      -0.718   1.572   1.248  0.00  0.00    +0.070 A 
ATOM      5  C   UNL     1      -0.111   1.849   2.491  0.00  0.00    +0.054 A 
ATOM      6  C   UNL     1      -1.107   2.267   3.349  0.00  0.00    +0.136 A 
ATOM      7  N   UNL     1      -2.266   2.244   2.661  0.00  0.00    -0.248 N 
ATOM      8  N   UNL     1      -1.996   1.815   1.357  0.00  0.00    -0.174 NA
ATOM      9 CL   UNL     1      -0.905   2.733   5.009  0.00  0.00    -0.062 Cl
BRANCH   7  10
ATOM     10  C   UNL     1      -3.583   2.613   3.187  0.00  0.00    +0.180 C 
BRANCH  10  11
ATOM     11  C   UNL     1      -3.820   4.084   2.963  0.00  0.00    -0.026 A 
ATOM     12  C   UNL     1      -3.441   5.000   3.927  0.00  0.00    +0.007 A 
ATOM     13  C   UNL     1      -3.653   6.349   3.719  0.00  0.00    +0.020 A 
ATOM     14  C   UNL     1      -4.255   6.783   2.552  0.00  0.00    +0.041 A 
ATOM     15  C   UNL     1      -4.639   5.866   1.590  0.00  0.00    +0.020 A 
ATOM     16  C   UNL     1      -4.422   4.517   1.796  0.00  0.00    +0.007 A 
ATOM     17 CL   UNL     1      -4.528   8.478   2.293  0.00  0.00    -0.084 Cl
ENDBRANCH  10  11
ENDBRANCH   7  10
ENDBRANCH   1   5
BRANCH   2  18
ATOM     18  N   UNL     1       3.112   1.884   4.309  0.00  0.00    -0.238 N 
ATOM     19  H   UNL     1       3.736   1.581   3.631  0.00  0.00    +0.174 HD
BRANCH  18  20
ATOM     20  C   UNL     1       3.571   2.196   5.589  0.00  0.00    +0.048 A 
ATOM     21  C   UNL     1       2.680   2.636   6.561  0.00  0.00    +0.026 A 
ATOM     22  C   UNL     1       3.137   2.939   7.828  0.00  0.00    +0.030 A 
ATOM     23  C   UNL     1       4.482   2.816   8.128  0.00  0.00    +0.105 A 
ATOM     24  C   UNL     1       5.372   2.383   7.162  0.00  0.00    +0.030 A 
ATOM     25  C   UNL     1       4.922   2.073   5.894  0.00  0.00    +0.026 A 
BRANCH  23  26
ATOM     26  S   UNL     1       5.062   3.210   9.744  0.00  0.00    +0.056 S 
ATOM     27  O   UNL     1       3.951   3.068  10.620  0.00  0.00    -0.153 OA
ATOM     28  O   UNL     1       6.273   2.490   9.928  0.00  0.00    -0.153 OA
BRANCH  26  29
ATOM     29  N   UNL     1       5.461   4.817   9.743  0.00  0.00    -0.204 NA
ATOM     30  H   UNL     1       5.352   5.343   8.935  0.00  0.00    +0.144 HD
ATOM     31  H   UNL     1       5.805   5.232  10.549  0.00  0.00    +0.144 HD
ENDBRANCH  26  29
ENDBRANCH  23  26
ENDBRANCH  18  20
ENDBRANCH   2  18
TORSDOF 7
