REMARK  Name = ZINC12951652
REMARK  10 active torsions:
REMARK  status: ('A' for Active; 'I' for Inactive)
REMARK    1  A    between atoms: C_1  and  O_2
REMARK    2  A    between atoms: O_2  and  C_3
REMARK    3  A    between atoms: C_6  and  O_37
REMARK    4  A    between atoms: C_7  and  C_9
REMARK    5  A    between atoms: C_11  and  C_33
REMARK    6  A    between atoms: C_13  and  N_32
REMARK    7  A    between atoms: C_14  and  C_18
REMARK    8  A    between atoms: N_20  and  C_21
REMARK    9  A    between atoms: C_22  and  C_30
REMARK   10  A    between atoms: O_37  and  C_38
REMARK                            x       y       z     vdW  Elec       q    Type
REMARK                         _______ _______ _______ _____ _____    ______ ____
ROOT
ATOM      1  C   UNL     1      -1.972   2.436   3.534  0.00  0.00    +0.076 A 
ATOM      2  C   UNL     1      -2.574   2.844   4.729  0.00  0.00    +0.041 A 
ATOM      3  C   UNL     1      -3.694   3.619   4.707  0.00  0.00    +0.068 A 
ATOM      4  C   UNL     1      -4.250   4.000   3.459  0.00  0.00    +0.041 A 
ATOM      5  C   UNL     1      -5.430   4.809   3.202  0.00  0.00    +0.054 A 
ATOM      6  C   UNL     1      -5.785   5.052   1.892  0.00  0.00    +0.097 A 
ATOM      7  S   UNL     1      -4.534   4.192   0.959  0.00  0.00    -0.062 S 
ATOM      8  C   UNL     1      -3.577   3.537   2.304  0.00  0.00    +0.112 A 
ATOM      9  N   UNL     1      -2.494   2.793   2.367  0.00  0.00    -0.239 NA
ENDROOT
BRANCH   1  14
ATOM     10  C   UNL     1       0.941   0.435   4.822  0.00  0.00    +0.121 A 
ATOM     11  C   UNL     1       1.535   0.026   3.636  0.00  0.00    +0.049 A 
ATOM     12  C   UNL     1       0.990   0.393   2.421  0.00  0.00    +0.050 A 
ATOM     13  C   UNL     1      -0.149   1.182   2.379  0.00  0.00    +0.129 A 
ATOM     14  C   UNL     1      -0.752   1.598   3.571  0.00  0.00    +0.045 A 
ATOM     15  C   UNL     1      -0.199   1.219   4.794  0.00  0.00    +0.059 A 
BRANCH  10  17
ATOM     16  C   UNL     1       2.657  -0.744   5.970  0.00  0.00    +0.277 C 
ATOM     17  O   UNL     1       1.480   0.065   6.014  0.00  0.00    -0.495 OA
ENDBRANCH  10  17
BRANCH  13  18
ATOM     18  O   UNL     1      -0.682   1.547   1.184  0.00  0.00    -0.494 OA
ATOM     19  C   UNL     1      -0.013   1.086   0.008  0.00  0.00    +0.277 C 
ENDBRANCH  13  18
ENDBRANCH   1  14
BRANCH   6  20
ATOM     20  C   UNL     1      -6.882   5.804   1.405  0.00  0.00    +0.257 C 
ATOM     21  O   UNL     1      -7.652   6.334   2.186  0.00  0.00    -0.269 OA
ATOM     22  N   UNL     1      -7.073   5.934   0.077  0.00  0.00    -0.274 N 
ATOM     23  H   UNL     1      -6.459   5.512  -0.545  0.00  0.00    +0.156 HD
BRANCH  22  24
ATOM     24  C   UNL     1      -8.146   6.670  -0.400  0.00  0.00    +0.090 A 
ATOM     25  C   UNL     1      -8.506   6.916  -1.717  0.00  0.00    +0.084 A 
ATOM     26  C   UNL     1      -9.688   7.727  -1.951  0.00  0.00    -0.018 A 
ATOM     27  C   UNL     1     -10.318   8.160  -0.837  0.00  0.00    -0.004 A 
ATOM     28  S   UNL     1      -9.369   7.501   0.504  0.00  0.00    -0.077 S 
ATOM     29  C   UNL     1     -11.551   9.007  -0.768  0.00  0.00    +0.043 C 
ATOM     30  C   UNL     1     -11.789   9.628  -2.152  0.00  0.00    +0.005 C 
ATOM     31  C   UNL     1     -11.669   8.530  -3.213  0.00  0.00    +0.005 C 
ATOM     32  C   UNL     1     -10.211   8.083  -3.337  0.00  0.00    +0.037 C 
BRANCH  25  33
ATOM     33  C   UNL     1      -7.739   6.389  -2.806  0.00  0.00    +0.102 C 
ATOM     34  N   UNL     1      -7.132   5.971  -3.670  0.00  0.00    -0.191 NA
ENDBRANCH  25  33
ENDBRANCH  22  24
ENDBRANCH   6  20
BRANCH   3  35
ATOM     35  C   UNL     1      -4.338   4.063   5.995  0.00  0.00    +0.418 C 
ATOM     36  F   UNL     1      -3.607   3.563   7.079  0.00  0.00    -0.166 F 
ATOM     37  F   UNL     1      -4.356   5.461   6.051  0.00  0.00    -0.166 F 
ATOM     38  F   UNL     1      -5.649   3.577   6.053  0.00  0.00    -0.166 F 
ENDBRANCH   3  35
BRANCH   5  39
ATOM     39  N   UNL     1      -6.181   5.325   4.250  0.00  0.00    -0.356 N 
ATOM     40  H   UNL     1      -5.920   5.146   5.167  0.00  0.00    +0.142 HD
ATOM     41  H   UNL     1      -6.966   5.864   4.065  0.00  0.00    +0.142 HD
ENDBRANCH   5  39
TORSDOF 8
