REMARK  Name = ZINC62528101
REMARK  4 active torsions:
REMARK  status: ('A' for Active; 'I' for Inactive)
REMARK    1  A    between atoms: C_1  and  C_2
REMARK    2  A    between atoms: C_4  and  C_17
REMARK    3  A    between atoms: C_7  and  N_8
REMARK    4  A    between atoms: C_11  and  C_16
REMARK                            x       y       z     vdW  Elec       q    Type
REMARK                         _______ _______ _______ _____ _____    ______ ____
ROOT
ATOM      1  C   UNL     1      -0.822   1.883   1.044  0.00  0.00    +0.046 C 
ATOM      2  C   UNL     1      -0.523   0.415   0.879  0.00  0.00    -0.026 A 
ATOM      3  C   UNL     1      -0.163  -0.080  -0.361  0.00  0.00    +0.010 A 
ATOM      4  C   UNL     1       0.114  -1.425  -0.520  0.00  0.00    -0.025 A 
ATOM      5  C   UNL     1       0.031  -2.283   0.567  0.00  0.00    +0.080 A 
ATOM      6  C   UNL     1      -0.333  -1.791   1.817  0.00  0.00    +0.163 A 
ATOM      7  C   UNL     1      -0.603  -0.436   1.973  0.00  0.00    +0.072 A 
ATOM      8  O   UNL     1      -0.423  -2.639   2.876  0.00  0.00    -0.487 OA
ATOM      9  C   UNL     1      -1.560  -3.496   2.929  0.00  0.00    +0.241 C 
ATOM     10  C   UNL     1      -1.838  -4.099   1.554  0.00  0.00    +0.110 C 
ATOM     11  C   UNL     1      -0.550  -4.560   0.922  0.00  0.00    +0.223 C 
ATOM     12  O   UNL     1      -0.289  -5.743   0.862  0.00  0.00    -0.275 OA
ATOM     13  N   UNL     1       0.314  -3.648   0.422  0.00  0.00    -0.282 N 
ATOM     14  C   UNL     1      -2.491  -3.044   0.659  0.00  0.00    +0.020 C 
ATOM     15  C   UNL     1       0.506  -1.959  -1.873  0.00  0.00    +0.046 C 
ATOM     16  H   UNL     1       1.121  -3.935  -0.033  0.00  0.00    +0.155 HD
ENDROOT
BRANCH   7  17
ATOM     17  N   UNL     1      -0.961   0.068   3.229  0.00  0.00    -0.355 N 
ATOM     18  H   UNL     1      -1.153   1.013   3.336  0.00  0.00    +0.142 HD
ATOM     19  H   UNL     1      -1.016  -0.527   3.993  0.00  0.00    +0.142 HD
ENDBRANCH   7  17
TORSDOF 1
