REMARK  Name = ZINC46017473
REMARK  7 active torsions:
REMARK  status: ('A' for Active; 'I' for Inactive)
REMARK    1  A    between atoms: C_1  and  C_2
REMARK    2  A    between atoms: C_2  and  C_3
REMARK    3  A    between atoms: C_3  and  N_4
REMARK    4  A    between atoms: C_8  and  N_14
REMARK    5  A    between atoms: N_14  and  S_15
REMARK    6  A    between atoms: S_15  and  C_18
REMARK    7  A    between atoms: C_21  and  C_24
REMARK                            x       y       z     vdW  Elec       q    Type
REMARK                         _______ _______ _______ _____ _____    ______ ____
ROOT
ATOM      1  N   UNL     1       4.795  -5.079   1.006  0.00  0.00    -0.216 N 
ATOM      2  H   UNL     1       5.141  -5.837   0.509  0.00  0.00    +0.174 HD
ENDROOT
BRANCH   1   7
ATOM      3  N   UNL     1       0.738  -1.962  -1.265  0.00  0.00    -0.302 N 
ATOM      4  C   UNL     1       1.794  -2.638  -0.671  0.00  0.00    +0.059 A 
ATOM      5  C   UNL     1       2.913  -2.084  -0.027  0.00  0.00    +0.029 A 
ATOM      6  C   UNL     1       3.886  -2.888   0.517  0.00  0.00    +0.026 A 
ATOM      7  C   UNL     1       3.796  -4.274   0.448  0.00  0.00    +0.049 A 
ATOM      8  C   UNL     1       2.699  -4.847  -0.185  0.00  0.00    +0.041 A 
ATOM      9  C   UNL     1       1.730  -4.038  -0.726  0.00  0.00    +0.043 A 
ATOM     10  S   UNL     1       0.211  -4.341  -1.597  0.00  0.00    -0.027 S 
ATOM     11  C   UNL     1      -0.272  -2.640  -1.844  0.00  0.00    +0.292 A 
ATOM     12  O   UNL     1      -1.264  -2.203  -2.398  0.00  0.00    -0.259 OA
BRANCH   3  13
ATOM     13  C   UNL     1       0.718  -0.497  -1.257  0.00  0.00    +0.126 C 
BRANCH  13  15
ATOM     14  C   UNL     1      -0.019   1.526   0.010  0.00  0.00    +0.005 C 
ATOM     15  C   UNL     1       0.002  -0.004   0.002  0.00  0.00    +0.018 C 
ENDBRANCH  13  15
ENDBRANCH   3  13
ENDBRANCH   1   7
BRANCH   1  16
ATOM     16  S   UNL     1       5.387  -4.738   2.514  0.00  0.00    +0.072 S 
ATOM     17  O   UNL     1       6.355  -5.737   2.807  0.00  0.00    -0.150 OA
ATOM     18  O   UNL     1       5.696  -3.351   2.525  0.00  0.00    -0.150 OA
BRANCH  16  19
ATOM     19  C   UNL     1       4.066  -4.968   3.657  0.00  0.00    +0.109 A 
ATOM     20  C   UNL     1       3.227  -3.913   3.966  0.00  0.00    +0.029 A 
ATOM     21  C   UNL     1       2.190  -4.093   4.862  0.00  0.00    +0.006 A 
ATOM     22  C   UNL     1       1.992  -5.329   5.449  0.00  0.00    -0.044 A 
ATOM     23  C   UNL     1       2.829  -6.384   5.140  0.00  0.00    +0.006 A 
ATOM     24  C   UNL     1       3.864  -6.205   4.240  0.00  0.00    +0.029 A 
BRANCH  22  25
ATOM     25  C   UNL     1       0.862  -5.525   6.427  0.00  0.00    +0.019 C 
ATOM     26  C   UNL     1       1.429  -5.957   7.781  0.00  0.00    +0.008 C 
ATOM     27  C   UNL     1       0.281  -6.157   8.774  0.00  0.00    +0.001 C 
ATOM     28  C   UNL     1      -0.665  -7.238   8.249  0.00  0.00    +0.000 C 
ATOM     29  C   UNL     1      -1.232  -6.806   6.895  0.00  0.00    +0.001 C 
ATOM     30  C   UNL     1      -0.085  -6.607   5.902  0.00  0.00    +0.008 C 
ENDBRANCH  22  25
ENDBRANCH  16  19
ENDBRANCH   1  16
TORSDOF 6
