REMARK  Name = ZINC61502173
REMARK  6 active torsions:
REMARK  status: ('A' for Active; 'I' for Inactive)
REMARK    1  A    between atoms: C_4  and  N_7
REMARK    2  A    between atoms: N_7  and  S_8
REMARK    3  A    between atoms: S_8  and  C_11
REMARK    4  A    between atoms: C_14  and  C_17
REMARK    5  A    between atoms: N_19  and  N_20
REMARK    6  A    between atoms: C_21  and  C_23
REMARK                            x       y       z     vdW  Elec       q    Type
REMARK                         _______ _______ _______ _____ _____    ______ ____
ROOT
ATOM      1  C   UNL     1       2.624  -3.189   0.323  0.00  0.00    +0.109 A 
ATOM      2  C   UNL     1       1.292  -3.156   0.697  0.00  0.00    +0.029 A 
ATOM      3  C   UNL     1       0.413  -4.102   0.212  0.00  0.00    +0.015 A 
ATOM      4  C   UNL     1       0.869  -5.094  -0.658  0.00  0.00    +0.038 A 
ATOM      5  C   UNL     1       2.214  -5.122  -1.031  0.00  0.00    +0.015 A 
ATOM      6  C   UNL     1       3.082  -4.167  -0.543  0.00  0.00    +0.029 A 
ENDROOT
BRANCH   4   7
ATOM      7  C   UNL     1      -0.068  -6.111  -1.181  0.00  0.00    +0.260 C 
ATOM      8  O   UNL     1      -1.238  -6.085  -0.854  0.00  0.00    -0.269 OA
ATOM      9  N   UNL     1       0.376  -7.068  -2.020  0.00  0.00    -0.230 N 
ATOM     10  H   UNL     1       1.310  -7.089  -2.281  0.00  0.00    +0.173 HD
BRANCH   9  11
ATOM     11  N   UNL     1      -0.511  -8.032  -2.516  0.00  0.00    -0.230 N 
ATOM     12  C   UNL     1      -0.068  -8.988  -3.355  0.00  0.00    +0.263 C 
ATOM     13  O   UNL     1       1.103  -9.014  -3.683  0.00  0.00    -0.269 OA
ATOM     14  H   UNL     1      -1.445  -8.011  -2.255  0.00  0.00    +0.173 HD
BRANCH  12  15
ATOM     15  C   UNL     1      -1.002 -10.002  -3.877  0.00  0.00    +0.076 A 
ATOM     16  C   UNL     1      -0.690 -11.112  -4.790  0.00  0.00    +0.054 A 
ATOM     17  C   UNL     1      -1.845 -11.765  -4.984  0.00  0.00    +0.195 A 
ATOM     18  O   UNL     1      -2.816 -11.161  -4.281  0.00  0.00    -0.470 OA
ATOM     19  C   UNL     1      -2.335 -10.111  -3.608  0.00  0.00    +0.208 A 
ENDBRANCH  12  15
ENDBRANCH   9  11
ENDBRANCH   4   7
BRANCH   1  20
ATOM     20  S   UNL     1       3.740  -1.977   0.946  0.00  0.00    +0.072 S 
ATOM     21  O   UNL     1       5.050  -2.497   0.761  0.00  0.00    -0.150 OA
ATOM     22  O   UNL     1       3.248  -1.589   2.221  0.00  0.00    -0.150 OA
BRANCH  20  23
ATOM     23  N   UNL     1       3.617  -0.648  -0.034  0.00  0.00    -0.216 N 
ATOM     24  H   UNL     1       3.319   0.199   0.333  0.00  0.00    +0.174 HD
BRANCH  23  28
ATOM     25  C   UNL     1       4.584  -0.940  -4.073  0.00  0.00    +0.000 A 
ATOM     26  C   UNL     1       3.421  -0.299  -3.687  0.00  0.00    +0.002 A 
ATOM     27  C   UNL     1       3.097  -0.200  -2.348  0.00  0.00    +0.024 A 
ATOM     28  C   UNL     1       3.941  -0.746  -1.389  0.00  0.00    +0.048 A 
ATOM     29  C   UNL     1       5.108  -1.389  -1.780  0.00  0.00    +0.024 A 
ATOM     30  C   UNL     1       5.426  -1.484  -3.121  0.00  0.00    +0.002 A 
ENDBRANCH  23  28
ENDBRANCH  20  23
ENDBRANCH   1  20
TORSDOF 6
