REMARK  Name = ZINC10720889
REMARK  4 active torsions:
REMARK  status: ('A' for Active; 'I' for Inactive)
REMARK    1  A    between atoms: C_1  and  N_2
REMARK    2  A    between atoms: N_2  and  C_3
REMARK    3  A    between atoms: C_3  and  C_4
REMARK    4  A    between atoms: C_15  and  C_17
REMARK                            x       y       z     vdW  Elec       q    Type
REMARK                         _______ _______ _______ _____ _____    ______ ____
ROOT
ATOM      1  C   UNL     1      -0.305   1.255   0.098  0.00  0.00    +0.181 C 
ENDROOT
BRANCH   1   2
ATOM      2  C   UNL     1      -0.804   1.990   1.316  0.00  0.00    +0.128 A 
ATOM      3  N   UNL     1      -0.339   1.610   2.535  0.00  0.00    -0.309 N 
ATOM      4  H   UNL     1       0.298   0.883   2.612  0.00  0.00    +0.170 HD
ATOM      5  C   UNL     1      -0.774   2.257   3.643  0.00  0.00    +0.266 A 
ATOM      6  O   UNL     1      -0.376   1.941   4.751  0.00  0.00    -0.267 OA
ATOM      7  C   UNL     1      -1.691   3.296   3.480  0.00  0.00    +0.102 A 
ATOM      8  C   UNL     1      -2.156   3.670   2.207  0.00  0.00    +0.085 A 
ATOM      9  N   UNL     1      -1.651   2.954   1.149  0.00  0.00    -0.232 NA
ATOM     10  C   UNL     1      -3.074   4.728   2.186  0.00  0.00    +0.036 A 
ATOM     11  C   UNL     1      -3.455   5.319   3.339  0.00  0.00    +0.048 A 
ATOM     12  S   UNL     1      -2.533   4.413   4.570  0.00  0.00    -0.090 S 
ENDBRANCH   1   2
BRANCH   1  14
ATOM     13  C   UNL     1      -2.195   1.274  -1.594  0.00  0.00    +0.133 C 
ATOM     14  N   UNL     1      -0.928   1.819  -1.102  0.00  0.00    -0.293 N 
ATOM     15  C   UNL     1      -0.335   2.840  -1.752  0.00  0.00    +0.248 C 
ATOM     16  O   UNL     1       0.675   3.344  -1.300  0.00  0.00    -0.270 OA
BRANCH  15  17
ATOM     17  C   UNL     1      -0.912   3.346  -3.015  0.00  0.00    +0.051 A 
ATOM     18  C   UNL     1      -2.270   3.661  -3.089  0.00  0.00    +0.014 A 
ATOM     19  C   UNL     1      -2.801   4.136  -4.269  0.00  0.00    +0.001 A 
ATOM     20  C   UNL     1      -1.994   4.294  -5.382  0.00  0.00    +0.001 A 
ATOM     21  C   UNL     1      -0.648   3.979  -5.319  0.00  0.00    +0.016 A 
ATOM     22  C   UNL     1      -0.102   3.506  -4.142  0.00  0.00    +0.030 A 
ATOM     23 BR   UNL     1       1.738   3.076  -4.056  0.00  0.00    -0.050 Br
ENDBRANCH  15  17
ENDBRANCH   1  14
TORSDOF 3
