REMARK  Name = ZINC09010197
REMARK  14 active torsions:
REMARK  status: ('A' for Active; 'I' for Inactive)
REMARK    1  A    between atoms: C_1  and  C_2
REMARK    2  A    between atoms: C_2  and  O_3
REMARK    3  A    between atoms: O_3  and  C_4
REMARK    4  A    between atoms: C_6  and  C_12
REMARK    5  A    between atoms: C_9  and  O_10
REMARK    6  A    between atoms: C_17  and  C_22
REMARK    7  A    between atoms: C_25  and  O_28
REMARK    8  A    between atoms: O_28  and  C_29
REMARK    9  A    between atoms: C_31  and  C_39
REMARK   10  A    between atoms: C_32  and  C_33
REMARK   11  A    between atoms: C_33  and  O_35
REMARK   12  A    between atoms: O_35  and  C_36
REMARK   13  A    between atoms: C_36  and  C_37
REMARK   14  A    between atoms: C_36  and  C_38
REMARK                            x       y       z     vdW  Elec       q    Type
REMARK                         _______ _______ _______ _____ _____    ______ ____
ROOT
ATOM      1  C   UNL     1      -0.013   1.086   0.008  0.00  0.00    +0.092 C 
ATOM      2  C   UNL     1      -0.727   1.578  -1.225  0.00  0.00    +0.024 C 
ATOM      3  C   UNL     1      -1.600   2.605  -1.153  0.00  0.00    +0.016 C 
ATOM      4  C   UNL     1      -2.321   3.101  -2.381  0.00  0.00    +0.059 C 
ATOM      5  C   UNL     1      -1.443   2.884  -3.616  0.00  0.00    +0.032 C 
ATOM      6  C   UNL     1      -1.118   1.391  -3.724  0.00  0.00    +0.088 C 
ATOM      7  C   UNL     1      -0.458   0.940  -2.449  0.00  0.00    +0.162 C 
ATOM      8  O   UNL     1       0.323   0.009  -2.478  0.00  0.00    -0.292 OA
ATOM      9  N   UNL     1      -1.853   3.218   0.045  0.00  0.00    -0.321 N 
ATOM     10  C   UNL     1      -1.568   2.587   1.224  0.00  0.00    +0.016 C 
ATOM     11  C   UNL     1      -0.700   1.562   1.254  0.00  0.00    +0.065 C 
ATOM     12  C   UNL     1      -2.232   3.045   2.497  0.00  0.00    +0.061 C 
ATOM     13  H   UNL     1      -2.290   4.228   0.065  0.00  0.00    +0.152 HD
ENDROOT
BRANCH   1  16
ATOM     14  C   UNL     1       3.764   1.179  -0.028  0.00  0.00    +0.163 A 
ATOM     15  C   UNL     1       2.461   0.709  -0.012  0.00  0.00    +0.054 A 
ATOM     16  C   UNL     1       1.404   1.600  -0.003  0.00  0.00    -0.030 A 
ATOM     17  C   UNL     1       1.644   2.961   0.002  0.00  0.00    +0.028 A 
ATOM     18  C   UNL     1       2.942   3.438  -0.008  0.00  0.00    +0.086 A 
ATOM     19  C   UNL     1       4.006   2.549  -0.022  0.00  0.00    +0.177 A 
ATOM     20 CL   UNL     1       3.240   5.148  -0.002  0.00  0.00    -0.080 Cl
BRANCH  19  21
ATOM     21  O   UNL     1       5.284   3.015  -0.033  0.00  0.00    -0.502 OA
ATOM     22  H   UNL     1       5.474   4.099  -0.029  0.00  0.00    +0.292 HD
ENDBRANCH  19  21
BRANCH  14  23
ATOM     23  O   UNL     1       4.804   0.303  -0.042  0.00  0.00    -0.489 OA
BRANCH  23  25
ATOM     24  C   UNL     1       5.770  -1.912  -0.063  0.00  0.00    +0.048 C 
ATOM     25  C   UNL     1       4.481  -1.089  -0.047  0.00  0.00    +0.226 C 
ENDBRANCH  23  25
ENDBRANCH  14  23
ENDBRANCH   1  16
BRANCH   5  26
ATOM     26  C   UNL     1      -2.184   3.332  -4.849  0.00  0.00    -0.043 A 
ATOM     27  C   UNL     1      -3.393   2.746  -5.179  0.00  0.00    +0.007 A 
ATOM     28  C   UNL     1      -4.076   3.159  -6.306  0.00  0.00    +0.046 A 
ATOM     29  C   UNL     1      -3.544   4.153  -7.114  0.00  0.00    +0.120 A 
ATOM     30  C   UNL     1      -2.328   4.734  -6.785  0.00  0.00    +0.046 A 
ATOM     31  C   UNL     1      -1.651   4.322  -5.653  0.00  0.00    +0.007 A 
BRANCH  29  32
ATOM     32  O   UNL     1      -4.211   4.556  -8.227  0.00  0.00    -0.495 OA
ATOM     33  C   UNL     1      -5.457   3.913  -8.505  0.00  0.00    +0.277 C 
ENDBRANCH  29  32
ENDBRANCH   5  26
BRANCH  11  34
ATOM     34  C   UNL     1      -0.429   0.920   2.485  0.00  0.00    +0.338 C 
ATOM     35  O   UNL     1      -0.980   1.297   3.502  0.00  0.00    -0.245 OA
BRANCH  34  36
ATOM     36  O   UNL     1       0.441  -0.111   2.530  0.00  0.00    -0.459 OA
BRANCH  36  37
ATOM     37  C   UNL     1       0.666  -0.713   3.807  0.00  0.00    +0.171 C 
ATOM     38  C   UNL     1       1.009  -2.192   3.620  0.00  0.00    +0.052 C 
ATOM     39  C   UNL     1       1.829  -0.004   4.506  0.00  0.00    +0.052 C 
ENDBRANCH  36  37
ENDBRANCH  34  36
ENDBRANCH  11  34
TORSDOF 9
