REMARK  Name = ZINC09057634
REMARK  5 active torsions:
REMARK  status: ('A' for Active; 'I' for Inactive)
REMARK    1  A    between atoms: C_1  and  O_2
REMARK    2  A    between atoms: O_2  and  C_3
REMARK    3  A    between atoms: C_6  and  C_9
REMARK    4  A    between atoms: C_14  and  C_32
REMARK    5  A    between atoms: C_24  and  C_26
REMARK                            x       y       z     vdW  Elec       q    Type
REMARK                         _______ _______ _______ _____ _____    ______ ____
ROOT
ATOM      1  C   UNL     1       2.862   4.332  -4.162  0.00  0.00    +0.032 C 
ATOM      2  C   UNL     1       2.907   3.712  -2.766  0.00  0.00    +0.059 C 
ATOM      3  C   UNL     1       1.683   4.135  -1.971  0.00  0.00    +0.017 C 
ATOM      4  C   UNL     1       1.123   5.340  -2.171  0.00  0.00    +0.037 C 
ATOM      5  C   UNL     1      -0.086   5.886  -1.450  0.00  0.00    +0.147 C 
ATOM      6  N   UNL     1      -0.495   5.115  -0.295  0.00  0.00    -0.254 N 
ATOM      7  C   UNL     1      -0.958   3.807  -0.433  0.00  0.00    +0.059 A 
ATOM      8  C   UNL     1      -2.273   3.472  -0.152  0.00  0.00    +0.025 A 
ATOM      9  C   UNL     1      -2.710   2.179  -0.383  0.00  0.00    +0.002 A 
ATOM     10  C   UNL     1      -1.839   1.222  -0.872  0.00  0.00    +0.002 A 
ATOM     11  C   UNL     1      -0.518   1.547  -1.128  0.00  0.00    +0.025 A 
ATOM     12  C   UNL     1      -0.080   2.839  -0.898  0.00  0.00    +0.053 A 
ATOM     13  N   UNL     1       1.246   3.217  -1.070  0.00  0.00    -0.316 N 
ATOM     14  C   UNL     1      -0.427   5.670   0.931  0.00  0.00    +0.252 C 
ATOM     15  O   UNL     1      -0.125   6.842   1.052  0.00  0.00    -0.270 OA
ATOM     16  C   UNL     1       1.659   6.222  -3.139  0.00  0.00    +0.163 C 
ATOM     17  O   UNL     1       1.148   7.315  -3.282  0.00  0.00    -0.292 OA
ATOM     18  C   UNL     1       2.835   5.856  -3.995  0.00  0.00    +0.088 C 
ATOM     19  H   UNL     1       1.910   2.794  -0.504  0.00  0.00    +0.152 HD
ENDROOT
BRANCH   1  23
ATOM     20  C   UNL     1       6.332   3.178  -6.372  0.00  0.00    +0.120 A 
ATOM     21  C   UNL     1       5.069   2.846  -6.839  0.00  0.00    +0.046 A 
ATOM     22  C   UNL     1       3.948   3.220  -6.123  0.00  0.00    +0.007 A 
ATOM     23  C   UNL     1       4.085   3.925  -4.941  0.00  0.00    -0.043 A 
ATOM     24  C   UNL     1       5.343   4.262  -4.477  0.00  0.00    +0.007 A 
ATOM     25  C   UNL     1       6.467   3.885  -5.186  0.00  0.00    +0.046 A 
BRANCH  20  27
ATOM     26  C   UNL     1       8.704   3.187  -6.535  0.00  0.00    +0.277 C 
ATOM     27  O   UNL     1       7.436   2.811  -7.075  0.00  0.00    -0.495 OA
ENDBRANCH  20  27
ENDBRANCH   1  23
BRANCH  14  28
ATOM     28  C   UNL     1      -0.718   4.855   2.128  0.00  0.00    +0.037 A 
ATOM     29  C   UNL     1      -0.380   3.501   2.154  0.00  0.00    +0.013 A 
ATOM     30  C   UNL     1      -0.649   2.747   3.277  0.00  0.00    +0.001 A 
ATOM     31  C   UNL     1      -1.264   3.327   4.372  0.00  0.00    +0.000 A 
ATOM     32  C   UNL     1      -1.608   4.667   4.352  0.00  0.00    +0.001 A 
ATOM     33  C   UNL     1      -1.339   5.434   3.237  0.00  0.00    +0.013 A 
ENDBRANCH  14  28
BRANCH   5  34
ATOM     34  C   UNL     1      -1.237   5.938  -2.421  0.00  0.00    -0.022 A 
ATOM     35  C   UNL     1      -1.731   4.771  -2.972  0.00  0.00    +0.006 A 
ATOM     36  C   UNL     1      -2.790   4.818  -3.859  0.00  0.00    +0.000 A 
ATOM     37  C   UNL     1      -3.349   6.035  -4.203  0.00  0.00    +0.000 A 
ATOM     38  C   UNL     1      -2.852   7.203  -3.657  0.00  0.00    +0.000 A 
ATOM     39  C   UNL     1      -1.796   7.155  -2.766  0.00  0.00    +0.006 A 
ENDBRANCH   5  34
TORSDOF 4
