REMARK  Name = ZINC09129454
REMARK  10 active torsions:
REMARK  status: ('A' for Active; 'I' for Inactive)
REMARK    1  A    between atoms: C_1  and  O_2
REMARK    2  A    between atoms: O_2  and  C_3
REMARK    3  A    between atoms: C_6  and  C_9
REMARK    4  A    between atoms: C_10  and  C_19
REMARK    5  A    between atoms: C_14  and  C_15
REMARK    6  A    between atoms: C_22  and  O_26
REMARK    7  A    between atoms: C_24  and  O_25
REMARK    8  A    between atoms: O_26  and  C_27
REMARK    9  A    between atoms: C_27  and  C_28
REMARK   10  A    between atoms: C_31  and  N_34
REMARK                            x       y       z     vdW  Elec       q    Type
REMARK                         _______ _______ _______ _____ _____    ______ ____
ROOT
ATOM      1  C   UNL     1      -4.850  -3.963   2.324  0.00  0.00    +0.044 A 
ATOM      2  C   UNL     1      -3.631  -3.406   2.708  0.00  0.00    +0.017 A 
ATOM      3  C   UNL     1      -3.027  -3.810   3.880  0.00  0.00    +0.046 A 
ATOM      4  C   UNL     1      -3.630  -4.772   4.680  0.00  0.00    +0.124 A 
ATOM      5  C   UNL     1      -4.843  -5.332   4.305  0.00  0.00    +0.091 A 
ATOM      6  C   UNL     1      -5.459  -4.927   3.133  0.00  0.00    +0.130 A 
ENDROOT
BRANCH   1   8
ATOM      7  C   UNL     1      -4.872  -3.404  -0.200  0.00  0.00    +0.039 A 
ATOM      8  C   UNL     1      -5.501  -3.530   1.064  0.00  0.00    +0.104 A 
ATOM      9  N   UNL     1      -6.765  -3.195   0.921  0.00  0.00    -0.173 NA
ATOM     10  N   UNL     1      -6.982  -2.849  -0.418  0.00  0.00    -0.272 N 
ATOM     11  H   UNL     1      -7.826  -2.563  -0.800  0.00  0.00    +0.189 HD
ATOM     12  C   UNL     1      -5.816  -2.978  -1.086  0.00  0.00    +0.147 A 
BRANCH   7  16
ATOM     13  C   UNL     1      -0.783  -4.194  -1.066  0.00  0.00    +0.120 A 
ATOM     14  C   UNL     1      -1.266  -2.894  -1.128  0.00  0.00    +0.046 A 
ATOM     15  C   UNL     1      -2.591  -2.635  -0.848  0.00  0.00    +0.012 A 
ATOM     16  C   UNL     1      -3.446  -3.679  -0.503  0.00  0.00    -0.014 A 
ATOM     17  C   UNL     1      -2.959  -4.984  -0.442  0.00  0.00    +0.012 A 
ATOM     18  C   UNL     1      -1.633  -5.237  -0.728  0.00  0.00    +0.046 A 
BRANCH  13  20
ATOM     19  C   UNL     1       1.343  -3.326  -1.683  0.00  0.00    +0.277 C 
ATOM     20  O   UNL     1       0.524  -4.446  -1.342  0.00  0.00    -0.495 OA
ENDBRANCH  13  20
ENDBRANCH   7  16
BRANCH  12  21
ATOM     21  C   UNL     1      -5.598  -2.701  -2.551  0.00  0.00    +0.434 C 
ATOM     22  F   UNL     1      -6.800  -2.281  -3.131  0.00  0.00    -0.164 F 
ATOM     23  F   UNL     1      -4.634  -1.698  -2.698  0.00  0.00    -0.164 F 
ATOM     24  F   UNL     1      -5.157  -3.868  -3.185  0.00  0.00    -0.164 F 
ENDBRANCH  12  21
ENDBRANCH   1   8
BRANCH   6  25
ATOM     25  O   UNL     1      -6.649  -5.470   2.768  0.00  0.00    -0.506 OA
ATOM     26  H   UNL     1      -6.569  -6.264   2.223  0.00  0.00    +0.292 HD
ENDBRANCH   6  25
BRANCH   4  27
ATOM     27  O   UNL     1      -3.030  -5.167   5.833  0.00  0.00    -0.487 OA
BRANCH  27  28
ATOM     28  C   UNL     1      -1.782  -4.551   6.159  0.00  0.00    +0.264 C 
BRANCH  28  29
ATOM     29  C   UNL     1      -1.271  -5.110   7.462  0.00  0.00    -0.010 A 
ATOM     30  C   UNL     1      -1.622  -4.509   8.657  0.00  0.00    +0.009 A 
ATOM     31  C   UNL     1      -1.153  -5.022   9.852  0.00  0.00    +0.033 A 
ATOM     32  C   UNL     1      -0.334  -6.135   9.852  0.00  0.00    +0.126 A 
ATOM     33  C   UNL     1       0.016  -6.736   8.658  0.00  0.00    +0.033 A 
ATOM     34  C   UNL     1      -0.456  -6.226   7.463  0.00  0.00    +0.009 A 
BRANCH  32  35
ATOM     35  N   UNL     1       0.169  -6.684  11.132  0.00  0.00    +0.056 N 
ATOM     36  O   UNL     1      -0.137  -6.158  12.177  0.00  0.00    -0.126 OA
ATOM     37  O   UNL     1       0.886  -7.657  11.132  0.00  0.00    -0.126 OA
ENDBRANCH  32  35
ENDBRANCH  28  29
ENDBRANCH  27  28
ENDBRANCH   4  27
TORSDOF 9
