REMARK  Name = ZINC38604365
REMARK  8 active torsions:
REMARK  status: ('A' for Active; 'I' for Inactive)
REMARK    1  A    between atoms: C_1  and  C_2
REMARK    2  A    between atoms: C_2  and  C_32
REMARK    3  A    between atoms: N_3  and  O_4
REMARK    4  A    between atoms: O_4  and  C_5
REMARK    5  A    between atoms: C_5  and  C_6
REMARK    6  A    between atoms: N_17  and  N_18
REMARK    7  A    between atoms: C_19  and  C_20
REMARK    8  A    between atoms: C_25  and  C_26
REMARK                            x       y       z     vdW  Elec       q    Type
REMARK                         _______ _______ _______ _____ _____    ______ ____
ROOT
ATOM      1  C   UNL     1      -0.022   0.198   5.011  0.00  0.00    +0.225 C 
ATOM      2  N   UNL     1      -1.158   1.129   4.996  0.00  0.00    -0.321 N 
ATOM      3  C   UNL     1      -1.204   2.104   4.006  0.00  0.00    +0.041 A 
ATOM      4  C   UNL     1      -2.402   2.602   3.524  0.00  0.00    +0.024 A 
ATOM      5  C   UNL     1      -2.392   3.568   2.535  0.00  0.00    +0.002 A 
ATOM      6  C   UNL     1      -1.193   4.040   2.023  0.00  0.00    +0.001 A 
ATOM      7  C   UNL     1       0.009   3.556   2.495  0.00  0.00    +0.015 A 
ATOM      8  C   UNL     1       0.014   2.585   3.493  0.00  0.00    +0.059 A 
ATOM      9  C   UNL     1       1.270   2.041   4.041  0.00  0.00    +0.269 C 
ATOM     10  O   UNL     1       2.329   2.593   3.816  0.00  0.00    -0.268 OA
ATOM     11  N   UNL     1       1.228   0.925   4.792  0.00  0.00    -0.165 N 
ATOM     12  H   UNL     1      -1.860   1.064   5.662  0.00  0.00    +0.148 HD
ENDROOT
BRANCH  11  13
ATOM     13  N   UNL     1       2.410   0.451   5.377  0.00  0.00    -0.187 NA
ATOM     14  C   UNL     1       2.412  -0.665   6.003  0.00  0.00    +0.119 C 
BRANCH  14  15
ATOM     15  C   UNL     1       3.643  -1.108   6.751  0.00  0.00    +0.125 C 
ATOM     16  C   UNL     1       3.316  -1.378   8.206  0.00  0.00    +0.123 C 
ATOM     17  N   UNL     1       3.578  -2.629   8.406  0.00  0.00    -0.161 NA
ATOM     18  N   UNL     1       4.049  -3.264   7.262  0.00  0.00    -0.153 NA
ATOM     19  C   UNL     1       4.124  -2.451   6.240  0.00  0.00    +0.084 C 
BRANCH  19  20
ATOM     20  C   UNL     1       4.577  -2.772   4.877  0.00  0.00    -0.001 A 
ATOM     21  C   UNL     1       4.600  -1.780   3.892  0.00  0.00    +0.010 A 
ATOM     22  C   UNL     1       5.026  -2.088   2.617  0.00  0.00    +0.001 A 
ATOM     23  C   UNL     1       5.430  -3.376   2.312  0.00  0.00    +0.000 A 
ATOM     24  C   UNL     1       5.410  -4.364   3.281  0.00  0.00    +0.001 A 
ATOM     25  C   UNL     1       4.993  -4.070   4.562  0.00  0.00    +0.010 A 
ENDBRANCH  19  20
ENDBRANCH  14  15
ENDBRANCH  11  13
BRANCH   1  26
ATOM     26  C   UNL     1      -0.205  -0.841   3.902  0.00  0.00    +0.306 C 
BRANCH  26  27
ATOM     27  O   UNL     1      -0.258  -0.181   2.636  0.00  0.00    -0.390 OA
BRANCH  27  30
ATOM     28  C   UNL     1      -0.383   0.901   0.104  0.00  0.00    +0.069 C 
ATOM     29  C   UNL     1      -0.488  -0.584   0.335  0.00  0.00    +0.084 C 
ATOM     30  N   UNL     1      -0.425  -1.058   1.537  0.00  0.00    -0.089 NA
BRANCH  29  31
ATOM     31  C   UNL     1      -0.663  -1.498  -0.811  0.00  0.00    -0.001 A 
ATOM     32  C   UNL     1      -0.726  -0.990  -2.110  0.00  0.00    +0.010 A 
ATOM     33  C   UNL     1      -0.890  -1.850  -3.176  0.00  0.00    +0.001 A 
ATOM     34  C   UNL     1      -0.992  -3.213  -2.961  0.00  0.00    +0.000 A 
ATOM     35  C   UNL     1      -0.932  -3.723  -1.676  0.00  0.00    +0.001 A 
ATOM     36  C   UNL     1      -0.761  -2.875  -0.601  0.00  0.00    +0.010 A 
ENDBRANCH  29  31
ENDBRANCH  27  30
ENDBRANCH  26  27
ENDBRANCH   1  26
TORSDOF 7
