REMARK  Name = ZINC12635862
REMARK  12 active torsions:
REMARK  status: ('A' for Active; 'I' for Inactive)
REMARK    1  A    between atoms: C_1  and  C_2
REMARK    2  A    between atoms: C_2  and  C_3
REMARK    3  A    between atoms: C_3  and  C_4
REMARK    4  A    between atoms: C_3  and  C_5
REMARK    5  A    between atoms: C_3  and  N_6
REMARK    6  A    between atoms: C_7  and  C_11
REMARK    7  A    between atoms: C_11  and  N_72
REMARK    8  A    between atoms: C_17  and  C_18
REMARK    9  A    between atoms: C_17  and  N_72
REMARK   10  A    between atoms: C_23  and  C_24
REMARK   11  A    between atoms: C_23  and  N_72
REMARK   12  A    between atoms: C_28  and  C_36
REMARK                            x       y       z     vdW  Elec       q    Type
REMARK                         _______ _______ _______ _____ _____    ______ ____
ROOT
ATOM      1  N   UNL     1       1.984   0.290  -0.768  0.00  0.00    +0.396 N 
ATOM      2  H   UNL     1       2.801   0.591  -1.313  0.00  0.00    -0.079 HD
ENDROOT
BRANCH   1   3
ATOM      3  C   UNL     1       0.755   0.734  -1.460  0.00  0.00    -0.002 C 
ATOM      4  C   UNL     1       0.909   2.209  -1.838  0.00  0.00    -0.004 C 
ATOM      5  C   UNL     1       2.128   2.378  -2.748  0.00  0.00    -0.001 C 
ATOM      6  C   UNL     1       1.937   1.544  -4.016  0.00  0.00    -0.000 C 
ATOM      7  C   UNL     1       1.783   0.069  -3.638  0.00  0.00    -0.001 C 
ATOM      8  C   UNL     1       0.565  -0.100  -2.729  0.00  0.00    -0.004 C 
BRANCH   3  10
ATOM      9  N   UNL     1      -1.735   0.544  -0.946  0.00  0.00    -0.225 N 
ATOM     10  C   UNL     1      -0.445   0.568  -0.565  0.00  0.00    +0.142 A 
ATOM     11  N   UNL     1      -0.435   0.424   0.738  0.00  0.00    -0.115 NA
ATOM     12  N   UNL     1      -1.656   0.312   1.135  0.00  0.00    -0.023 NA
ATOM     13  N   UNL     1      -2.444   0.381   0.120  0.00  0.00    -0.043 NA
BRANCH   9  14
ATOM     14  C   UNL     1      -2.240   0.675  -2.315  0.00  0.00    +0.061 C 
ATOM     15  C   UNL     1      -1.539   1.845  -3.008  0.00  0.00    +0.036 C 
ATOM     16  C   UNL     1      -1.962  -0.616  -3.087  0.00  0.00    +0.036 C 
BRANCH  14  18
ATOM     17  C   UNL     1      -4.276   1.070  -3.709  0.00  0.00    +0.006 C 
ATOM     18  C   UNL     1      -3.748   0.933  -2.280  0.00  0.00    +0.026 C 
ENDBRANCH  14  18
ENDBRANCH   9  14
ENDBRANCH   3  10
ENDBRANCH   1   3
BRANCH   1  19
ATOM     19  C   UNL     1       2.053   0.898   0.577  0.00  0.00    -0.001 C 
BRANCH  19  20
ATOM     20  C   UNL     1       3.477   0.825   1.066  0.00  0.00    +0.089 A 
ATOM     21  C   UNL     1       4.398   1.799   0.955  0.00  0.00    +0.042 A 
ATOM     22  C   UNL     1       5.586   1.309   1.543  0.00  0.00    +0.041 A 
ATOM     23  C   UNL     1       5.320   0.065   1.980  0.00  0.00    +0.195 A 
ATOM     24  O   UNL     1       4.040  -0.221   1.693  0.00  0.00    -0.470 OA
ENDBRANCH  19  20
ENDBRANCH   1  19
BRANCH   1  25
ATOM     25  C   UNL     1       1.996  -1.184  -0.658  0.00  0.00    -0.036 C 
BRANCH  25  26
ATOM     26  C   UNL     1       0.873  -1.657   0.228  0.00  0.00    +0.001 A 
ATOM     27  C   UNL     1      -0.305  -2.042  -0.322  0.00  0.00    +0.017 A 
ATOM     28  C   UNL     1      -1.377  -2.497   0.566  0.00  0.00    -0.001 A 
ATOM     29  C   UNL     1      -2.613  -2.907   0.057  0.00  0.00    +0.013 A 
ATOM     30  C   UNL     1      -3.592  -3.326   0.913  0.00  0.00    -0.050 A 
ATOM     31  C   UNL     1      -3.371  -3.349   2.283  0.00  0.00    +0.005 A 
ATOM     32  C   UNL     1      -2.160  -2.950   2.807  0.00  0.00    +0.026 A 
ATOM     33  C   UNL     1      -1.148  -2.519   1.955  0.00  0.00    +0.049 A 
ATOM     34  N   UNL     1       0.073  -2.115   2.451  0.00  0.00    -0.322 N 
ATOM     35  H   UNL     1       0.229  -2.130   3.408  0.00  0.00    +0.169 HD
ATOM     36  C   UNL     1       1.053  -1.704   1.627  0.00  0.00    +0.251 A 
ATOM     37  O   UNL     1       2.121  -1.358   2.100  0.00  0.00    -0.268 OA
ATOM     38  C   UNL     1      -4.925  -3.767   0.364  0.00  0.00    +0.044 C 
ENDBRANCH  25  26
ENDBRANCH   1  25
TORSDOF 8
