REMARK  Name = ZINC00783764
REMARK  7 active torsions:
REMARK  status: ('A' for Active; 'I' for Inactive)
REMARK    1  A    between atoms: C_1  and  C_2
REMARK    2  A    between atoms: C_5  and  C_8
REMARK    3  A    between atoms: C_8  and  C_10
REMARK    4  A    between atoms: C_10  and  C_11
REMARK    5  A    between atoms: C_11  and  O_31
REMARK    6  A    between atoms: N_18  and  C_21
REMARK    7  A    between atoms: C_21  and  C_22
REMARK                            x       y       z     vdW  Elec       q    Type
REMARK                         _______ _______ _______ _____ _____    ______ ____
ROOT
ATOM      1  C   UNL     1       6.163  -0.879  -0.059  0.00  0.00    +0.175 C 
ATOM      2  C   UNL     1       7.470  -0.128  -0.164  0.00  0.00    +0.015 A 
ATOM      3  C   UNL     1       8.085   0.800   0.648  0.00  0.00    +0.009 A 
ATOM      4  C   UNL     1       9.311   1.328   0.286  0.00  0.00    +0.000 A 
ATOM      5  C   UNL     1       9.915   0.923  -0.891  0.00  0.00    +0.002 A 
ATOM      6  C   UNL     1       9.301  -0.005  -1.706  0.00  0.00    +0.024 A 
ATOM      7  C   UNL     1       8.066  -0.542  -1.348  0.00  0.00    +0.043 A 
ATOM      8  N   UNL     1       7.257  -1.480  -1.992  0.00  0.00    -0.264 N 
ATOM      9  C   UNL     1       6.129  -1.734  -1.308  0.00  0.00    +0.257 C 
ATOM     10  O   UNL     1       5.248  -2.503  -1.631  0.00  0.00    -0.272 OA
ENDROOT
BRANCH   1  11
ATOM     11  O   UNL     1       6.147  -1.701   1.110  0.00  0.00    -0.374 OA
ATOM     12  H   UNL     1       5.342  -2.228   1.209  0.00  0.00    +0.211 HD
ENDBRANCH   1  11
BRANCH   1  13
ATOM     13  C   UNL     1       4.984   0.096  -0.043  0.00  0.00    +0.129 C 
BRANCH  13  14
ATOM     14  C   UNL     1       3.691  -0.680  -0.035  0.00  0.00    +0.167 C 
ATOM     15  O   UNL     1       3.712  -1.892  -0.041  0.00  0.00    -0.292 OA
BRANCH  14  20
ATOM     16  C   UNL     1      -1.334   2.111   0.020  0.00  0.00    +0.044 C 
ATOM     17  C   UNL     1      -0.017   1.380   0.010  0.00  0.00    -0.050 A 
ATOM     18  C   UNL     1       1.168   2.095   0.002  0.00  0.00    +0.004 A 
ATOM     19  C   UNL     1       2.377   1.433  -0.013  0.00  0.00    +0.011 A 
ATOM     20  C   UNL     1       2.405   0.035  -0.020  0.00  0.00    +0.018 A 
ATOM     21  C   UNL     1       1.203  -0.681  -0.013  0.00  0.00    +0.011 A 
ATOM     22  C   UNL     1       0.002  -0.004   0.002  0.00  0.00    +0.004 A 
ENDBRANCH  14  20
ENDBRANCH  13  14
ENDBRANCH   1  13
BRANCH   8  23
ATOM     23  C   UNL     1       7.600  -2.114  -3.267  0.00  0.00    +0.149 C 
BRANCH  23  24
ATOM     24  C   UNL     1       7.058  -1.284  -4.402  0.00  0.00    -0.026 A 
ATOM     25  C   UNL     1       5.789  -1.529  -4.892  0.00  0.00    +0.009 A 
ATOM     26  C   UNL     1       5.286  -0.767  -5.930  0.00  0.00    +0.050 A 
ATOM     27  C   UNL     1       6.058   0.238  -6.490  0.00  0.00    +0.166 A 
ATOM     28  C   UNL     1       7.339   0.481  -6.000  0.00  0.00    +0.167 A 
ATOM     29  C   UNL     1       7.834  -0.283  -4.956  0.00  0.00    +0.054 A 
ATOM     30  O   UNL     1       7.889   1.509  -6.710  0.00  0.00    -0.453 OA
ATOM     31  C   UNL     1       6.784   2.160  -7.363  0.00  0.00    +0.466 C 
ATOM     32  O   UNL     1       5.806   1.113  -7.506  0.00  0.00    -0.453 OA
ENDBRANCH  23  24
ENDBRANCH   8  23
TORSDOF 6
