REMARK  Name = ZINC37425878
REMARK  14 active torsions:
REMARK  status: ('A' for Active; 'I' for Inactive)
REMARK    1  A    between atoms: C_1  and  C_2
REMARK    2  A    between atoms: C_6  and  N_9
REMARK    3  A    between atoms: C_7  and  C_8
REMARK    4  A    between atoms: C_12  and  C_14
REMARK    5  A    between atoms: C_14  and  C_15
REMARK    6  A    between atoms: C_14  and  C_16
REMARK    7  A    between atoms: C_14  and  C_17
REMARK    8  A    between atoms: C_18  and  C_33
REMARK    9  A    between atoms: N_24  and  C_25
REMARK   10  A    between atoms: C_25  and  C_26
REMARK   11  A    between atoms: N_28  and  C_29
REMARK   12  A    between atoms: C_29  and  C_30
REMARK   13  A    between atoms: C_30  and  C_31
REMARK   14  A    between atoms: C_30  and  C_32
REMARK                            x       y       z     vdW  Elec       q    Type
REMARK                         _______ _______ _______ _____ _____    ______ ____
ROOT
ATOM      1  N   UNL     1       1.834  -0.113   4.474  0.00  0.00    -0.217 N 
ATOM      2  C   UNL     1       2.523  -1.119   3.884  0.00  0.00    +0.136 A 
ATOM      3  C   UNL     1       2.128  -2.284   4.446  0.00  0.00    +0.034 A 
ATOM      4  C   UNL     1       1.163  -1.991   5.410  0.00  0.00    +0.075 A 
ATOM      5  N   UNL     1       0.988  -0.691   5.433  0.00  0.00    -0.169 NA
ATOM      6  C   UNL     1       2.664  -3.643   4.075  0.00  0.00    +0.112 C 
ATOM      7  S   UNL     1       1.980  -4.114   2.445  0.00  0.00    -0.138 S 
ATOM      8  C   UNL     1       2.072  -2.539   1.530  0.00  0.00    +0.166 C 
ATOM      9  C   UNL     1       3.368  -1.839   1.808  0.00  0.00    +0.231 C 
ATOM     10  O   UNL     1       4.316  -2.008   1.071  0.00  0.00    -0.274 OA
ATOM     11  N   UNL     1       3.483  -1.028   2.865  0.00  0.00    -0.246 N 
ENDROOT
BRANCH   1  17
ATOM     12  C   UNL     1       2.717   4.479   5.999  0.00  0.00    +0.044 C 
ATOM     13  C   UNL     1       2.376   3.501   4.905  0.00  0.00    -0.046 A 
ATOM     14  C   UNL     1       2.177   3.951   3.613  0.00  0.00    +0.004 A 
ATOM     15  C   UNL     1       1.864   3.057   2.606  0.00  0.00    +0.002 A 
ATOM     16  C   UNL     1       1.750   1.709   2.888  0.00  0.00    +0.028 A 
ATOM     17  C   UNL     1       1.950   1.254   4.184  0.00  0.00    +0.071 A 
ATOM     18  C   UNL     1       2.269   2.154   5.192  0.00  0.00    -0.022 A 
ATOM     19  C   UNL     1       2.493   1.663   6.599  0.00  0.00    +0.046 C 
ENDBRANCH   1  17
BRANCH   6  20
ATOM     20  C   UNL     1       2.247  -4.653   5.114  0.00  0.00    -0.023 A 
ATOM     21  C   UNL     1       1.158  -5.476   4.894  0.00  0.00    +0.012 A 
ATOM     22  C   UNL     1       0.810  -6.373   5.849  0.00  0.00    +0.045 A 
ATOM     23  S   UNL     1       2.038  -6.069   7.108  0.00  0.00    -0.105 S 
ATOM     24  C   UNL     1       2.937  -4.771   6.274  0.00  0.00    +0.050 A 
ENDBRANCH   6  20
BRANCH   4  25
ATOM     25  C   UNL     1       0.448  -2.994   6.279  0.00  0.00    +0.007 C 
ATOM     26  C   UNL     1       1.413  -3.528   7.340  0.00  0.00    +0.017 C 
ATOM     27  C   UNL     1      -0.741  -2.318   6.965  0.00  0.00    +0.017 C 
ATOM     28  C   UNL     1      -0.052  -4.153   5.414  0.00  0.00    +0.017 C 
ENDBRANCH   4  25
BRANCH  11  29
ATOM     29  C   UNL     1       4.585  -0.067   2.956  0.00  0.00    +0.210 C 
BRANCH  29  30
ATOM     30  C   UNL     1       5.797  -0.747   3.538  0.00  0.00    +0.231 C 
ATOM     31  O   UNL     1       5.746  -1.919   3.845  0.00  0.00    -0.274 OA
ATOM     32  N   UNL     1       6.939  -0.053   3.716  0.00  0.00    -0.314 N 
ATOM     33  H   UNL     1       6.980   0.884   3.470  0.00  0.00    +0.149 HD
BRANCH  32  34
ATOM     34  C   UNL     1       8.118  -0.715   4.281  0.00  0.00    +0.107 C 
BRANCH  34  35
ATOM     35  C   UNL     1       9.269   0.289   4.376  0.00  0.00    -0.000 C 
ATOM     36  C   UNL     1      10.459  -0.366   5.080  0.00  0.00    +0.009 C 
ATOM     37  C   UNL     1       9.684   0.724   2.969  0.00  0.00    +0.009 C 
ENDBRANCH  34  35
ENDBRANCH  32  34
ENDBRANCH  29  30
ENDBRANCH  11  29
TORSDOF 7
