REMARK  Name = ZINC34683915
REMARK  13 active torsions:
REMARK  status: ('A' for Active; 'I' for Inactive)
REMARK    1  A    between atoms: C_1  and  C_2
REMARK    2  A    between atoms: C_5  and  S_8
REMARK    3  A    between atoms: S_8  and  N_11
REMARK    4  A    between atoms: N_11  and  C_12
REMARK    5  A    between atoms: N_11  and  C_19
REMARK    6  A    between atoms: N_22  and  C_25
REMARK    7  A    between atoms: C_25  and  C_26
REMARK    8  A    between atoms: C_29  and  O_36
REMARK    9  A    between atoms: C_30  and  O_34
REMARK   10  A    between atoms: C_31  and  O_32
REMARK   11  A    between atoms: O_32  and  C_33
REMARK   12  A    between atoms: O_34  and  C_35
REMARK   13  A    between atoms: O_36  and  C_37
REMARK                            x       y       z     vdW  Elec       q    Type
REMARK                         _______ _______ _______ _____ _____    ______ ____
ROOT
ATOM      1  C   UNL     1       2.004  -5.892  -1.141  0.00  0.00    +0.095 C 
ATOM      2  C   UNL     1       1.710  -7.341  -0.744  0.00  0.00    +0.006 C 
ATOM      3  C   UNL     1       2.154  -8.274  -1.873  0.00  0.00    -0.077 C 
ATOM      4  N   UNL     1       3.594  -8.111  -2.109  0.00  0.00    +0.383 N 
ATOM      5  C   UNL     1       3.874  -6.743  -2.559  0.00  0.00    -0.077 C 
ATOM      6  C   UNL     1       3.496  -5.751  -1.456  0.00  0.00    +0.006 C 
ATOM      7  H   UNL     1       4.096  -8.292  -1.252  0.00  0.00    -0.081 HD
ENDROOT
BRANCH   1   8
ATOM      8  N   UNL     1       1.651  -4.999  -0.034  0.00  0.00    -0.200 N 
BRANCH   8   9
ATOM      9  C   UNL     1       2.314  -5.110   1.192  0.00  0.00    +0.052 A 
ATOM     10  C   UNL     1       3.459  -4.362   1.433  0.00  0.00    +0.027 A 
ATOM     11  C   UNL     1       4.112  -4.473   2.645  0.00  0.00    +0.040 A 
ATOM     12  C   UNL     1       3.627  -5.329   3.619  0.00  0.00    +0.124 A 
ATOM     13  C   UNL     1       2.485  -6.076   3.380  0.00  0.00    +0.040 A 
ATOM     14  C   UNL     1       1.826  -5.964   2.172  0.00  0.00    +0.027 A 
ATOM     15  F   UNL     1       4.267  -5.436   4.803  0.00  0.00    -0.205 F 
ENDBRANCH   8   9
BRANCH   8  16
ATOM     16  S   UNL     1       0.467  -3.860  -0.235  0.00  0.00    +0.075 S 
ATOM     17  O   UNL     1      -0.100  -3.632   1.048  0.00  0.00    -0.150 OA
ATOM     18  O   UNL     1      -0.312  -4.274  -1.349  0.00  0.00    -0.150 OA
BRANCH  16  23
ATOM     19  C   UNL     1       3.186   1.278  -1.851  0.00  0.00    +0.044 C 
ATOM     20  C   UNL     1       2.507  -0.005  -1.447  0.00  0.00    -0.050 A 
ATOM     21  C   UNL     1       2.094  -0.903  -2.414  0.00  0.00    +0.005 A 
ATOM     22  C   UNL     1       1.471  -2.080  -2.044  0.00  0.00    +0.029 A 
ATOM     23  C   UNL     1       1.262  -2.360  -0.707  0.00  0.00    +0.109 A 
ATOM     24  C   UNL     1       1.675  -1.462   0.260  0.00  0.00    +0.029 A 
ATOM     25  C   UNL     1       2.302  -0.287  -0.110  0.00  0.00    +0.005 A 
ENDBRANCH  16  23
ENDBRANCH   8  16
ENDBRANCH   1   8
BRANCH   4  26
ATOM     26  C   UNL     1       4.031  -9.063  -3.139  0.00  0.00    -0.039 C 
BRANCH  26  27
ATOM     27  C   UNL     1       5.528  -8.984  -3.294  0.00  0.00    -0.018 A 
ATOM     28  C   UNL     1       6.076  -8.256  -4.334  0.00  0.00    +0.009 A 
ATOM     29  C   UNL     1       7.448  -8.180  -4.481  0.00  0.00    +0.050 A 
ATOM     30  C   UNL     1       8.281  -8.834  -3.585  0.00  0.00    +0.165 A 
ATOM     31  C   UNL     1       7.733  -9.566  -2.538  0.00  0.00    +0.204 A 
ATOM     32  C   UNL     1       6.353  -9.636  -2.391  0.00  0.00    +0.167 A 
BRANCH  32  33
ATOM     33  O   UNL     1       5.813 -10.346  -1.365  0.00  0.00    -0.491 OA
ATOM     34  C   UNL     1       5.534 -11.727  -1.608  0.00  0.00    +0.277 C 
ENDBRANCH  32  33
BRANCH  31  35
ATOM     35  O   UNL     1       8.547 -10.209  -1.657  0.00  0.00    -0.488 OA
ATOM     36  C   UNL     1       8.957  -9.477  -0.499  0.00  0.00    +0.277 C 
ENDBRANCH  31  35
BRANCH  30  37
ATOM     37  O   UNL     1       9.631  -8.759  -3.731  0.00  0.00    -0.491 OA
ATOM     38  C   UNL     1      10.123  -7.990  -4.830  0.00  0.00    +0.277 C 
ENDBRANCH  30  37
ENDBRANCH  26  27
ENDBRANCH   4  26
TORSDOF 9
