REMARK  Name = ZINC09222752
REMARK  8 active torsions:
REMARK  status: ('A' for Active; 'I' for Inactive)
REMARK    1  A    between atoms: C_1  and  C_2
REMARK    2  A    between atoms: C_7  and  C_9
REMARK    3  A    between atoms: C_7  and  C_10
REMARK    4  A    between atoms: N_13  and  C_17
REMARK    5  A    between atoms: C_17  and  C_18
REMARK    6  A    between atoms: N_20  and  C_21
REMARK    7  A    between atoms: C_21  and  C_23
REMARK    8  A    between atoms: C_21  and  C_33
REMARK                            x       y       z     vdW  Elec       q    Type
REMARK                         _______ _______ _______ _____ _____    ______ ____
ROOT
ATOM      1  C   UNL     1      -4.972  -3.399  -2.310  0.00  0.00    +0.232 C 
ATOM      2  O   UNL     1      -4.651  -2.256  -2.558  0.00  0.00    -0.274 OA
ATOM      3  N   UNL     1      -6.127  -3.895  -2.795  0.00  0.00    -0.299 N 
ATOM      4  H   UNL     1      -6.383  -4.809  -2.596  0.00  0.00    +0.150 HD
ENDROOT
BRANCH   1   5
ATOM      5  C   UNL     1      -4.079  -4.264  -1.458  0.00  0.00    +0.213 C 
BRANCH   5  17
ATOM      6  C   UNL     1      -0.159   1.471  -0.048  0.00  0.00    +0.007 C 
ATOM      7  C   UNL     1      -0.085  -0.057  -0.027  0.00  0.00    -0.011 C 
ATOM      8  C   UNL     1      -1.501  -0.636   0.015  0.00  0.00    +0.038 C 
ATOM      9  C   UNL     1      -1.428  -2.159   0.057  0.00  0.00    +0.113 C 
ATOM     10  C   UNL     1      -0.642  -2.627   1.276  0.00  0.00    +0.041 C 
ATOM     11  C   UNL     1       0.772  -2.041   1.230  0.00  0.00    -0.032 C 
ATOM     12  C   UNL     1       0.688  -0.513   1.212  0.00  0.00    +0.009 C 
ATOM     13  C   UNL     1       1.553  -2.495   2.465  0.00  0.00    +0.011 C 
ATOM     14  C   UNL     1       1.485  -2.527  -0.033  0.00  0.00    +0.011 C 
ATOM     15  C   UNL     1      -2.817  -2.754   0.064  0.00  0.00    +0.247 C 
ATOM     16  O   UNL     1      -3.679  -2.595   0.901  0.00  0.00    -0.273 OA
ATOM     17  N   UNL     1      -2.895  -3.499  -1.058  0.00  0.00    -0.215 N 
ATOM     18  C   UNL     1      -1.756  -3.453  -1.761  0.00  0.00    +0.310 C 
ATOM     19  O   UNL     1      -1.585  -4.042  -2.810  0.00  0.00    -0.252 OA
ATOM     20  N   UNL     1      -0.823  -2.679  -1.176  0.00  0.00    -0.285 N 
ATOM     21  H   UNL     1       0.073  -2.500  -1.504  0.00  0.00    +0.151 HD
ENDBRANCH   5  17
ENDBRANCH   1   5
BRANCH   3  22
ATOM     22  C   UNL     1      -6.995  -3.054  -3.623  0.00  0.00    +0.208 C 
BRANCH  22  23
ATOM     23  C   UNL     1      -7.839  -3.928  -4.515  0.00  0.00    -0.015 A 
ATOM     24  C   UNL     1      -8.380  -5.101  -4.020  0.00  0.00    +0.009 A 
ATOM     25  C   UNL     1      -9.153  -5.905  -4.835  0.00  0.00    +0.050 A 
ATOM     26  C   UNL     1      -9.389  -5.538  -6.152  0.00  0.00    +0.162 A 
ATOM     27  C   UNL     1      -8.847  -4.359  -6.648  0.00  0.00    +0.162 A 
ATOM     28  C   UNL     1      -8.075  -3.554  -5.824  0.00  0.00    +0.055 A 
ATOM     29  O   UNL     1      -9.072  -3.976  -7.935  0.00  0.00    -0.485 OA
ATOM     30  C   UNL     1      -9.543  -4.986  -8.834  0.00  0.00    +0.270 C 
ATOM     31  C   UNL     1     -10.674  -5.758  -8.141  0.00  0.00    +0.270 C 
ATOM     32  O   UNL     1     -10.149  -6.343  -6.944  0.00  0.00    -0.485 OA
ENDBRANCH  22  23
BRANCH  22  33
ATOM     33  C   UNL     1      -7.905  -2.217  -2.721  0.00  0.00    +0.412 C 
ATOM     34  F   UNL     1      -7.121  -1.406  -1.893  0.00  0.00    -0.168 F 
ATOM     35  F   UNL     1      -8.734  -1.414  -3.512  0.00  0.00    -0.168 F 
ATOM     36  F   UNL     1      -8.690  -3.066  -1.934  0.00  0.00    -0.168 F 
ENDBRANCH  22  33
ENDBRANCH   3  22
TORSDOF 5
