REMARK  Name = ZINC13038732
REMARK  12 active torsions:
REMARK  status: ('A' for Active; 'I' for Inactive)
REMARK    1  A    between atoms: C_1  and  C_2
REMARK    2  A    between atoms: C_3  and  N_14
REMARK    3  A    between atoms: C_4  and  C_13
REMARK    4  A    between atoms: N_5  and  C_7
REMARK    5  A    between atoms: C_15  and  C_17
REMARK    6  A    between atoms: C_17  and  N_18
REMARK    7  A    between atoms: C_21  and  C_25
REMARK    8  A    between atoms: C_21  and  C_26
REMARK    9  A    between atoms: C_26  and  C_27
REMARK   10  A    between atoms: C_27  and  C_28
REMARK   11  A    between atoms: C_28  and  C_29
REMARK   12  A    between atoms: C_28  and  C_30
REMARK                            x       y       z     vdW  Elec       q    Type
REMARK                         _______ _______ _______ _____ _____    ______ ____
ROOT
ATOM      1  N   UNL     1      -0.222   0.020  -0.103  0.00  0.00    -0.281 N 
ATOM      2  C   UNL     1       0.848  -0.752   0.173  0.00  0.00    +0.235 C 
ATOM      3  O   UNL     1       1.876  -0.245   0.568  0.00  0.00    -0.274 OA
ATOM      4  H   UNL     1      -1.052  -0.388  -0.396  0.00  0.00    +0.155 HD
ENDROOT
BRANCH   1   7
ATOM      5  C   UNL     1       0.613   1.487   2.515  0.00  0.00    +0.069 C 
ATOM      6  C   UNL     1       0.237   2.112   1.196  0.00  0.00    +0.082 A 
ATOM      7  C   UNL     1      -0.136   1.417   0.035  0.00  0.00    +0.078 A 
ATOM      8  C   UNL     1      -0.392   2.333  -0.934  0.00  0.00    +0.063 A 
ATOM      9  N   UNL     1      -0.194   3.567  -0.394  0.00  0.00    -0.235 N 
ATOM     10  N   UNL     1       0.202   3.394   0.939  0.00  0.00    -0.170 NA
ATOM     11  C   UNL     1      -0.820   2.038  -2.348  0.00  0.00    +0.068 C 
BRANCH   9  12
ATOM     12  C   UNL     1      -0.353   4.792  -1.056  0.00  0.00    +0.066 A 
ATOM     13  C   UNL     1       0.567   5.814  -0.859  0.00  0.00    +0.028 A 
ATOM     14  C   UNL     1       0.411   7.018  -1.517  0.00  0.00    +0.002 A 
ATOM     15  C   UNL     1      -0.667   7.211  -2.362  0.00  0.00    +0.000 A 
ATOM     16  C   UNL     1      -1.587   6.198  -2.556  0.00  0.00    +0.002 A 
ATOM     17  C   UNL     1      -1.433   4.989  -1.905  0.00  0.00    +0.028 A 
ENDBRANCH   9  12
ENDBRANCH   1   7
BRANCH   2  18
ATOM     18  C   UNL     1       0.766  -2.246  -0.010  0.00  0.00    +0.214 C 
BRANCH  18  19
ATOM     19  N   UNL     1       2.049  -2.853   0.353  0.00  0.00    -0.215 N 
ATOM     20  C   UNL     1       2.362  -3.277   1.594  0.00  0.00    +0.247 C 
ATOM     21  O   UNL     1       1.662  -3.228   2.582  0.00  0.00    -0.273 OA
ATOM     22  C   UNL     1       3.771  -3.826   1.496  0.00  0.00    +0.110 C 
ATOM     23  N   UNL     1       4.122  -3.629   0.079  0.00  0.00    -0.285 N 
ATOM     24  C   UNL     1       3.053  -3.061  -0.507  0.00  0.00    +0.310 C 
ATOM     25  O   UNL     1       3.005  -2.765  -1.685  0.00  0.00    -0.252 OA
ATOM     26  C   UNL     1       4.720  -3.039   2.403  0.00  0.00    +0.041 C 
ATOM     27  H   UNL     1       4.959  -3.867  -0.349  0.00  0.00    +0.151 HD
BRANCH  22  28
ATOM     28  C   UNL     1       3.796  -5.313   1.855  0.00  0.00    +0.035 C 
BRANCH  28  29
ATOM     29  C   UNL     1       5.228  -5.840   1.749  0.00  0.00    +0.005 C 
BRANCH  29  30
ATOM     30  C   UNL     1       5.253  -7.327   2.108  0.00  0.00    -0.017 C 
ATOM     31  C   UNL     1       4.453  -8.116   1.070  0.00  0.00    +0.007 C 
ATOM     32  C   UNL     1       6.700  -7.824   2.123  0.00  0.00    +0.007 C 
ENDBRANCH  29  30
ENDBRANCH  28  29
ENDBRANCH  22  28
ENDBRANCH  18  19
ENDBRANCH   2  18
TORSDOF 7
