REMARK  Name = ZINC63627282
REMARK  7 active torsions:
REMARK  status: ('A' for Active; 'I' for Inactive)
REMARK    1  A    between atoms: C_1  and  C_2
REMARK    2  A    between atoms: C_2  and  C_3
REMARK    3  A    between atoms: C_3  and  C_4
REMARK    4  A    between atoms: C_7  and  S_10
REMARK    5  A    between atoms: S_10  and  N_13
REMARK    6  A    between atoms: N_13  and  C_14
REMARK    7  A    between atoms: C_17  and  C_20
REMARK                            x       y       z     vdW  Elec       q    Type
REMARK                         _______ _______ _______ _____ _____    ______ ____
ROOT
ATOM      1  C   UNL     1      -1.437  -6.673   0.117  0.00  0.00    +0.048 A 
ATOM      2  C   UNL     1      -1.939  -5.486  -0.403  0.00  0.00    +0.025 A 
ATOM      3  C   UNL     1      -3.294  -5.229  -0.346  0.00  0.00    +0.008 A 
ATOM      4  C   UNL     1      -4.151  -6.149   0.229  0.00  0.00    -0.021 A 
ATOM      5  C   UNL     1      -3.655  -7.331   0.747  0.00  0.00    +0.008 A 
ATOM      6  C   UNL     1      -2.301  -7.598   0.689  0.00  0.00    +0.025 A 
ENDROOT
BRANCH   4   7
ATOM      7  C   UNL     1      -5.630  -5.864   0.290  0.00  0.00    +0.133 C 
ATOM      8  C   UNL     1      -6.356  -6.645  -0.782  0.00  0.00    +0.012 C 
ATOM      9  C   UNL     1      -7.223  -7.456  -0.133  0.00  0.00    -0.002 A 
ATOM     10  C   UNL     1      -8.200  -8.445  -0.603  0.00  0.00    +0.029 A 
ATOM     11  C   UNL     1      -8.942  -9.118   0.308  0.00  0.00    +0.042 A 
ATOM     12  C   UNL     1      -8.800  -8.893   1.685  0.00  0.00    +0.022 A 
ATOM     13  C   UNL     1      -7.924  -8.000   2.192  0.00  0.00    +0.027 A 
ATOM     14  C   UNL     1      -7.093  -7.237   1.325  0.00  0.00    +0.043 A 
ATOM     15  N   UNL     1      -6.181  -6.325   1.569  0.00  0.00    -0.374 N 
ATOM     16 CL   UNL     1     -10.099 -10.289  -0.243  0.00  0.00    -0.084 Cl
ATOM     17  H   UNL     1      -5.916  -6.008   2.447  0.00  0.00    +0.161 HD
ENDBRANCH   4   7
BRANCH   1  18
ATOM     18  N   UNL     1      -0.066  -6.937   0.061  0.00  0.00    -0.216 N 
ATOM     19  H   UNL     1       0.476  -6.861   0.862  0.00  0.00    +0.174 HD
BRANCH  18  20
ATOM     20  S   UNL     1       0.633  -7.379  -1.373  0.00  0.00    +0.072 S 
ATOM     21  O   UNL     1       1.999  -7.653  -1.092  0.00  0.00    -0.150 OA
ATOM     22  O   UNL     1       0.233  -6.413  -2.336  0.00  0.00    -0.150 OA
BRANCH  20  26
ATOM     23  C   UNL     1      -1.242 -11.304  -2.625  0.00  0.00    -0.047 A 
ATOM     24  C   UNL     1      -1.737 -10.113  -3.121  0.00  0.00    +0.005 A 
ATOM     25  C   UNL     1      -1.164  -8.914  -2.739  0.00  0.00    +0.029 A 
ATOM     26  C   UNL     1      -0.097  -8.907  -1.860  0.00  0.00    +0.109 A 
ATOM     27  C   UNL     1       0.397 -10.099  -1.363  0.00  0.00    +0.029 A 
ATOM     28  C   UNL     1      -0.178 -11.297  -1.742  0.00  0.00    +0.005 A 
BRANCH  23  29
ATOM     29  C   UNL     1      -1.866 -12.611  -3.042  0.00  0.00    +0.035 C 
BRANCH  29  31
ATOM     30  C   UNL     1      -3.631 -14.294  -2.499  0.00  0.00    +0.004 C 
ATOM     31  C   UNL     1      -2.997 -12.967  -2.075  0.00  0.00    +0.001 C 
ENDBRANCH  29  31
ENDBRANCH  23  29
ENDBRANCH  20  26
ENDBRANCH  18  20
ENDBRANCH   1  18
TORSDOF 6
