REMARK  Name = ZINC49865038
REMARK  7 active torsions:
REMARK  status: ('A' for Active; 'I' for Inactive)
REMARK    1  A    between atoms: C_5  and  S_16
REMARK    2  A    between atoms: C_6  and  N_7
REMARK    3  A    between atoms: N_7  and  C_8
REMARK    4  A    between atoms: S_16  and  N_19
REMARK    5  A    between atoms: C_20  and  C_21
REMARK    6  A    between atoms: C_21  and  N_22
REMARK    7  A    between atoms: N_25  and  C_26
REMARK                            x       y       z     vdW  Elec       q    Type
REMARK                         _______ _______ _______ _____ _____    ______ ____
ROOT
ATOM      1  C   UNL     1      -0.701   0.988  -0.862  0.00  0.00    +0.042 A 
ATOM      2  C   UNL     1       0.371   1.850  -0.766  0.00  0.00    +0.084 A 
ATOM      3  N   UNL     1       1.586   1.395  -0.520  0.00  0.00    -0.365 N 
ATOM      4  C   UNL     1       1.829   0.108  -0.356  0.00  0.00    +0.113 A 
ATOM      5  C   UNL     1       0.811  -0.819  -0.436  0.00  0.00    +0.149 A 
ATOM      6  C   UNL     1      -0.487  -0.380  -0.695  0.00  0.00    +0.057 A 
ATOM      7  H   UNL     1       2.321   2.025  -0.459  0.00  0.00    +0.165 HD
ENDROOT
BRANCH   5   8
ATOM      8  S   UNL     1       1.147  -2.535  -0.216  0.00  0.00    +0.103 S 
ATOM      9  O   UNL     1       0.524  -3.213  -1.299  0.00  0.00    -0.146 OA
ATOM     10  O   UNL     1       2.538  -2.646   0.053  0.00  0.00    -0.146 OA
BRANCH   8  11
ATOM     11  N   UNL     1       0.358  -3.015   1.159  0.00  0.00    -0.116 NA
ATOM     12  C   UNL     1       0.380  -4.258   1.515  0.00  0.00    +0.144 C 
ATOM     13  N   UNL     1      -0.387  -4.682   2.569  0.00  0.00    -0.327 N 
ATOM     14  H   UNL     1      -0.432  -5.626   2.787  0.00  0.00    +0.148 HD
BRANCH  13  15
ATOM     15  C   UNL     1      -1.139  -3.709   3.365  0.00  0.00    +0.072 C 
ATOM     16  C   UNL     1      -0.230  -3.127   4.450  0.00  0.00    +0.022 C 
ATOM     17  C   UNL     1      -1.015  -2.111   5.282  0.00  0.00    +0.002 C 
ATOM     18  C   UNL     1      -2.212  -2.804   5.937  0.00  0.00    +0.000 C 
ATOM     19  C   UNL     1      -3.120  -3.386   4.852  0.00  0.00    +0.002 C 
ATOM     20  C   UNL     1      -2.335  -4.402   4.020  0.00  0.00    +0.022 C 
ENDBRANCH  13  15
BRANCH  12  21
ATOM     21  C   UNL     1       1.248  -5.241   0.772  0.00  0.00    +0.283 C 
BRANCH  21  22
ATOM     22  N   UNL     1       1.216  -6.536   1.456  0.00  0.00    +0.030 N 
ATOM     23  O   UNL     1       1.011  -7.547   0.826  0.00  0.00    -0.131 OA
ATOM     24  O   UNL     1       1.394  -6.593   2.651  0.00  0.00    -0.131 OA
ENDBRANCH  21  22
ENDBRANCH  12  21
ENDBRANCH   8  11
ENDBRANCH   5   8
BRANCH   6  25
ATOM     25  N   UNL     1      -1.542  -1.283  -0.783  0.00  0.00    -0.339 N 
ATOM     26  H   UNL     1      -1.379  -2.232  -0.665  0.00  0.00    +0.146 HD
BRANCH  25  27
ATOM     27  C   UNL     1      -2.899  -0.801  -1.055  0.00  0.00    +0.070 C 
ATOM     28  C   UNL     1      -3.563  -0.379   0.257  0.00  0.00    +0.022 C 
ATOM     29  C   UNL     1      -4.793   0.478  -0.046  0.00  0.00    +0.002 C 
ATOM     30  C   UNL     1      -4.452   1.491  -1.141  0.00  0.00    +0.000 C 
ATOM     31  C   UNL     1      -5.242   1.158  -2.408  0.00  0.00    +0.000 C 
ATOM     32  C   UNL     1      -4.606  -0.048  -3.102  0.00  0.00    +0.000 C 
ATOM     33  C   UNL     1      -4.974  -1.325  -2.344  0.00  0.00    +0.002 C 
ATOM     34  C   UNL     1      -3.717  -1.919  -1.705  0.00  0.00    +0.022 C 
ENDBRANCH  25  27
ENDBRANCH   6  25
TORSDOF 7
