REMARK  Name = ZINC03902465
REMARK  6 active torsions:
REMARK  status: ('A' for Active; 'I' for Inactive)
REMARK    1  A    between atoms: C_1  and  C_2
REMARK    2  A    between atoms: C_2  and  O_4
REMARK    3  A    between atoms: O_4  and  C_5
REMARK    4  A    between atoms: C_8  and  C_28
REMARK    5  A    between atoms: C_17  and  O_27
REMARK    6  A    between atoms: C_21  and  O_26
REMARK                            x       y       z     vdW  Elec       q    Type
REMARK                         _______ _______ _______ _____ _____    ______ ____
ROOT
ATOM      1  C   UNL     1       5.364   1.361   0.493  0.00  0.00    +0.214 C 
ATOM      2  C   UNL     1       6.447   2.449   0.391  0.00  0.00    +0.062 C 
ATOM      3  C   UNL     1       5.861   3.832   0.458  0.00  0.00    +0.033 C 
ATOM      4  C   UNL     1       4.484   3.867   1.146  0.00  0.00    +0.009 C 
ATOM      5  C   UNL     1       4.216   5.377   1.223  0.00  0.00    +0.012 C 
ATOM      6  C   UNL     1       5.622   5.947   1.568  0.00  0.00    +0.075 C 
ATOM      7  C   UNL     1       6.621   4.824   1.325  0.00  0.00    +0.140 C 
ATOM      8  O   UNL     1       7.753   4.724   1.720  0.00  0.00    -0.297 OA
ATOM      9  C   UNL     1       3.470   2.986   0.516  0.00  0.00    +0.033 C 
ATOM     10  C   UNL     1       4.101   1.799  -0.218  0.00  0.00    +0.131 C 
ATOM     11  C   UNL     1       3.027   0.751  -0.337  0.00  0.00    -0.009 A 
ATOM     12  C   UNL     1       3.352  -0.592  -0.343  0.00  0.00    +0.010 A 
ATOM     13  C   UNL     1       2.362  -1.553  -0.460  0.00  0.00    +0.046 A 
ATOM     14  C   UNL     1       1.035  -1.160  -0.561  0.00  0.00    +0.117 A 
ATOM     15  C   UNL     1       0.720   0.182  -0.557  0.00  0.00    +0.049 A 
ATOM     16  C   UNL     1       1.708   1.155  -0.451  0.00  0.00    -0.038 A 
ATOM     17  C   UNL     1       1.252   2.588  -0.467  0.00  0.00    +0.036 C 
ATOM     18  C   UNL     1       2.396   3.602  -0.362  0.00  0.00    +0.012 C 
ATOM     19  C   UNL     1       5.802   4.460  -0.939  0.00  0.00    +0.019 C 
ENDROOT
BRANCH  14  20
ATOM     20  O   UNL     1       0.051  -2.094  -0.668  0.00  0.00    -0.507 OA
ATOM     21  H   UNL     1      -0.157  -2.344  -1.579  0.00  0.00    +0.292 HD
ENDBRANCH  14  20
BRANCH  10  22
ATOM     22  O   UNL     1       4.423   2.171  -1.560  0.00  0.00    -0.380 OA
ATOM     23  H   UNL     1       4.748   1.441  -2.104  0.00  0.00    +0.211 HD
ENDBRANCH  10  22
BRANCH   1  24
ATOM     24  O   UNL     1       5.083   1.076   1.890  0.00  0.00    -0.458 OA
BRANCH  24  26
ATOM     25  C   UNL     1       5.609  -0.205   3.934  0.00  0.00    +0.136 C 
ATOM     26  C   UNL     1       5.842   0.144   2.487  0.00  0.00    +0.304 C 
ATOM     27  O   UNL     1       6.712  -0.417   1.863  0.00  0.00    -0.251 OA
ENDBRANCH  24  26
ENDBRANCH   1  24
TORSDOF 4
