REMARK  Name = ZINC63180090
REMARK  9 active torsions:
REMARK  status: ('A' for Active; 'I' for Inactive)
REMARK    1  A    between atoms: C_1  and  C_2
REMARK    2  A    between atoms: C_2  and  C_3
REMARK    3  A    between atoms: C_2  and  O_4
REMARK    4  A    between atoms: O_4  and  C_5
REMARK    5  A    between atoms: C_8  and  S_24
REMARK    6  A    between atoms: C_10  and  N_11
REMARK    7  A    between atoms: C_12  and  C_14
REMARK    8  A    between atoms: C_14  and  C_15
REMARK    9  A    between atoms: S_24  and  N_27
REMARK                            x       y       z     vdW  Elec       q    Type
REMARK                         _______ _______ _______ _____ _____    ______ ____
ROOT
ATOM      1  C   UNL     1      -1.580  -1.661  -0.676  0.00  0.00    +0.142 A 
ATOM      2  C   UNL     1      -0.535  -2.362  -1.255  0.00  0.00    +0.049 A 
ATOM      3  C   UNL     1      -0.788  -3.526  -1.956  0.00  0.00    +0.032 A 
ATOM      4  C   UNL     1      -2.083  -3.995  -2.081  0.00  0.00    +0.107 A 
ATOM      5  C   UNL     1      -3.131  -3.301  -1.506  0.00  0.00    +0.055 A 
ATOM      6  C   UNL     1      -2.884  -2.135  -0.797  0.00  0.00    +0.077 A 
ENDROOT
BRANCH   6   7
ATOM      7  N   UNL     1      -3.945  -1.433  -0.209  0.00  0.00    -0.282 N 
ATOM      8  C   UNL     1      -5.192  -1.557  -0.704  0.00  0.00    +0.221 C 
ATOM      9  O   UNL     1      -5.381  -2.192  -1.720  0.00  0.00    -0.275 OA
ATOM     10  H   UNL     1      -3.781  -0.857   0.554  0.00  0.00    +0.155 HD
BRANCH   8  11
ATOM     11  C   UNL     1      -6.352  -0.907   0.005  0.00  0.00    +0.129 C 
BRANCH  11  12
ATOM     12  C   UNL     1      -7.626  -1.196  -0.747  0.00  0.00    -0.033 C 
ATOM     13  C   UNL     1      -8.508  -2.192  -0.501  0.00  0.00    -0.001 A 
ATOM     14  C   UNL     1      -8.543  -3.263   0.501  0.00  0.00    +0.010 A 
ATOM     15  C   UNL     1      -9.580  -4.131   0.497  0.00  0.00    +0.001 A 
ATOM     16  C   UNL     1     -10.620  -4.033  -0.438  0.00  0.00    +0.002 A 
ATOM     17  C   UNL     1     -10.657  -3.076  -1.389  0.00  0.00    +0.026 A 
ATOM     18  C   UNL     1      -9.618  -2.110  -1.477  0.00  0.00    +0.043 A 
ATOM     19  N   UNL     1      -9.430  -1.102  -2.295  0.00  0.00    -0.380 N 
ATOM     20  C   UNL     1      -8.181  -0.427  -1.926  0.00  0.00    +0.145 C 
ATOM     21  H   UNL     1     -10.020  -0.844  -3.020  0.00  0.00    +0.160 HD
ENDBRANCH  11  12
ENDBRANCH   8  11
ENDBRANCH   6   7
BRANCH   4  22
ATOM     22  S   UNL     1      -2.398  -5.479  -2.977  0.00  0.00    +0.061 S 
ATOM     23  O   UNL     1      -3.749  -5.412  -3.412  0.00  0.00    -0.153 OA
ATOM     24  O   UNL     1      -1.314  -5.646  -3.880  0.00  0.00    -0.153 OA
BRANCH  22  25
ATOM     25  N   UNL     1      -2.310  -6.731  -1.896  0.00  0.00    -0.177 NA
ATOM     26  C   UNL     1      -1.033  -7.412  -1.640  0.00  0.00    +0.109 C 
ATOM     27  C   UNL     1      -0.763  -7.403  -0.133  0.00  0.00    +0.017 C 
ATOM     28  C   UNL     1      -1.959  -8.015   0.600  0.00  0.00    +0.003 C 
ATOM     29  C   UNL     1      -3.210  -7.176   0.328  0.00  0.00    +0.017 C 
ATOM     30  C   UNL     1      -3.507  -7.178  -1.170  0.00  0.00    +0.109 C 
ENDBRANCH  22  25
ENDBRANCH   4  22
BRANCH   1  31
ATOM     31  O   UNL     1      -1.333  -0.515   0.014  0.00  0.00    -0.488 OA
BRANCH  31  33
ATOM     32  C   UNL     1      -0.005   1.504   0.011  0.00  0.00    +0.051 C 
ATOM     33  C   UNL     1       0.010  -0.026  -0.001  0.00  0.00    +0.167 C 
ATOM     34  C   UNL     1       0.753  -0.539   1.234  0.00  0.00    +0.051 C 
ENDBRANCH  31  33
ENDBRANCH   1  31
TORSDOF 7
