REMARK  Name = ZINC09153448
REMARK  11 active torsions:
REMARK  status: ('A' for Active; 'I' for Inactive)
REMARK    1  A    between atoms: C_1  and  C_2
REMARK    2  A    between atoms: C_2  and  C_3
REMARK    3  A    between atoms: C_3  and  N_4
REMARK    4  A    between atoms: N_15  and  C_18
REMARK    5  A    between atoms: C_18  and  C_19
REMARK    6  A    between atoms: N_21  and  C_22
REMARK    7  A    between atoms: C_22  and  C_23
REMARK    8  A    between atoms: C_23  and  N_68
REMARK    9  A    between atoms: C_24  and  C_25
REMARK   10  A    between atoms: C_24  and  N_68
REMARK   11  A    between atoms: C_30  and  N_68
REMARK                            x       y       z     vdW  Elec       q    Type
REMARK                         _______ _______ _______ _____ _____    ______ ____
ROOT
ATOM      1  C   UNL     1       6.780   4.068  -2.089  0.00  0.00    +0.235 C 
ATOM      2  O   UNL     1       6.152   3.892  -3.112  0.00  0.00    -0.274 OA
ATOM      3  N   UNL     1       8.117   4.236  -2.139  0.00  0.00    -0.316 N 
ATOM      4  H   UNL     1       8.619   4.377  -1.321  0.00  0.00    +0.149 HD
ENDROOT
BRANCH   1   5
ATOM      5  C   UNL     1       6.066   4.098  -0.762  0.00  0.00    +0.243 C 
BRANCH   5  17
ATOM      6  N   UNL     1       1.951   1.322  -1.216  0.00  0.00    -0.336 N 
ATOM      7  C   UNL     1       0.638   1.671  -1.449  0.00  0.00    +0.050 A 
ATOM      8  C   UNL     1      -0.528   0.920  -1.581  0.00  0.00    +0.026 A 
ATOM      9  C   UNL     1      -1.728   1.552  -1.822  0.00  0.00    +0.002 A 
ATOM     10  C   UNL     1      -1.790   2.934  -1.927  0.00  0.00    +0.001 A 
ATOM     11  C   UNL     1      -0.658   3.690  -1.801  0.00  0.00    +0.010 A 
ATOM     12  C   UNL     1       0.568   3.070  -1.561  0.00  0.00    +0.009 A 
ATOM     13  C   UNL     1       1.939   3.568  -1.379  0.00  0.00    +0.033 A 
ATOM     14  C   UNL     1       2.743   2.448  -1.171  0.00  0.00    +0.118 A 
ATOM     15  C   UNL     1       4.130   2.641  -0.965  0.00  0.00    +0.292 A 
ATOM     16  O   UNL     1       4.865   1.685  -0.780  0.00  0.00    -0.264 OA
ATOM     17  N   UNL     1       4.631   3.893  -0.975  0.00  0.00    -0.219 N 
ATOM     18  N   UNL     1       3.801   4.997  -1.187  0.00  0.00    -0.175 NA
ATOM     19  C   UNL     1       2.519   4.854  -1.380  0.00  0.00    +0.143 A 
BRANCH   6  20
ATOM     20  C   UNL     1       2.435  -0.050  -1.040  0.00  0.00    +0.122 C 
BRANCH  20  22
ATOM     21  C   UNL     1       3.334  -2.062  -2.216  0.00  0.00    +0.005 C 
ATOM     22  C   UNL     1       2.829  -0.630  -2.400  0.00  0.00    +0.018 C 
ENDBRANCH  20  22
ENDBRANCH   6  20
ENDBRANCH   5  17
ENDBRANCH   1   5
BRANCH   3  23
ATOM     23  C   UNL     1       8.811   4.207  -3.429  0.00  0.00    +0.086 C 
BRANCH  23  24
ATOM     24  C   UNL     1      10.309   4.422  -3.207  0.00  0.00    -0.059 C 
BRANCH  24  25
ATOM     25  N   UNL     1      10.990   4.414  -4.518  0.00  0.00    +0.387 N 
ATOM     26  H   UNL     1      10.654   3.611  -5.064  0.00  0.00    -0.081 HD
BRANCH  25  27
ATOM     27  C   UNL     1      10.682   5.657  -5.255  0.00  0.00    -0.068 C 
ATOM     28  C   UNL     1      10.684   6.876  -4.309  0.00  0.00    -0.015 C 
ATOM     29  C   UNL     1       9.527   7.764  -4.831  0.00  0.00    -0.002 C 
ATOM     30  C   UNL     1       8.453   6.723  -5.234  0.00  0.00    -0.002 C 
ATOM     31  C   UNL     1       9.263   5.560  -5.843  0.00  0.00    -0.015 C 
ENDBRANCH  25  27
BRANCH  25  32
ATOM     32  C   UNL     1      12.450   4.288  -4.329  0.00  0.00    -0.003 C 
BRANCH  32  33
ATOM     33  C   UNL     1      13.087   3.977  -5.659  0.00  0.00    +0.089 A 
ATOM     34  C   UNL     1      13.618   4.877  -6.506  0.00  0.00    +0.042 A 
ATOM     35  C   UNL     1      14.102   4.154  -7.621  0.00  0.00    +0.041 A 
ATOM     36  C   UNL     1      13.830   2.856  -7.392  0.00  0.00    +0.195 A 
ATOM     37  O   UNL     1      13.215   2.755  -6.202  0.00  0.00    -0.470 OA
ENDBRANCH  32  33
ENDBRANCH  25  32
ENDBRANCH  24  25
ENDBRANCH  23  24
ENDBRANCH   3  23
TORSDOF 10
