REMARK  Name = ZINC18196361
REMARK  4 active torsions:
REMARK  status: ('A' for Active; 'I' for Inactive)
REMARK    1  A    between atoms: C_3  and  C_6
REMARK    2  A    between atoms: C_11  and  C_21
REMARK    3  A    between atoms: C_18  and  O_19
REMARK    4  A    between atoms: C_26  and  O_27
REMARK                            x       y       z     vdW  Elec       q    Type
REMARK                         _______ _______ _______ _____ _____    ______ ____
ROOT
ATOM      1  C   UNL     1      -2.355   4.080   0.047  0.00  0.00    +0.039 C 
ATOM      2  C   UNL     1      -2.287   4.989  -1.181  0.00  0.00    +0.060 C 
ATOM      3  C   UNL     1      -3.424   5.986  -1.142  0.00  0.00    +0.017 C 
ATOM      4  C   UNL     1      -3.915   6.429   0.035  0.00  0.00    +0.024 C 
ATOM      5  C   UNL     1      -5.041   7.437   0.117  0.00  0.00    +0.096 C 
ATOM      6  C   UNL     1      -5.257   8.066  -1.230  0.00  0.00    +0.067 A 
ATOM      7  C   UNL     1      -4.710   7.552  -2.376  0.00  0.00    +0.126 A 
ATOM      8  N   UNL     1      -5.093   8.336  -3.402  0.00  0.00    -0.260 N 
ATOM      9  H   UNL     1      -4.851   8.208  -4.364  0.00  0.00    +0.190 HD
ATOM     10  N   UNL     1      -5.893   9.365  -2.879  0.00  0.00    -0.134 NA
ATOM     11  C   UNL     1      -5.988   9.198  -1.578  0.00  0.00    +0.237 A 
ATOM     12  N   UNL     1      -3.914   6.413  -2.351  0.00  0.00    -0.303 N 
ATOM     13  C   UNL     1      -3.392   5.967   1.256  0.00  0.00    +0.162 C 
ATOM     14  O   UNL     1      -3.850   6.393   2.298  0.00  0.00    -0.292 OA
ATOM     15  C   UNL     1      -2.279   4.958   1.301  0.00  0.00    +0.088 C 
ATOM     16  H   UNL     1      -3.711   5.931  -3.167  0.00  0.00    +0.153 HD
ENDROOT
BRANCH   5  17
ATOM     17  C   UNL     1      -6.305   6.743   0.553  0.00  0.00    +0.009 A 
ATOM     18  C   UNL     1      -6.829   5.717  -0.211  0.00  0.00    +0.028 A 
ATOM     19  C   UNL     1      -7.990   5.079   0.189  0.00  0.00    +0.043 A 
ATOM     20  C   UNL     1      -8.629   5.466   1.354  0.00  0.00    +0.043 A 
ATOM     21  C   UNL     1      -8.108   6.491   2.121  0.00  0.00    +0.084 A 
ATOM     22  C   UNL     1      -6.940   7.128   1.724  0.00  0.00    +0.139 A 
ATOM     23 CL   UNL     1      -8.909   6.976   3.583  0.00  0.00    -0.080 Cl
ATOM     24 CL   UNL     1      -8.646   3.791  -0.773  0.00  0.00    -0.083 Cl
BRANCH  22  25
ATOM     25  O   UNL     1      -6.422   8.133   2.480  0.00  0.00    -0.505 OA
ATOM     26  H   UNL     1      -6.752   9.011   2.245  0.00  0.00    +0.292 HD
ENDBRANCH  22  25
ENDBRANCH   5  17
BRANCH   1  29
ATOM     27  C   UNL     1      -0.013   1.076   0.008  0.00  0.00    +0.008 A 
ATOM     28  C   UNL     1      -1.213   1.761   0.017  0.00  0.00    +0.011 A 
ATOM     29  C   UNL     1      -1.196   3.116   0.030  0.00  0.00    -0.006 A 
ATOM     30  S   UNL     1       0.555   3.464   0.015  0.00  0.00    -0.101 S 
ATOM     31  C   UNL     1       1.146   1.780   0.001  0.00  0.00    +0.045 A 
ENDBRANCH   1  29
BRANCH  11  32
ATOM     32  O   UNL     1      -6.681   9.994  -0.720  0.00  0.00    -0.491 OA
ATOM     33  H   UNL     1      -7.114  10.737  -1.231  0.00  0.00    +0.294 HD
ENDBRANCH  11  32
TORSDOF 4
