REMARK  Name = ZINC09765869
REMARK  13 active torsions:
REMARK  status: ('A' for Active; 'I' for Inactive)
REMARK    1  A    between atoms: C_1  and  C_2
REMARK    2  A    between atoms: C_2  and  O_3
REMARK    3  A    between atoms: O_3  and  C_4
REMARK    4  A    between atoms: C_4  and  C_5
REMARK    5  A    between atoms: C_5  and  N_6
REMARK    6  A    between atoms: C_8  and  O_37
REMARK    7  A    between atoms: N_15  and  C_16
REMARK    8  A    between atoms: C_16  and  C_18
REMARK    9  A    between atoms: C_21  and  S_24
REMARK   10  A    between atoms: S_24  and  N_27
REMARK   11  A    between atoms: C_29  and  C_36
REMARK   12  A    between atoms: C_32  and  C_35
REMARK   13  A    between atoms: O_37  and  C_38
REMARK                            x       y       z     vdW  Elec       q    Type
REMARK                         _______ _______ _______ _____ _____    ______ ____
ROOT
ATOM      1  C   UNL     1      -2.847   7.542   0.071  0.00  0.00    +0.269 C 
ATOM      2  O   UNL     1      -1.672   7.866   0.061  0.00  0.00    -0.268 OA
ENDROOT
BRANCH   1  12
ATOM      3  N   UNL     1      -2.387   3.964   0.046  0.00  0.00    -0.316 N 
ATOM      4  C   UNL     1      -1.272   3.144   0.031  0.00  0.00    +0.100 A 
ATOM      5  C   UNL     1      -1.223   1.737   0.017  0.00  0.00    +0.145 A 
ATOM      6  C   UNL     1      -0.013   1.076   0.008  0.00  0.00    +0.048 A 
ATOM      7  C   UNL     1       1.184   1.772   0.000  0.00  0.00    +0.005 A 
ATOM      8  C   UNL     1       1.162   3.156   0.008  0.00  0.00    +0.017 A 
ATOM      9  C   UNL     1      -0.044   3.818   0.023  0.00  0.00    +0.042 A 
ATOM     10  S   UNL     1      -0.517   5.529   0.037  0.00  0.00    -0.052 S 
ATOM     11  C   UNL     1      -2.238   5.316   0.052  0.00  0.00    +0.167 A 
ATOM     12  N   UNL     1      -3.184   6.249   0.067  0.00  0.00    -0.152 NA
BRANCH   5  13
ATOM     13  O   UNL     1      -2.380   1.023   0.019  0.00  0.00    -0.493 OA
ATOM     14  C   UNL     1      -2.263  -0.402   0.010  0.00  0.00    +0.277 C 
ENDBRANCH   5  13
BRANCH   3  15
ATOM     15  C   UNL     1      -3.729   3.375   0.055  0.00  0.00    +0.152 C 
BRANCH  15  16
ATOM     16  C   UNL     1      -4.209   3.179  -1.384  0.00  0.00    +0.181 C 
BRANCH  16  17
ATOM     17  O   UNL     1      -5.518   2.604  -1.375  0.00  0.00    -0.378 OA
BRANCH  17  19
ATOM     18  C   UNL     1      -7.457   1.765  -2.546  0.00  0.00    +0.034 C 
ATOM     19  C   UNL     1      -6.062   2.378  -2.677  0.00  0.00    +0.156 C 
ENDBRANCH  17  19
ENDBRANCH  16  17
ENDBRANCH  15  16
ENDBRANCH   3  15
ENDBRANCH   1  12
BRANCH   1  20
ATOM     20  C   UNL     1      -3.901   8.582   0.087  0.00  0.00    +0.039 A 
ATOM     21  C   UNL     1      -5.247   8.216   0.092  0.00  0.00    +0.015 A 
ATOM     22  C   UNL     1      -6.225   9.189   0.113  0.00  0.00    +0.029 A 
ATOM     23  C   UNL     1      -5.872  10.527   0.117  0.00  0.00    +0.106 A 
ATOM     24  C   UNL     1      -4.539  10.897   0.106  0.00  0.00    +0.029 A 
ATOM     25  C   UNL     1      -3.553   9.933   0.091  0.00  0.00    +0.015 A 
BRANCH  23  26
ATOM     26  S   UNL     1      -7.127  11.765   0.136  0.00  0.00    +0.061 S 
ATOM     27  O   UNL     1      -8.285  11.160   0.695  0.00  0.00    -0.153 OA
ATOM     28  O   UNL     1      -6.536  12.933   0.688  0.00  0.00    -0.153 OA
BRANCH  26  29
ATOM     29  N   UNL     1      -7.490  12.117  -1.440  0.00  0.00    -0.176 NA
ATOM     30  C   UNL     1      -6.771  13.181  -2.155  0.00  0.00    +0.112 C 
ATOM     31  C   UNL     1      -6.204  12.597  -3.458  0.00  0.00    +0.002 C 
ATOM     32  C   UNL     1      -7.340  11.959  -4.261  0.00  0.00    +0.009 C 
ATOM     33  C   UNL     1      -7.960  10.817  -3.451  0.00  0.00    +0.002 C 
ATOM     34  C   UNL     1      -8.543  11.377  -2.150  0.00  0.00    +0.112 C 
ATOM     35  C   UNL     1      -6.883   9.780  -3.125  0.00  0.00    +0.009 C 
ATOM     36  C   UNL     1      -5.564  13.717  -4.281  0.00  0.00    +0.009 C 
ENDBRANCH  26  29
ENDBRANCH  23  26
ENDBRANCH   1  20
TORSDOF 9
