REMARK  Name = ZINC03259700
REMARK  10 active torsions:
REMARK  status: ('A' for Active; 'I' for Inactive)
REMARK    1  A    between atoms: C_1  and  C_2
REMARK    2  A    between atoms: C_2  and  C_3
REMARK    3  A    between atoms: C_3  and  C_4
REMARK    4  A    between atoms: C_4  and  N_5
REMARK    5  A    between atoms: C_6  and  N_34
REMARK    6  A    between atoms: C_7  and  C_18
REMARK    7  A    between atoms: N_20  and  C_21
REMARK    8  A    between atoms: C_22  and  C_30
REMARK    9  A    between atoms: C_30  and  O_32
REMARK   10  A    between atoms: O_32  and  C_33
REMARK                            x       y       z     vdW  Elec       q    Type
REMARK                         _______ _______ _______ _____ _____    ______ ____
ROOT
ATOM      1  N   UNL     1       3.329   7.563   0.740  0.00  0.00    -0.312 N 
ATOM      2  C   UNL     1       2.713   6.411   1.123  0.00  0.00    +0.112 A 
ATOM      3  C   UNL     1       2.307   5.684   0.009  0.00  0.00    +0.104 A 
ATOM      4  C   UNL     1       2.719   6.462  -1.171  0.00  0.00    +0.122 A 
ATOM      5  C   UNL     1       3.366   7.663  -0.636  0.00  0.00    +0.162 A 
ATOM      6  N   UNL     1       3.842   8.566  -1.467  0.00  0.00    -0.226 NA
ATOM      7  C   UNL     1       3.727   8.383  -2.788  0.00  0.00    +0.092 A 
ATOM      8  C   UNL     1       4.233   9.343  -3.684  0.00  0.00    +0.030 A 
ATOM      9  C   UNL     1       4.111   9.149  -5.025  0.00  0.00    +0.002 A 
ATOM     10  C   UNL     1       3.490   8.008  -5.531  0.00  0.00    +0.002 A 
ATOM     11  C   UNL     1       2.988   7.058  -4.697  0.00  0.00    +0.030 A 
ATOM     12  C   UNL     1       3.095   7.223  -3.303  0.00  0.00    +0.090 A 
ATOM     13  N   UNL     1       2.604   6.295  -2.473  0.00  0.00    -0.241 NA
ENDROOT
BRANCH   3  14
ATOM     14  C   UNL     1       1.634   4.436   0.009  0.00  0.00    +0.254 C 
ATOM     15  O   UNL     1       0.416   4.400   0.021  0.00  0.00    -0.270 OA
ATOM     16  N   UNL     1       2.341   3.289  -0.003  0.00  0.00    -0.275 N 
ATOM     17  H   UNL     1       3.311   3.317  -0.013  0.00  0.00    +0.156 HD
BRANCH  16  18
ATOM     18  C   UNL     1       1.684   2.070  -0.003  0.00  0.00    +0.087 A 
ATOM     19  C   UNL     1       2.232   0.793  -0.015  0.00  0.00    +0.091 A 
ATOM     20  C   UNL     1       1.312  -0.332  -0.012  0.00  0.00    -0.021 A 
ATOM     21  C   UNL     1       0.002  -0.004   0.002  0.00  0.00    -0.004 A 
ATOM     22  S   UNL     1      -0.022   1.766   0.012  0.00  0.00    -0.077 S 
ATOM     23  C   UNL     1      -1.164  -0.944   0.007  0.00  0.00    +0.043 C 
ATOM     24  C   UNL     1      -0.662  -2.341  -0.384  0.00  0.00    +0.005 C 
ATOM     25  C   UNL     1       0.589  -2.663   0.440  0.00  0.00    +0.005 C 
ATOM     26  C   UNL     1       1.756  -1.790  -0.024  0.00  0.00    +0.037 C 
BRANCH  19  27
ATOM     27  C   UNL     1       3.682   0.589  -0.030  0.00  0.00    +0.342 C 
ATOM     28  O   UNL     1       4.273   0.510  -1.090  0.00  0.00    -0.245 OA
BRANCH  27  29
ATOM     29  O   UNL     1       4.361   0.489   1.130  0.00  0.00    -0.464 OA
ATOM     30  C   UNL     1       5.796   0.287   1.039  0.00  0.00    +0.280 C 
ENDBRANCH  27  29
ENDBRANCH  19  27
ENDBRANCH  16  18
ENDBRANCH   3  14
BRANCH   2  31
ATOM     31  N   UNL     1       2.520   6.023   2.423  0.00  0.00    -0.344 N 
ATOM     32  H   UNL     1       2.071   5.185   2.617  0.00  0.00    +0.144 HD
ATOM     33  H   UNL     1       2.832   6.586   3.149  0.00  0.00    +0.144 HD
ENDBRANCH   2  31
BRANCH   1  34
ATOM     34  C   UNL     1       3.878   8.559   1.663  0.00  0.00    +0.125 C 
BRANCH  34  35
ATOM     35  C   UNL     1       5.338   8.222   1.968  0.00  0.00    +0.021 C 
BRANCH  35  37
ATOM     36  C   UNL     1       7.372   8.925   3.238  0.00  0.00    +0.004 C 
ATOM     37  C   UNL     1       5.912   9.262   2.932  0.00  0.00    -0.002 C 
ENDBRANCH  35  37
ENDBRANCH  34  35
ENDBRANCH   1  34
TORSDOF 8
