REMARK  Name = ZINC63541103
REMARK  9 active torsions:
REMARK  status: ('A' for Active; 'I' for Inactive)
REMARK    1  A    between atoms: C_1  and  C_2
REMARK    2  A    between atoms: C_2  and  N_3
REMARK    3  A    between atoms: C_5  and  C_8
REMARK    4  A    between atoms: N_9  and  N_10
REMARK    5  A    between atoms: C_11  and  C_13
REMARK    6  A    between atoms: C_13  and  C_30
REMARK    7  A    between atoms: C_16  and  C_21
REMARK    8  A    between atoms: C_18  and  C_19
REMARK    9  A    between atoms: C_18  and  C_20
REMARK                            x       y       z     vdW  Elec       q    Type
REMARK                         _______ _______ _______ _____ _____    ______ ____
ROOT
ATOM      1  C   UNL     1       3.101  -4.368   8.214  0.00  0.00    +0.051 C 
ATOM      2  C   UNL     1       1.950  -3.972   9.161  0.00  0.00    +0.017 C 
ATOM      3  C   UNL     1       2.546  -4.153  10.579  0.00  0.00    +0.009 C 
ATOM      4  C   UNL     1       4.004  -3.662  10.402  0.00  0.00    +0.038 C 
ATOM      5  C   UNL     1       4.407  -4.171   9.002  0.00  0.00    -0.015 C 
ATOM      6  C   UNL     1       5.291  -3.137   8.303  0.00  0.00    +0.012 C 
ATOM      7  C   UNL     1       5.152  -5.502   9.123  0.00  0.00    +0.012 C 
ATOM      8  C   UNL     1       2.956  -5.833   7.796  0.00  0.00    +0.021 C 
ENDROOT
BRANCH   4   9
ATOM      9  C   UNL     1       4.908  -4.270  11.476  0.00  0.00    +0.178 C 
ATOM     10  N   UNL     1       6.280  -3.770  11.323  0.00  0.00    -0.363 N 
ATOM     11  C   UNL     1       6.591  -3.141  12.419  0.00  0.00    +0.060 A 
ATOM     12  C   UNL     1       7.804  -2.437  12.857  0.00  0.00    +0.027 A 
ATOM     13  C   UNL     1       7.838  -1.866  14.078  0.00  0.00    +0.002 A 
ATOM     14  C   UNL     1       6.749  -1.913  14.967  0.00  0.00    +0.002 A 
ATOM     15  C   UNL     1       5.590  -2.532  14.665  0.00  0.00    +0.027 A 
ATOM     16  C   UNL     1       5.439  -3.191  13.361  0.00  0.00    +0.060 A 
ATOM     17  N   UNL     1       4.460  -3.848  12.810  0.00  0.00    -0.363 N 
ATOM     18  H   UNL     1       6.850  -3.888  10.547  0.00  0.00    +0.162 HD
ATOM     19  H   UNL     1       3.593  -4.027  13.207  0.00  0.00    +0.162 HD
ENDBRANCH   4   9
BRANCH   1  21
ATOM     20  N   UNL     1       3.033  -2.142   7.137  0.00  0.00    -0.207 N 
ATOM     21  C   UNL     1       3.095  -3.481   6.995  0.00  0.00    +0.239 C 
ATOM     22  O   UNL     1       3.145  -3.973   5.887  0.00  0.00    -0.273 OA
ATOM     23  H   UNL     1       2.920  -1.752   8.017  0.00  0.00    +0.177 HD
BRANCH  20  25
ATOM     24  C   UNL     1       3.075  -0.025   6.147  0.00  0.00    +0.141 C 
ATOM     25  N   UNL     1       3.134  -1.314   6.011  0.00  0.00    -0.188 NA
BRANCH  24  28
ATOM     26  N   UNL     1       3.267   2.626   3.675  0.00  0.00    -0.271 N 
ATOM     27  C   UNL     1       3.134   2.225   4.955  0.00  0.00    +0.117 A 
ATOM     28  C   UNL     1       3.180   0.848   4.962  0.00  0.00    +0.032 A 
ATOM     29  C   UNL     1       3.347   0.427   3.625  0.00  0.00    +0.143 A 
ATOM     30  N   UNL     1       3.392   1.490   2.868  0.00  0.00    -0.179 NA
BRANCH  26  32
ATOM     31  C   UNL     1       4.544   4.273   2.395  0.00  0.00    +0.029 C 
ATOM     32  C   UNL     1       3.274   4.014   3.208  0.00  0.00    +0.140 C 
ENDBRANCH  26  32
ENDBRANCH  24  28
ENDBRANCH  20  25
ENDBRANCH   1  21
TORSDOF 5
