REMARK  Name = ZINC06177923
REMARK  6 active torsions:
REMARK  status: ('A' for Active; 'I' for Inactive)
REMARK    1  A    between atoms: C_1  and  C_2
REMARK    2  A    between atoms: C_4  and  C_37
REMARK    3  A    between atoms: C_9  and  C_14
REMARK    4  A    between atoms: C_14  and  C_16
REMARK    5  A    between atoms: C_14  and  N_27
REMARK    6  A    between atoms: N_20  and  C_21
REMARK                            x       y       z     vdW  Elec       q    Type
REMARK                         _______ _______ _______ _____ _____    ______ ____
ROOT
ATOM      1  C   UNL     1      -1.332   7.432   0.058  0.00  0.00    +0.179 C 
ENDROOT
BRANCH   1  10
ATOM      2  C   UNL     1       2.249   0.910  -0.455  0.00  0.00    +0.044 C 
ATOM      3  C   UNL     1       0.975   1.714  -0.465  0.00  0.00    -0.050 A 
ATOM      4  C   UNL     1      -0.242   1.072  -0.654  0.00  0.00    +0.008 A 
ATOM      5  C   UNL     1      -1.419   1.788  -0.673  0.00  0.00    -0.026 A 
ATOM      6  C   UNL     1      -1.392   3.167  -0.490  0.00  0.00    +0.052 A 
ATOM      7  C   UNL     1      -0.157   3.814  -0.299  0.00  0.00    -0.001 A 
ATOM      8  C   UNL     1       1.026   3.067  -0.289  0.00  0.00    +0.013 A 
ATOM      9  C   UNL     1      -0.138   5.266  -0.113  0.00  0.00    +0.021 A 
ATOM     10  C   UNL     1      -1.316   5.937  -0.131  0.00  0.00    +0.045 A 
ATOM     11  C   UNL     1      -2.528   5.240  -0.327  0.00  0.00    +0.255 A 
ATOM     12  O   UNL     1      -3.575   5.862  -0.340  0.00  0.00    -0.268 OA
ATOM     13  N   UNL     1      -2.555   3.907  -0.498  0.00  0.00    -0.322 N 
ATOM     14  H   UNL     1      -3.405   3.459  -0.629  0.00  0.00    +0.169 HD
ATOM     15  C   UNL     1      -2.732   1.079  -0.885  0.00  0.00    +0.046 C 
ENDBRANCH   1  10
BRANCH   1  16
ATOM     16  N   UNL     1      -2.184   7.771   1.205  0.00  0.00    -0.316 N 
ATOM     17  C   UNL     1      -2.112   6.735   2.237  0.00  0.00    +0.106 C 
ATOM     18  C   UNL     1      -2.998   7.154   3.417  0.00  0.00    +0.024 C 
ATOM     19  C   UNL     1      -2.351   8.371   4.082  0.00  0.00    +0.038 C 
ATOM     20  C   UNL     1      -1.961   9.378   3.029  0.00  0.00    -0.026 A 
ATOM     21  C   UNL     1      -1.888   9.045   1.688  0.00  0.00    +0.034 A 
ATOM     22  C   UNL     1      -1.505  10.016   0.761  0.00  0.00    +0.023 A 
ATOM     23  C   UNL     1      -1.206  11.297   1.175  0.00  0.00    +0.002 A 
ATOM     24  C   UNL     1      -1.286  11.625   2.516  0.00  0.00    +0.000 A 
ATOM     25  C   UNL     1      -1.662  10.668   3.438  0.00  0.00    +0.005 A 
ENDBRANCH   1  16
BRANCH   1  26
ATOM     26  C   UNL     1      -1.876   8.090  -1.184  0.00  0.00    +0.177 A 
ATOM     27  N   UNL     1      -3.138   8.222  -1.510  0.00  0.00    -0.111 NA
ATOM     28  N   UNL     1      -3.194   8.839  -2.640  0.00  0.00    -0.023 NA
ATOM     29  N   UNL     1      -2.000   9.096  -3.047  0.00  0.00    -0.044 NA
ATOM     30  N   UNL     1      -1.159   8.650  -2.176  0.00  0.00    -0.224 N 
BRANCH  30  31
ATOM     31  C   UNL     1       0.301   8.737  -2.253  0.00  0.00    +0.111 C 
ATOM     32  C   UNL     1       0.722  10.206  -2.318  0.00  0.00    +0.027 C 
ATOM     33  C   UNL     1       2.247  10.297  -2.398  0.00  0.00    +0.002 C 
ATOM     34  C   UNL     1       2.736   9.571  -3.653  0.00  0.00    +0.000 C 
ATOM     35  C   UNL     1       2.315   8.101  -3.588  0.00  0.00    +0.002 C 
ATOM     36  C   UNL     1       0.790   8.011  -3.508  0.00  0.00    +0.027 C 
ENDBRANCH  30  31
ENDBRANCH   1  26
TORSDOF 4
