REMARK  Name = ZINC39324939
REMARK  9 active torsions:
REMARK  status: ('A' for Active; 'I' for Inactive)
REMARK    1  A    between atoms: C_1  and  C_2
REMARK    2  A    between atoms: C_4  and  C_36
REMARK    3  A    between atoms: C_5  and  S_9
REMARK    4  A    between atoms: C_6  and  C_8
REMARK    5  A    between atoms: S_9  and  N_12
REMARK    6  A    between atoms: N_12  and  C_13
REMARK    7  A    between atoms: N_12  and  C_19
REMARK    8  A    between atoms: C_13  and  C_14
REMARK    9  A    between atoms: C_19  and  C_20
REMARK                            x       y       z     vdW  Elec       q    Type
REMARK                         _______ _______ _______ _____ _____    ______ ____
ROOT
ATOM      1  N   UNL     1       0.926  -4.191  -0.037  0.00  0.00    -0.168 NA
ENDROOT
BRANCH   1   2
ATOM      2  S   UNL     1      -0.675  -3.851   0.216  0.00  0.00    +0.062 S 
ATOM      3  O   UNL     1      -1.174  -3.317  -1.003  0.00  0.00    -0.153 OA
ATOM      4  O   UNL     1      -0.751  -3.144   1.446  0.00  0.00    -0.153 OA
BRANCH   2   9
ATOM      5  C   UNL     1      -3.497  -9.115   1.075  0.00  0.00    +0.044 C 
ATOM      6  C   UNL     1      -2.792  -7.800   0.861  0.00  0.00    -0.050 A 
ATOM      7  C   UNL     1      -2.659  -7.287  -0.416  0.00  0.00    +0.008 A 
ATOM      8  C   UNL     1      -2.013  -6.081  -0.613  0.00  0.00    -0.024 A 
ATOM      9  C   UNL     1      -1.500  -5.388   0.467  0.00  0.00    +0.111 A 
ATOM     10  C   UNL     1      -1.633  -5.900   1.744  0.00  0.00    -0.024 A 
ATOM     11  C   UNL     1      -2.283  -7.104   1.941  0.00  0.00    +0.008 A 
ATOM     12  C   UNL     1      -1.072  -5.144   2.921  0.00  0.00    +0.046 C 
ATOM     13  C   UNL     1      -1.868  -5.523  -2.005  0.00  0.00    +0.046 C 
ENDBRANCH   2   9
ENDBRANCH   1   2
BRANCH   1  14
ATOM     14  C   UNL     1       1.814  -4.425   1.104  0.00  0.00    +0.183 C 
BRANCH  14  15
ATOM     15  C   UNL     1       1.913  -5.905   1.368  0.00  0.00    +0.120 A 
ATOM     16  C   UNL     1       2.821  -6.741   0.833  0.00  0.00    +0.046 A 
ATOM     17  C   UNL     1       2.548  -8.028   1.351  0.00  0.00    +0.041 A 
ATOM     18  C   UNL     1       1.490  -7.902   2.171  0.00  0.00    +0.195 A 
ATOM     19  O   UNL     1       1.113  -6.613   2.182  0.00  0.00    -0.466 OA
ENDBRANCH  14  15
ENDBRANCH   1  14
BRANCH   1  20
ATOM     20  C   UNL     1       1.455  -4.256  -1.402  0.00  0.00    +0.126 C 
BRANCH  20  21
ATOM     21  C   UNL     1       2.329  -3.030  -1.670  0.00  0.00    +0.114 C 
ATOM     22  C   UNL     1       3.129  -3.295  -2.929  0.00  0.00    -0.003 C 
ATOM     23  C   UNL     1       2.984  -2.418  -3.959  0.00  0.00    -0.003 A 
ATOM     24  C   UNL     1       3.722  -2.602  -5.209  0.00  0.00    +0.059 A 
ATOM     25  C   UNL     1       3.556  -1.708  -6.221  0.00  0.00    +0.163 A 
ATOM     26  C   UNL     1       2.682  -0.610  -6.085  0.00  0.00    +0.164 A 
ATOM     27  C   UNL     1       1.966  -0.391  -4.926  0.00  0.00    +0.073 A 
ATOM     28  C   UNL     1       2.078  -1.261  -3.835  0.00  0.00    +0.044 A 
ATOM     29  N   UNL     1       1.376  -1.031  -2.723  0.00  0.00    -0.284 N 
ATOM     30  C   UNL     1       1.434  -1.811  -1.659  0.00  0.00    +0.225 C 
ATOM     31  O   UNL     1       0.769  -1.550  -0.674  0.00  0.00    -0.275 OA
ATOM     32  O   UNL     1       2.522   0.267  -7.113  0.00  0.00    -0.485 OA
ATOM     33  C   UNL     1       3.525   0.261  -8.132  0.00  0.00    +0.270 C 
ATOM     34  C   UNL     1       3.796  -1.196  -8.532  0.00  0.00    +0.270 C 
ATOM     35  O   UNL     1       4.258  -1.899  -7.374  0.00  0.00    -0.485 OA
ATOM     36  H   UNL     1       0.796  -0.254  -2.696  0.00  0.00    +0.155 HD
ENDBRANCH  20  21
ENDBRANCH   1  20
TORSDOF 6
