REMARK  Name = ZINC03368585
REMARK  11 active torsions:
REMARK  status: ('A' for Active; 'I' for Inactive)
REMARK    1  A    between atoms: C_1  and  C_2
REMARK    2  A    between atoms: C_4  and  C_37
REMARK    3  A    between atoms: C_5  and  S_9
REMARK    4  A    between atoms: C_6  and  C_8
REMARK    5  A    between atoms: S_9  and  N_12
REMARK    6  A    between atoms: N_12  and  C_13
REMARK    7  A    between atoms: C_16  and  C_27
REMARK    8  A    between atoms: C_17  and  C_26
REMARK    9  A    between atoms: C_27  and  O_29
REMARK   10  A    between atoms: O_29  and  C_30
REMARK   11  A    between atoms: C_30  and  C_31
REMARK                            x       y       z     vdW  Elec       q    Type
REMARK                         _______ _______ _______ _____ _____    ______ ____
ROOT
ATOM      1  C   UNL     1       0.303   5.537   5.501  0.00  0.00    +0.057 A 
ATOM      2  C   UNL     1       0.211   4.346   4.844  0.00  0.00    +0.037 A 
ATOM      3  C   UNL     1      -0.755   3.399   5.212  0.00  0.00    +0.037 A 
ATOM      4  C   UNL     1      -1.103   2.053   4.714  0.00  0.00    +0.107 A 
ATOM      5  C   UNL     1      -2.148   1.635   5.482  0.00  0.00    +0.117 A 
ATOM      6  O   UNL     1      -2.449   2.577   6.381  0.00  0.00    -0.459 OA
ATOM      7  C   UNL     1      -1.644   3.651   6.255  0.00  0.00    +0.144 A 
ATOM      8  C   UNL     1      -1.562   4.880   6.945  0.00  0.00    +0.027 A 
ATOM      9  C   UNL     1      -0.583   5.828   6.565  0.00  0.00    +0.008 A 
ATOM     10  C   UNL     1      -0.505   7.048   7.253  0.00  0.00    +0.010 A 
ATOM     11  C   UNL     1      -1.370   7.304   8.275  0.00  0.00    +0.001 A 
ATOM     12  C   UNL     1      -2.334   6.371   8.648  0.00  0.00    +0.001 A 
ATOM     13  C   UNL     1      -2.437   5.177   8.001  0.00  0.00    +0.012 A 
ATOM     14  C   UNL     1      -2.853   0.310   5.343  0.00  0.00    +0.087 C 
ENDROOT
BRANCH   1  15
ATOM     15  N   UNL     1       1.271   6.470   5.123  0.00  0.00    -0.216 N 
ATOM     16  H   UNL     1       1.696   7.027   5.795  0.00  0.00    +0.174 HD
BRANCH  15  17
ATOM     17  S   UNL     1       1.693   6.626   3.530  0.00  0.00    +0.073 S 
ATOM     18  O   UNL     1       2.692   7.635   3.471  0.00  0.00    -0.150 OA
ATOM     19  O   UNL     1       1.908   5.311   3.036  0.00  0.00    -0.150 OA
BRANCH  17  24
ATOM     20  C   UNL     1      -3.122   8.798   0.613  0.00  0.00    +0.044 C 
ATOM     21  C   UNL     1      -1.920   8.255   1.342  0.00  0.00    -0.050 A 
ATOM     22  C   UNL     1      -1.556   6.931   1.185  0.00  0.00    +0.008 A 
ATOM     23  C   UNL     1      -0.452   6.434   1.853  0.00  0.00    -0.023 A 
ATOM     24  C   UNL     1       0.287   7.261   2.678  0.00  0.00    +0.114 A 
ATOM     25  C   UNL     1      -0.080   8.583   2.839  0.00  0.00    -0.023 A 
ATOM     26  C   UNL     1      -1.181   9.082   2.168  0.00  0.00    +0.008 A 
ATOM     27  C   UNL     1       0.722   9.483   3.744  0.00  0.00    +0.046 C 
ATOM     28  C   UNL     1      -0.056   4.990   1.682  0.00  0.00    +0.046 C 
ENDBRANCH  17  24
ENDBRANCH  15  17
ENDBRANCH   1  15
BRANCH   4  29
ATOM     29  C   UNL     1      -0.462   1.320   3.613  0.00  0.00    +0.343 C 
ATOM     30  O   UNL     1       0.483   0.589   3.840  0.00  0.00    -0.245 OA
BRANCH  29  31
ATOM     31  O   UNL     1      -0.920   1.459   2.353  0.00  0.00    -0.456 OA
BRANCH  31  32
ATOM     32  C   UNL     1      -0.238   0.705   1.317  0.00  0.00    +0.268 C 
BRANCH  32  33
ATOM     33  C   UNL     1      -0.885   0.983  -0.015  0.00  0.00    -0.010 A 
ATOM     34  C   UNL     1      -1.928   0.191  -0.456  0.00  0.00    +0.007 A 
ATOM     35  C   UNL     1      -2.525   0.450  -1.676  0.00  0.00    +0.000 A 
ATOM     36  C   UNL     1      -2.071   1.494  -2.460  0.00  0.00    +0.000 A 
ATOM     37  C   UNL     1      -1.024   2.283  -2.021  0.00  0.00    +0.000 A 
ATOM     38  C   UNL     1      -0.431   2.028  -0.799  0.00  0.00    +0.007 A 
ENDBRANCH  32  33
ENDBRANCH  31  32
ENDBRANCH  29  31
ENDBRANCH   4  29
TORSDOF 7
