REMARK  Name = ZINC09357013
REMARK  4 active torsions:
REMARK  status: ('A' for Active; 'I' for Inactive)
REMARK    1  A    between atoms: C_15  and  C_17
REMARK    2  A    between atoms: C_17  and  C_19
REMARK    3  A    between atoms: C_22  and  N_25
REMARK    4  A    between atoms: N_30  and  C_33
REMARK                            x       y       z     vdW  Elec       q    Type
REMARK                         _______ _______ _______ _____ _____    ______ ____
ROOT
ATOM      1  C   UNL     1       9.406   1.983  -1.573  0.00  0.00    +0.001 A 
ATOM      2  C   UNL     1       8.220   2.695  -1.577  0.00  0.00    +0.000 A 
ATOM      3  C   UNL     1       7.088   2.172  -0.981  0.00  0.00    +0.006 A 
ATOM      4  C   UNL     1       7.119   0.932  -0.374  0.00  0.00    -0.021 A 
ATOM      5  C   UNL     1       8.322   0.193  -0.388  0.00  0.00    -0.019 A 
ATOM      6  C   UNL     1       9.459   0.739  -0.979  0.00  0.00    +0.008 A 
ATOM      7  C   UNL     1       8.375  -1.141   0.237  0.00  0.00    +0.022 C 
ATOM      8  C   UNL     1       7.258  -1.772   0.643  0.00  0.00    +0.054 C 
ATOM      9  C   UNL     1       5.961   0.343   0.285  0.00  0.00    +0.100 C 
ATOM     10  C   UNL     1       4.581   0.685   0.295  0.00  0.00    +0.113 C 
ATOM     11  C   UNL     1       3.919  -0.556  -0.444  0.00  0.00    +0.116 C 
ATOM     12  C   UNL     1       4.698  -1.678   0.252  0.00  0.00    +0.141 C 
ATOM     13  C   UNL     1       2.508  -0.261  -0.018  0.00  0.00    +0.232 C 
ATOM     14  O   UNL     1       1.643  -1.062   0.263  0.00  0.00    -0.274 OA
ATOM     15  N   UNL     1       2.404   1.101  -0.015  0.00  0.00    -0.210 N 
ATOM     16  C   UNL     1       3.624   1.728  -0.023  0.00  0.00    +0.232 C 
ATOM     17  O   UNL     1       3.853   2.897  -0.248  0.00  0.00    -0.274 OA
ATOM     18  N   UNL     1       5.945  -1.005   0.758  0.00  0.00    -0.384 NA
ATOM     19  H   UNL     1       5.804  -0.921   1.772  0.00  0.00    +0.127 HD
ENDROOT
BRANCH  15  20
ATOM     20  C   UNL     1       1.179   1.786   0.000  0.00  0.00    +0.048 A 
ATOM     21  C   UNL     1       1.161   3.174   0.008  0.00  0.00    +0.028 A 
ATOM     22  C   UNL     1      -0.044   3.850   0.022  0.00  0.00    +0.051 A 
ATOM     23  C   UNL     1      -1.237   3.145   0.030  0.00  0.00    +0.166 A 
ATOM     24  C   UNL     1      -1.221   1.752   0.017  0.00  0.00    +0.168 A 
ATOM     25  C   UNL     1      -0.013   1.076   0.008  0.00  0.00    +0.073 A 
ATOM     26  O   UNL     1      -2.509   1.301   0.034  0.00  0.00    -0.453 OA
ATOM     27  C   UNL     1      -3.306   2.422   0.459  0.00  0.00    +0.466 C 
ATOM     28  O   UNL     1      -2.536   3.566   0.045  0.00  0.00    -0.453 OA
ENDBRANCH  15  20
BRANCH  12  29
ATOM     29  C   UNL     1       4.077  -1.999   1.587  0.00  0.00    +0.183 C 
ATOM     30  O   UNL     1       4.524  -1.503   2.599  0.00  0.00    -0.290 OA
BRANCH  29  31
ATOM     31  C   UNL     1       2.928  -2.915   1.662  0.00  0.00    +0.019 A 
ATOM     32  C   UNL     1       2.406  -3.485   0.497  0.00  0.00    +0.013 A 
ATOM     33  C   UNL     1       1.331  -4.346   0.576  0.00  0.00    +0.033 A 
ATOM     34  C   UNL     1       0.764  -4.639   1.804  0.00  0.00    +0.126 A 
ATOM     35  C   UNL     1       1.272  -4.075   2.962  0.00  0.00    +0.033 A 
ATOM     36  C   UNL     1       2.349  -3.216   2.899  0.00  0.00    +0.013 A 
BRANCH  34  37
ATOM     37  N   UNL     1      -0.392  -5.561   1.880  0.00  0.00    +0.056 N 
ATOM     38  O   UNL     1      -0.894  -5.820   2.959  0.00  0.00    -0.126 OA
ATOM     39  O   UNL     1      -0.841  -6.059   0.864  0.00  0.00    -0.126 OA
ENDBRANCH  34  37
ENDBRANCH  29  31
ENDBRANCH  12  29
TORSDOF 4
