REMARK  Name = ZINC08702556
REMARK  10 active torsions:
REMARK  status: ('A' for Active; 'I' for Inactive)
REMARK    1  A    between atoms: C_1  and  C_2
REMARK    2  A    between atoms: C_3  and  C_22
REMARK    3  A    between atoms: C_4  and  C_13
REMARK    4  A    between atoms: C_5  and  C_9
REMARK    5  A    between atoms: C_6  and  C_8
REMARK    6  A    between atoms: C_9  and  O_11
REMARK    7  A    between atoms: O_11  and  C_12
REMARK    8  A    between atoms: C_14  and  C_15
REMARK    9  A    between atoms: C_22  and  O_24
REMARK   10  A    between atoms: O_24  and  C_25
REMARK                            x       y       z     vdW  Elec       q    Type
REMARK                         _______ _______ _______ _____ _____    ______ ____
ROOT
ATOM      1  C   UNL     1      -5.059   3.735  -0.625  0.00  0.00    +0.061 C 
ATOM      2  C   UNL     1      -3.708   3.155  -0.295  0.00  0.00    +0.031 C 
ATOM      3  C   UNL     1      -2.624   3.950  -0.307  0.00  0.00    +0.153 C 
ATOM      4  C   UNL     1      -1.258   3.417   0.029  0.00  0.00    +0.071 C 
ATOM      5  C   UNL     1      -1.243   1.917  -0.041  0.00  0.00    +0.065 C 
ATOM      6  C   UNL     1      -2.382   1.204  -0.045  0.00  0.00    +0.049 C 
ATOM      7  N   UNL     1      -3.599   1.827   0.013  0.00  0.00    -0.260 NA
ATOM      8  C   UNL     1      -2.318  -0.300  -0.114  0.00  0.00    +0.066 C 
ENDROOT
BRANCH   4   9
ATOM      9  C   UNL     1      -0.873   3.853   1.420  0.00  0.00    +0.003 C 
ATOM     10  C   UNL     1       0.196   4.617   1.603  0.00  0.00    +0.045 C 
ATOM     11 CL   UNL     1       1.151   5.115   0.242  0.00  0.00    -0.083 Cl
BRANCH  10  12
ATOM     12  C   UNL     1       0.574   5.045   2.967  0.00  0.00    -0.007 A 
ATOM     13  C   UNL     1      -0.195   4.651   4.063  0.00  0.00    +0.009 A 
ATOM     14  C   UNL     1       0.166   5.049   5.334  0.00  0.00    +0.001 A 
ATOM     15  C   UNL     1       1.281   5.846   5.522  0.00  0.00    +0.000 A 
ATOM     16  C   UNL     1       2.045   6.244   4.439  0.00  0.00    +0.001 A 
ATOM     17  C   UNL     1       1.698   5.848   3.164  0.00  0.00    +0.009 A 
ENDBRANCH  10  12
ENDBRANCH   4   9
BRANCH   5  18
ATOM     18  C   UNL     1      -0.003   1.240  -0.104  0.00  0.00    +0.337 C 
ATOM     19  O   UNL     1       0.598   1.167  -1.160  0.00  0.00    -0.245 OA
BRANCH  18  20
ATOM     20  O   UNL     1       0.518   0.679   1.008  0.00  0.00    -0.465 OA
ATOM     21  C   UNL     1       1.776   0.017   0.873  0.00  0.00    +0.280 C 
ENDBRANCH  18  20
ENDBRANCH   5  18
BRANCH   3  22
ATOM     22  C   UNL     1      -2.772   5.317  -0.637  0.00  0.00    +0.316 C 
ATOM     23  O   UNL     1      -2.517   5.702  -1.763  0.00  0.00    -0.250 OA
BRANCH  22  24
ATOM     24  O   UNL     1      -3.195   6.195   0.296  0.00  0.00    -0.467 OA
ATOM     25  C   UNL     1      -3.321   7.560  -0.107  0.00  0.00    +0.280 C 
ENDBRANCH  22  24
ENDBRANCH   3  22
TORSDOF 6
