REMARK  Name = ZINC35327135
REMARK  9 active torsions:
REMARK  status: ('A' for Active; 'I' for Inactive)
REMARK    1  A    between atoms: C_1  and  C_2
REMARK    2  A    between atoms: C_5  and  S_8
REMARK    3  A    between atoms: S_8  and  N_11
REMARK    4  A    between atoms: N_11  and  N_12
REMARK    5  A    between atoms: C_15  and  C_36
REMARK    6  A    between atoms: C_15  and  O_37
REMARK    7  A    between atoms: C_17  and  C_30
REMARK    8  A    between atoms: C_19  and  C_21
REMARK    9  A    between atoms: N_23  and  C_24
REMARK                            x       y       z     vdW  Elec       q    Type
REMARK                         _______ _______ _______ _____ _____    ______ ____
ROOT
ATOM      1  N   UNL     1       2.719  -4.698   0.847  0.00  0.00    -0.174 NA
ATOM      2  C   UNL     1       3.942  -4.995   1.084  0.00  0.00    +0.053 C 
ATOM      3  C   UNL     1       4.782  -5.707   0.048  0.00  0.00    +0.087 C 
ATOM      4  C   UNL     1       6.086  -4.926  -0.143  0.00  0.00    +0.069 C 
ATOM      5  C   UNL     1       6.774  -4.747   1.212  0.00  0.00    +0.044 C 
ATOM      6  C   UNL     1       5.894  -3.899   2.132  0.00  0.00    +0.039 C 
ATOM      7  C   UNL     1       4.584  -4.637   2.406  0.00  0.00    +0.129 C 
ATOM      8  C   UNL     1       7.011  -5.697  -1.086  0.00  0.00    +0.041 C 
ENDROOT
BRANCH   6   9
ATOM      9  C   UNL     1       6.616  -3.654   3.432  0.00  0.00    -0.043 A 
ATOM     10  C   UNL     1       7.921  -4.081   3.589  0.00  0.00    +0.004 A 
ATOM     11  C   UNL     1       8.584  -3.856   4.781  0.00  0.00    +0.000 A 
ATOM     12  C   UNL     1       7.941  -3.203   5.816  0.00  0.00    +0.000 A 
ATOM     13  C   UNL     1       6.636  -2.775   5.659  0.00  0.00    +0.000 A 
ATOM     14  C   UNL     1       5.975  -2.997   4.465  0.00  0.00    +0.004 A 
ENDBRANCH   6   9
BRANCH   7  15
ATOM     15  C   UNL     1       4.870  -5.894   3.187  0.00  0.00    +0.226 C 
ATOM     16  O   UNL     1       6.016  -6.222   3.410  0.00  0.00    -0.275 OA
ATOM     17  N   UNL     1       3.852  -6.654   3.636  0.00  0.00    -0.285 N 
ATOM     18  H   UNL     1       2.938  -6.428   3.402  0.00  0.00    +0.155 HD
BRANCH  17  19
ATOM     19  C   UNL     1       4.113  -7.769   4.441  0.00  0.00    +0.033 A 
ATOM     20  C   UNL     1       3.238  -8.109   5.464  0.00  0.00    +0.023 A 
ATOM     21  C   UNL     1       3.498  -9.210   6.256  0.00  0.00    +0.002 A 
ATOM     22  C   UNL     1       4.629  -9.973   6.031  0.00  0.00    +0.000 A 
ATOM     23  C   UNL     1       5.503  -9.637   5.013  0.00  0.00    +0.002 A 
ATOM     24  C   UNL     1       5.245  -8.541   4.214  0.00  0.00    +0.023 A 
ENDBRANCH  17  19
ENDBRANCH   7  15
BRANCH   1  25
ATOM     25  N   UNL     1       2.105  -5.146  -0.330  0.00  0.00    -0.137 N 
ATOM     26  H   UNL     1       2.623  -5.627  -0.995  0.00  0.00    +0.197 HD
BRANCH  25  27
ATOM     27  S   UNL     1       0.495  -4.856  -0.586  0.00  0.00    +0.086 S 
ATOM     28  O   UNL     1      -0.194  -5.358   0.551  0.00  0.00    -0.149 OA
ATOM     29  O   UNL     1       0.208  -5.297  -1.906  0.00  0.00    -0.149 OA
BRANCH  27  34
ATOM     30  C   UNL     1      -0.270   1.128  -0.561  0.00  0.00    +0.044 C 
ATOM     31  C   UNL     1      -0.079  -0.366  -0.567  0.00  0.00    -0.050 A 
ATOM     32  C   UNL     1       0.203  -1.022  -1.751  0.00  0.00    +0.005 A 
ATOM     33  C   UNL     1       0.378  -2.393  -1.757  0.00  0.00    +0.029 A 
ATOM     34  C   UNL     1       0.273  -3.109  -0.578  0.00  0.00    +0.110 A 
ATOM     35  C   UNL     1      -0.008  -2.453   0.606  0.00  0.00    +0.029 A 
ATOM     36  C   UNL     1      -0.179  -1.081   0.612  0.00  0.00    +0.005 A 
ENDBRANCH  27  34
ENDBRANCH  25  27
ENDBRANCH   1  25
BRANCH   4  37
ATOM     37  O   UNL     1       5.796  -3.643  -0.703  0.00  0.00    -0.388 OA
ATOM     38  H   UNL     1       5.357  -3.680  -1.564  0.00  0.00    +0.210 HD
ENDBRANCH   4  37
TORSDOF 7
