REMARK  Name = ZINC34747349
REMARK  7 active torsions:
REMARK  status: ('A' for Active; 'I' for Inactive)
REMARK    1  A    between atoms: C_1  and  C_2
REMARK    2  A    between atoms: C_5  and  C_37
REMARK    3  A    between atoms: C_6  and  C_8
REMARK    4  A    between atoms: C_8  and  N_9
REMARK    5  A    between atoms: N_28  and  C_29
REMARK    6  A    between atoms: C_29  and  C_30
REMARK    7  A    between atoms: C_30  and  C_31
REMARK                            x       y       z     vdW  Elec       q    Type
REMARK                         _______ _______ _______ _____ _____    ______ ____
ROOT
ATOM      1  N   UNL     1       2.391  -2.976   1.917  0.00  0.00    +0.384 N 
ATOM      2  C   UNL     1       3.788  -3.425   1.857  0.00  0.00    -0.059 C 
ATOM      3  C   UNL     1       4.097  -4.292   3.082  0.00  0.00    +0.089 C 
ATOM      4  N   UNL     1       3.756  -3.529   4.292  0.00  0.00    -0.304 N 
ATOM      5  C   UNL     1       2.427  -2.902   4.365  0.00  0.00    +0.089 C 
ATOM      6  C   UNL     1       2.197  -2.100   3.079  0.00  0.00    -0.059 C 
ATOM      7  C   UNL     1       4.652  -3.404   5.324  0.00  0.00    +0.202 A 
ATOM      8  N   UNL     1       5.543  -2.434   5.298  0.00  0.00    -0.208 NA
ATOM      9  C   UNL     1       6.422  -2.291   6.283  0.00  0.00    +0.117 A 
ATOM     10  C   UNL     1       6.449  -3.153   7.391  0.00  0.00    +0.076 A 
ATOM     11  C   UNL     1       7.475  -2.870   8.397  0.00  0.00    -0.023 A 
ATOM     12  C   UNL     1       8.286  -1.819   8.164  0.00  0.00    -0.004 A 
ATOM     13  S   UNL     1       7.742  -1.152   6.615  0.00  0.00    -0.073 S 
ATOM     14  C   UNL     1       9.405  -1.327   9.030  0.00  0.00    +0.043 C 
ATOM     15  C   UNL     1       9.264  -1.970  10.417  0.00  0.00    +0.005 C 
ATOM     16  C   UNL     1       9.029  -3.473  10.239  0.00  0.00    +0.005 C 
ATOM     17  C   UNL     1       7.636  -3.716   9.657  0.00  0.00    +0.037 C 
ATOM     18  C   UNL     1       5.470  -4.197   7.393  0.00  0.00    +0.264 A 
ATOM     19  O   UNL     1       5.417  -4.993   8.314  0.00  0.00    -0.267 OA
ATOM     20  N   UNL     1       4.604  -4.283   6.366  0.00  0.00    -0.280 N 
ATOM     21  H   UNL     1       1.785  -3.779   1.996  0.00  0.00    -0.081 HD
ENDROOT
BRANCH   1  22
ATOM     22  C   UNL     1       2.064  -2.237   0.690  0.00  0.00    -0.043 C 
BRANCH  22  28
ATOM     23  C   UNL     1       4.561  -4.010  -3.268  0.00  0.00    +0.044 C 
ATOM     24  C   UNL     1       3.339  -4.015  -2.387  0.00  0.00    -0.050 A 
ATOM     25  C   UNL     1       2.291  -4.873  -2.664  0.00  0.00    +0.003 A 
ATOM     26  C   UNL     1       1.169  -4.878  -1.856  0.00  0.00    +0.004 A 
ATOM     27  C   UNL     1       1.096  -4.024  -0.771  0.00  0.00    -0.049 A 
ATOM     28  C   UNL     1       2.144  -3.167  -0.493  0.00  0.00    -0.061 A 
ATOM     29  C   UNL     1       3.268  -3.166  -1.299  0.00  0.00    +0.005 A 
ATOM     30  C   UNL     1      -0.127  -4.029   0.110  0.00  0.00    +0.044 C 
ENDBRANCH  22  28
ENDBRANCH   1  22
BRANCH  20  31
ATOM     31  C   UNL     1       3.596  -5.346   6.363  0.00  0.00    +0.133 C 
BRANCH  31  32
ATOM     32  C   UNL     1       4.207  -6.628   5.795  0.00  0.00    +0.057 C 
BRANCH  32  33
ATOM     33  C   UNL     1       3.170  -7.721   5.792  0.00  0.00    -0.046 A 
ATOM     34  C   UNL     1       3.031  -8.544   6.894  0.00  0.00    +0.004 A 
ATOM     35  C   UNL     1       2.079  -9.547   6.891  0.00  0.00    +0.000 A 
ATOM     36  C   UNL     1       1.266  -9.726   5.787  0.00  0.00    +0.000 A 
ATOM     37  C   UNL     1       1.405  -8.902   4.686  0.00  0.00    +0.000 A 
ATOM     38  C   UNL     1       2.354  -7.897   4.690  0.00  0.00    +0.004 A 
ENDBRANCH  32  33
ENDBRANCH  31  32
ENDBRANCH  20  31
TORSDOF 5
