REMARK  Name = ZINC33929620
REMARK  6 active torsions:
REMARK  status: ('A' for Active; 'I' for Inactive)
REMARK    1  A    between atoms: C_1  and  C_2
REMARK    2  A    between atoms: C_2  and  C_32
REMARK    3  A    between atoms: C_3  and  N_29
REMARK    4  A    between atoms: C_5  and  C_22
REMARK    5  A    between atoms: C_8  and  C_15
REMARK    6  A    between atoms: C_10  and  N_12
REMARK                            x       y       z     vdW  Elec       q    Type
REMARK                         _______ _______ _______ _____ _____    ______ ____
ROOT
ATOM      1  C   UNL     1       0.364   1.308   2.551  0.00  0.00    +0.015 C 
ATOM      2  C   UNL     1       0.432   0.547   1.226  0.00  0.00    +0.023 C 
ATOM      3  C   UNL     1      -0.985   0.196   0.764  0.00  0.00    +0.199 C 
ATOM      4  C   UNL     1      -1.639  -0.725   1.796  0.00  0.00    +0.115 C 
ATOM      5  N   UNL     1      -0.836  -1.946   1.943  0.00  0.00    -0.299 NA
ATOM      6  C   UNL     1       0.514  -1.638   2.431  0.00  0.00    +0.115 C 
ATOM      7  C   UNL     1       1.232  -0.744   1.417  0.00  0.00    +0.199 C 
ATOM      8  C   UNL     1       1.114   1.420   0.170  0.00  0.00    +0.015 C 
ATOM      9  H   UNL     1      -1.296  -2.611   2.547  0.00  0.00    +0.123 HD
ENDROOT
BRANCH   6  10
ATOM     10  C   UNL     1       0.419  -0.922   3.753  0.00  0.00    -0.028 A 
ATOM     11  C   UNL     1      -0.703  -1.079   4.545  0.00  0.00    +0.006 A 
ATOM     12  C   UNL     1      -0.791  -0.422   5.758  0.00  0.00    +0.015 A 
ATOM     13  C   UNL     1       0.245   0.392   6.180  0.00  0.00    +0.018 A 
ATOM     14  C   UNL     1       1.368   0.548   5.388  0.00  0.00    +0.015 A 
ATOM     15  C   UNL     1       1.457  -0.113   4.177  0.00  0.00    +0.006 A 
ATOM     16 BR   UNL     1       0.126   1.290   7.840  0.00  0.00    -0.050 Br
ENDBRANCH   6  10
BRANCH   4  17
ATOM     17  C   UNL     1      -3.027  -1.089   1.336  0.00  0.00    -0.028 A 
ATOM     18  C   UNL     1      -3.204  -2.085   0.394  0.00  0.00    +0.006 A 
ATOM     19  C   UNL     1      -4.477  -2.420  -0.028  0.00  0.00    +0.015 A 
ATOM     20  C   UNL     1      -5.574  -1.758   0.492  0.00  0.00    +0.018 A 
ATOM     21  C   UNL     1      -5.397  -0.762   1.435  0.00  0.00    +0.015 A 
ATOM     22  C   UNL     1      -4.124  -0.431   1.861  0.00  0.00    +0.006 A 
ATOM     23 BR   UNL     1      -7.316  -2.216  -0.085  0.00  0.00    -0.050 Br
ENDBRANCH   4  17
BRANCH   7  24
ATOM     24  N   UNL     1       2.572  -0.420   1.914  0.00  0.00    +0.028 N 
ATOM     25  O   UNL     1       2.881   0.732   2.111  0.00  0.00    -0.131 OA
ATOM     26  O   UNL     1       3.368  -1.304   2.128  0.00  0.00    -0.131 OA
ENDBRANCH   7  24
BRANCH   3  27
ATOM     27  N   UNL     1      -0.923  -0.485  -0.531  0.00  0.00    +0.028 N 
ATOM     28  O   UNL     1      -0.315  -1.525  -0.638  0.00  0.00    -0.131 OA
ATOM     29  O   UNL     1      -1.479  -0.008  -1.493  0.00  0.00    -0.131 OA
ENDBRANCH   3  27
TORSDOF 4
