REMARK  Name = ZINC10066184
REMARK  17 active torsions:
REMARK  status: ('A' for Active; 'I' for Inactive)
REMARK    1  A    between atoms: C_1  and  C_2
REMARK    2  A    between atoms: C_2  and  O_3
REMARK    3  A    between atoms: O_3  and  C_4
REMARK    4  A    between atoms: C_6  and  C_16
REMARK    5  A    between atoms: C_8  and  O_13
REMARK    6  A    between atoms: C_9  and  O_10
REMARK    7  A    between atoms: O_10  and  C_11
REMARK    8  A    between atoms: C_11  and  C_12
REMARK    9  A    between atoms: O_13  and  C_14
REMARK   10  A    between atoms: C_14  and  C_15
REMARK   11  A    between atoms: N_18  and  C_19
REMARK   12  A    between atoms: C_19  and  C_20
REMARK   13  A    between atoms: C_20  and  N_69
REMARK   14  A    between atoms: C_21  and  N_69
REMARK   15  A    between atoms: C_22  and  N_69
REMARK   16  A    between atoms: C_26  and  C_33
REMARK   17  A    between atoms: C_28  and  C_32
REMARK                            x       y       z     vdW  Elec       q    Type
REMARK                         _______ _______ _______ _____ _____    ______ ____
ROOT
ATOM      1  C   UNL     1      -1.284   7.439   1.977  0.00  0.00    +0.252 C 
ATOM      2  O   UNL     1      -2.272   8.001   1.546  0.00  0.00    -0.270 OA
ATOM      3  N   UNL     1      -0.193   8.155   2.312  0.00  0.00    -0.248 N 
ATOM      4  C   UNL     1      -0.240   9.538   2.291  0.00  0.00    +0.168 A 
ATOM      5  N   UNL     1      -1.244  10.323   1.977  0.00  0.00    -0.224 NA
ATOM      6  C   UNL     1      -1.147  11.670   2.002  0.00  0.00    +0.083 A 
ATOM      7  C   UNL     1      -2.144  12.623   1.690  0.00  0.00    -0.024 A 
ATOM      8  C   UNL     1      -1.879  13.965   1.767  0.00  0.00    +0.009 A 
ATOM      9  C   UNL     1      -0.632  14.437   2.152  0.00  0.00    -0.049 A 
ATOM     10  C   UNL     1       0.367  13.533   2.465  0.00  0.00    +0.020 A 
ATOM     11  C   UNL     1       0.110  12.187   2.390  0.00  0.00    +0.041 A 
ATOM     12  S   UNL     1       1.049  10.710   2.693  0.00  0.00    -0.052 S 
ATOM     13  C   UNL     1      -0.369  15.919   2.229  0.00  0.00    +0.044 C 
ATOM     14  C   UNL     1      -3.514  12.158   1.267  0.00  0.00    +0.046 C 
ENDROOT
BRANCH   1  17
ATOM     15  C   UNL     1      -2.393   3.947   2.809  0.00  0.00    +0.166 A 
ATOM     16  C   UNL     1      -2.397   5.322   2.668  0.00  0.00    +0.062 A 
ATOM     17  C   UNL     1      -1.280   5.971   2.134  0.00  0.00    +0.044 A 
ATOM     18  C   UNL     1      -0.161   5.229   1.750  0.00  0.00    +0.062 A 
ATOM     19  C   UNL     1      -0.160   3.855   1.899  0.00  0.00    +0.166 A 
ATOM     20  C   UNL     1      -1.273   3.210   2.430  0.00  0.00    +0.204 A 
BRANCH  15  21
ATOM     21  O   UNL     1      -3.481   3.313   3.323  0.00  0.00    -0.488 OA
BRANCH  21  23
ATOM     22  C   UNL     1      -5.714   3.248   4.245  0.00  0.00    +0.048 C 
ATOM     23  C   UNL     1      -4.594   4.131   3.690  0.00  0.00    +0.226 C 
ENDBRANCH  21  23
ENDBRANCH  15  21
BRANCH  20  24
ATOM     24  O   UNL     1      -1.270   1.859   2.576  0.00  0.00    -0.485 OA
BRANCH  24  25
ATOM     25  C   UNL     1      -0.782   1.341   3.815  0.00  0.00    +0.226 C 
ATOM     26  C   UNL     1      -0.855  -0.187   3.793  0.00  0.00    +0.048 C 
ENDBRANCH  24  25
ENDBRANCH  20  24
BRANCH  19  27
ATOM     27  O   UNL     1       0.930   3.132   1.525  0.00  0.00    -0.488 OA
BRANCH  27  28
ATOM     28  C   UNL     1       1.991   3.842   0.884  0.00  0.00    +0.226 C 
ATOM     29  C   UNL     1       3.061   2.852   0.421  0.00  0.00    +0.048 C 
ENDBRANCH  27  28
ENDBRANCH  19  27
ENDBRANCH   1  17
BRANCH   3  30
ATOM     30  C   UNL     1       1.043   7.470   2.697  0.00  0.00    +0.097 C 
BRANCH  30  31
ATOM     31  C   UNL     1       1.999   7.431   1.503  0.00  0.00    -0.060 C 
BRANCH  31  34
ATOM     32  C   UNL     1       4.087   6.503   0.702  0.00  0.00    -0.097 C 
ATOM     33  C   UNL     1       3.910   7.296   2.983  0.00  0.00    -0.097 C 
ATOM     34  N   UNL     1       3.192   6.640   1.871  0.00  0.00    +0.377 N 
ATOM     35  H   UNL     1       2.893   5.705   2.172  0.00  0.00    -0.083 HD
ENDBRANCH  31  34
ENDBRANCH  30  31
ENDBRANCH   3  30
TORSDOF 10
