REMARK  Name = ZINC23236411
REMARK  10 active torsions:
REMARK  status: ('A' for Active; 'I' for Inactive)
REMARK    1  A    between atoms: C_1  and  C_2
REMARK    2  A    between atoms: C_8  and  C_27
REMARK    3  A    between atoms: C_12  and  C_13
REMARK    4  A    between atoms: N_15  and  C_16
REMARK    5  A    between atoms: C_16  and  C_17
REMARK    6  A    between atoms: C_17  and  C_19
REMARK    7  A    between atoms: C_17  and  N_24
REMARK    8  A    between atoms: N_24  and  C_25
REMARK    9  A    between atoms: N_24  and  C_26
REMARK   10  A    between atoms: C_27  and  C_28
REMARK                            x       y       z     vdW  Elec       q    Type
REMARK                         _______ _______ _______ _____ _____    ______ ____
ROOT
ATOM      1  C   UNL     1       0.567   2.090   0.440  0.00  0.00    +0.046 C 
ATOM      2  C   UNL     1       0.633   0.593   0.283  0.00  0.00    -0.017 A 
ATOM      3  C   UNL     1       0.802   0.029  -0.984  0.00  0.00    +0.076 A 
ATOM      4  C   UNL     1       0.937   0.701  -2.297  0.00  0.00    +0.260 A 
ATOM      5  O   UNL     1       0.908   1.915  -2.383  0.00  0.00    -0.267 OA
ATOM      6  N   UNL     1       1.092  -0.067  -3.393  0.00  0.00    -0.310 N 
ATOM      7  H   UNL     1       1.182   0.358  -4.261  0.00  0.00    +0.170 HD
ATOM      8  C   UNL     1       1.126  -1.419  -3.309  0.00  0.00    +0.115 A 
ATOM      9  N   UNL     1       1.010  -2.043  -2.168  0.00  0.00    -0.226 NA
ATOM     10  C   UNL     1       0.853  -1.383  -1.028  0.00  0.00    +0.116 A 
ATOM     11  S   UNL     1       0.665  -1.850   0.675  0.00  0.00    -0.064 S 
ATOM     12  C   UNL     1       0.535  -0.215   1.378  0.00  0.00    +0.079 A 
ENDROOT
BRANCH  12  13
ATOM     13  C   UNL     1       0.362   0.166   2.783  0.00  0.00    +0.251 C 
ATOM     14  O   UNL     1       0.289   1.341   3.091  0.00  0.00    -0.270 OA
ATOM     15  N   UNL     1       0.285  -0.785   3.735  0.00  0.00    -0.312 N 
ATOM     16  H   UNL     1       0.343  -1.722   3.489  0.00  0.00    +0.149 HD
BRANCH  15  17
ATOM     17  C   UNL     1       0.112  -0.405   5.139  0.00  0.00    +0.097 C 
BRANCH  17  18
ATOM     18  C   UNL     1      -0.045  -1.665   5.993  0.00  0.00    +0.016 C 
BRANCH  18  19
ATOM     19  C   UNL     1      -1.315  -2.378   5.606  0.00  0.00    +0.093 A 
ATOM     20  C   UNL     1      -2.486  -2.314   6.266  0.00  0.00    +0.043 A 
ATOM     21  C   UNL     1      -3.399  -3.131   5.560  0.00  0.00    +0.041 A 
ATOM     22  C   UNL     1      -2.731  -3.645   4.511  0.00  0.00    +0.195 A 
ATOM     23  O   UNL     1      -1.471  -3.182   4.541  0.00  0.00    -0.469 OA
ENDBRANCH  18  19
BRANCH  18  24
ATOM     24  N   UNL     1       1.103  -2.554   5.771  0.00  0.00    +0.384 N 
ATOM     25  C   UNL     1       2.343  -1.849   6.121  0.00  0.00    -0.096 C 
ATOM     26  C   UNL     1       0.966  -3.750   6.612  0.00  0.00    -0.096 C 
ATOM     27  H   UNL     1       1.134  -2.827   4.800  0.00  0.00    -0.082 HD
ENDBRANCH  18  24
ENDBRANCH  17  18
ENDBRANCH  15  17
ENDBRANCH  12  13
BRANCH   8  28
ATOM     28  C   UNL     1       1.302  -2.227  -4.569  0.00  0.00    +0.109 C 
BRANCH  28  29
ATOM     29  C   UNL     1       1.310  -3.695  -4.228  0.00  0.00    -0.040 A 
ATOM     30  C   UNL     1       2.500  -4.328  -3.925  0.00  0.00    +0.004 A 
ATOM     31  C   UNL     1       2.507  -5.674  -3.612  0.00  0.00    +0.000 A 
ATOM     32  C   UNL     1       1.323  -6.388  -3.603  0.00  0.00    +0.000 A 
ATOM     33  C   UNL     1       0.132  -5.754  -3.905  0.00  0.00    +0.000 A 
ATOM     34  C   UNL     1       0.125  -4.407  -4.213  0.00  0.00    +0.004 A 
ENDBRANCH  28  29
ENDBRANCH   8  28
TORSDOF 7
