REMARK  Name = ZINC66402100
REMARK  6 active torsions:
REMARK  status: ('A' for Active; 'I' for Inactive)
REMARK    1  A    between atoms: C_1  and  C_2
REMARK    2  A    between atoms: C_2  and  C_4
REMARK    3  A    between atoms: C_2  and  N_10
REMARK    4  A    between atoms: C_13  and  N_16
REMARK    5  A    between atoms: N_19  and  C_20
REMARK    6  A    between atoms: C_22  and  C_28
REMARK                            x       y       z     vdW  Elec       q    Type
REMARK                         _______ _______ _______ _____ _____    ______ ____
ROOT
ATOM      1  N   UNL     1      -2.635  -3.671   1.276  0.00  0.00    -0.298 N 
ATOM      2  C   UNL     1      -3.711  -4.446   1.514  0.00  0.00    +0.304 C 
ATOM      3  O   UNL     1      -4.747  -4.250   0.907  0.00  0.00    -0.252 OA
ATOM      4  N   UNL     1      -3.640  -5.438   2.423  0.00  0.00    -0.265 N 
ATOM      5  H   UNL     1      -1.808  -3.828   1.760  0.00  0.00    +0.150 HD
ATOM      6  H   UNL     1      -2.795  -5.643   2.853  0.00  0.00    +0.157 HD
ENDROOT
BRANCH   4   7
ATOM      7  C   UNL     1      -4.788  -6.175   2.748  0.00  0.00    +0.100 A 
ATOM      8  C   UNL     1      -4.811  -7.532   2.575  0.00  0.00    +0.042 A 
ATOM      9  C   UNL     1      -5.972  -8.245   2.908  0.00  0.00    +0.073 A 
ATOM     10  C   UNL     1      -7.052  -7.591   3.394  0.00  0.00    +0.098 A 
ATOM     11  N   UNL     1      -7.031  -6.243   3.565  0.00  0.00    -0.327 N 
ATOM     12  H   UNL     1      -7.816  -5.792   3.915  0.00  0.00    +0.168 HD
ATOM     13  C   UNL     1      -5.932  -5.527   3.262  0.00  0.00    +0.270 A 
ATOM     14  O   UNL     1      -5.926  -4.317   3.426  0.00  0.00    -0.266 OA
BRANCH   9  15
ATOM     15  C   UNL     1      -6.016  -9.740   2.725  0.00  0.00    +0.419 C 
ATOM     16  F   UNL     1      -7.268 -10.222   3.123  0.00  0.00    -0.166 F 
ATOM     17  F   UNL     1      -5.803 -10.051   1.378  0.00  0.00    -0.166 F 
ATOM     18  F   UNL     1      -5.018 -10.335   3.504  0.00  0.00    -0.166 F 
ENDBRANCH   9  15
ENDBRANCH   4   7
BRANCH   1  22
ATOM     19  N   UNL     1      -1.340  -0.746  -0.386  0.00  0.00    +0.385 N 
ATOM     20  C   UNL     1      -2.127  -0.265   0.778  0.00  0.00    -0.076 C 
ATOM     21  C   UNL     1      -3.256  -1.305   0.941  0.00  0.00    +0.002 C 
ATOM     22  C   UNL     1      -2.712  -2.592   0.288  0.00  0.00    +0.056 C 
ATOM     23  C   UNL     1      -1.300  -2.221  -0.215  0.00  0.00    -0.056 C 
ATOM     24  H   UNL     1      -1.800  -0.503  -1.250  0.00  0.00    -0.081 HD
BRANCH  19  26
ATOM     25  C   UNL     1      -0.049   1.330  -0.531  0.00  0.00    -0.008 C 
ATOM     26  C   UNL     1       0.019  -0.188  -0.353  0.00  0.00    -0.041 C 
BRANCH  26  27
ATOM     27  C   UNL     1       0.836  -0.789  -1.468  0.00  0.00    -0.061 A 
ATOM     28  C   UNL     1       0.266  -0.990  -2.712  0.00  0.00    +0.002 A 
ATOM     29  C   UNL     1       1.015  -1.541  -3.735  0.00  0.00    +0.000 A 
ATOM     30  C   UNL     1       2.334  -1.891  -3.514  0.00  0.00    +0.000 A 
ATOM     31  C   UNL     1       2.904  -1.690  -2.271  0.00  0.00    +0.000 A 
ATOM     32  C   UNL     1       2.156  -1.135  -1.249  0.00  0.00    +0.002 A 
ENDBRANCH  26  27
ENDBRANCH  19  26
ENDBRANCH   1  22
TORSDOF 5
