REMARK  Name = ZINC36267064
REMARK  11 active torsions:
REMARK  status: ('A' for Active; 'I' for Inactive)
REMARK    1  A    between atoms: C_1  and  C_2
REMARK    2  A    between atoms: C_2  and  C_3
REMARK    3  A    between atoms: C_2  and  C_4
REMARK    4  A    between atoms: C_7  and  N_10
REMARK    5  A    between atoms: N_12  and  C_29
REMARK    6  A    between atoms: C_15  and  C_18
REMARK    7  A    between atoms: C_18  and  C_19
REMARK    8  A    between atoms: N_21  and  C_22
REMARK    9  A    between atoms: C_29  and  C_30
REMARK   10  A    between atoms: C_30  and  O_31
REMARK   11  A    between atoms: O_31  and  C_32
REMARK                            x       y       z     vdW  Elec       q    Type
REMARK                         _______ _______ _______ _____ _____    ______ ____
ROOT
ATOM      1  N   UNL     1       2.648  -1.822  -4.667  0.00  0.00    -0.226 NA
ATOM      2  C   UNL     1       3.956  -1.752  -4.742  0.00  0.00    +0.164 C 
ATOM      3  N   UNL     1       4.772  -2.144  -5.782  0.00  0.00    -0.248 N 
ATOM      4  C   UNL     1       6.088  -2.021  -5.737  0.00  0.00    +0.235 C 
ATOM      5  O   UNL     1       6.799  -2.367  -6.656  0.00  0.00    -0.274 OA
ATOM      6  C   UNL     1       6.653  -1.417  -4.461  0.00  0.00    +0.149 C 
ATOM      7  S   UNL     1       5.098  -1.119  -3.522  0.00  0.00    -0.077 S 
ENDROOT
BRANCH   1  11
ATOM      8  C   UNL     1       0.691  -0.471  -1.279  0.00  0.00    -0.045 A 
ATOM      9  C   UNL     1       0.211  -0.135  -2.532  0.00  0.00    +0.006 A 
ATOM     10  C   UNL     1       0.858  -0.581  -3.666  0.00  0.00    +0.028 A 
ATOM     11  C   UNL     1       2.001  -1.375  -3.546  0.00  0.00    +0.067 A 
ATOM     12  C   UNL     1       2.480  -1.710  -2.279  0.00  0.00    +0.028 A 
ATOM     13  C   UNL     1       1.826  -1.253  -1.153  0.00  0.00    +0.006 A 
BRANCH   8  15
ATOM     14  C   UNL     1      -0.040   1.550  -0.043  0.00  0.00    +0.012 C 
ATOM     15  C   UNL     1      -0.021   0.021  -0.046  0.00  0.00    +0.013 C 
ATOM     16  C   UNL     1      -1.457  -0.507  -0.042  0.00  0.00    +0.012 C 
ENDBRANCH   8  15
ENDBRANCH   1  11
BRANCH   6  17
ATOM     17  C   UNL     1       7.384  -0.103  -4.746  0.00  0.00    +0.120 C 
BRANCH  17  18
ATOM     18  C   UNL     1       8.031   0.396  -3.480  0.00  0.00    +0.219 C 
ATOM     19  O   UNL     1       7.918  -0.237  -2.451  0.00  0.00    -0.275 OA
ATOM     20  N   UNL     1       8.735   1.545  -3.490  0.00  0.00    -0.285 N 
ATOM     21  H   UNL     1       8.882   2.016  -4.326  0.00  0.00    +0.155 HD
BRANCH  20  22
ATOM     22  C   UNL     1       9.254   2.060  -2.296  0.00  0.00    +0.034 A 
ATOM     23  C   UNL     1       9.307   3.432  -2.095  0.00  0.00    +0.026 A 
ATOM     24  C   UNL     1       9.819   3.938  -0.916  0.00  0.00    +0.040 A 
ATOM     25  C   UNL     1      10.281   3.076   0.065  0.00  0.00    +0.124 A 
ATOM     26  C   UNL     1      10.230   1.707  -0.134  0.00  0.00    +0.040 A 
ATOM     27  C   UNL     1       9.712   1.197  -1.309  0.00  0.00    +0.026 A 
ATOM     28  F   UNL     1      10.783   3.572   1.217  0.00  0.00    -0.205 F 
ENDBRANCH  20  22
ENDBRANCH  17  18
ENDBRANCH   6  17
BRANCH   3  29
ATOM     29  C   UNL     1       4.158  -2.718  -6.981  0.00  0.00    +0.143 C 
BRANCH  29  30
ATOM     30  C   UNL     1       3.841  -1.601  -7.977  0.00  0.00    +0.179 C 
BRANCH  30  31
ATOM     31  O   UNL     1       5.059  -1.002  -8.425  0.00  0.00    -0.381 OA
ATOM     32  C   UNL     1       4.874   0.059  -9.364  0.00  0.00    +0.194 C 
ENDBRANCH  30  31
ENDBRANCH  29  30
ENDBRANCH   3  29
TORSDOF 8
