REMARK  Name = ZINC16255046
REMARK  9 active torsions:
REMARK  status: ('A' for Active; 'I' for Inactive)
REMARK    1  A    between atoms: C_1  and  C_2
REMARK    2  A    between atoms: C_3  and  C_32
REMARK    3  A    between atoms: N_9  and  N_12
REMARK    4  A    between atoms: C_13  and  C_15
REMARK    5  A    between atoms: C_15  and  S_16
REMARK    6  A    between atoms: S_16  and  C_17
REMARK    7  A    between atoms: C_20  and  C_25
REMARK    8  A    between atoms: N_21  and  C_22
REMARK    9  A    between atoms: C_22  and  C_23
REMARK                            x       y       z     vdW  Elec       q    Type
REMARK                         _______ _______ _______ _____ _____    ______ ____
ROOT
ATOM      1  C   UNL     1       0.357   5.312   2.624  0.00  0.00    +0.174 C 
ENDROOT
BRANCH   1   3
ATOM      2  N   UNL     1       1.232   7.524   3.302  0.00  0.00    -0.218 N 
ATOM      3  C   UNL     1       1.301   6.475   2.458  0.00  0.00    +0.241 C 
ATOM      4  O   UNL     1       2.123   6.467   1.566  0.00  0.00    -0.273 OA
ATOM      5  H   UNL     1       0.575   7.530   4.016  0.00  0.00    +0.176 HD
BRANCH   2  14
ATOM      6  C   UNL     1       0.935  12.569   1.454  0.00  0.00    +0.045 C 
ATOM      7  C   UNL     1       2.309  12.186   1.942  0.00  0.00    -0.026 A 
ATOM      8  C   UNL     1       3.318  13.070   1.892  0.00  0.00    -0.008 A 
ATOM      9  S   UNL     1       4.696  12.162   2.566  0.00  0.00    -0.073 S 
ATOM     10  C   UNL     1       3.877  10.623   2.895  0.00  0.00    +0.116 A 
ATOM     11  C   UNL     1       2.556  10.858   2.472  0.00  0.00    +0.077 A 
ATOM     12  C   UNL     1       1.651   9.758   2.626  0.00  0.00    +0.280 A 
ATOM     13  O   UNL     1       0.485   9.863   2.288  0.00  0.00    -0.265 OA
ATOM     14  N   UNL     1       2.110   8.605   3.148  0.00  0.00    -0.212 N 
ATOM     15  C   UNL     1       3.405   8.471   3.535  0.00  0.00    +0.223 A 
ATOM     16  N   UNL     1       4.255   9.454   3.403  0.00  0.00    -0.228 NA
ATOM     17  C   UNL     1       3.292  14.490   1.388  0.00  0.00    +0.052 C 
ENDBRANCH   2  14
ENDBRANCH   1   3
BRANCH   1  18
ATOM     18  S   UNL     1       0.697   4.074   1.348  0.00  0.00    -0.077 S 
BRANCH  18  19
ATOM     19  C   UNL     1      -0.514   2.864   1.767  0.00  0.00    +0.193 A 
ATOM     20  N   UNL     1      -1.381   2.937   2.752  0.00  0.00    -0.122 NA
ATOM     21  N   UNL     1      -2.112   1.880   2.776  0.00  0.00    -0.128 NA
ATOM     22  C   UNL     1      -1.760   1.070   1.805  0.00  0.00    +0.165 A 
ATOM     23  N   UNL     1      -0.728   1.677   1.127  0.00  0.00    -0.298 N 
BRANCH  22  24
ATOM     24  C   UNL     1      -2.359  -0.247   1.498  0.00  0.00    +0.019 A 
ATOM     25  C   UNL     1      -2.195  -0.814   0.233  0.00  0.00    +0.013 A 
ATOM     26  C   UNL     1      -2.752  -2.044  -0.045  0.00  0.00    +0.021 A 
ATOM     27  C   UNL     1      -3.482  -2.712   0.923  0.00  0.00    +0.041 A 
ATOM     28  C   UNL     1      -3.653  -2.152   2.178  0.00  0.00    +0.021 A 
ATOM     29  C   UNL     1      -3.096  -0.925   2.470  0.00  0.00    +0.013 A 
ATOM     30 CL   UNL     1      -4.185  -4.258   0.563  0.00  0.00    -0.084 Cl
ENDBRANCH  22  24
BRANCH  23  31
ATOM     31  C   UNL     1      -0.005   1.155  -0.036  0.00  0.00    +0.152 C 
BRANCH  31  32
ATOM     32  C   UNL     1      -0.607   1.720  -1.297  0.00  0.00    -0.013 C 
ATOM     33  C   UNL     1      -0.984   0.916  -2.260  0.00  0.00    +0.005 C 
ENDBRANCH  31  32
ENDBRANCH  23  31
ENDBRANCH  18  19
ENDBRANCH   1  18
TORSDOF 7
