REMARK  Name = ZINC08646990
REMARK  10 active torsions:
REMARK  status: ('A' for Active; 'I' for Inactive)
REMARK    1  A    between atoms: C_1  and  C_2
REMARK    2  A    between atoms: C_5  and  N_9
REMARK    3  A    between atoms: C_10  and  C_35
REMARK    4  A    between atoms: C_12  and  C_15
REMARK    5  A    between atoms: C_13  and  C_14
REMARK    6  A    between atoms: C_15  and  C_17
REMARK    7  A    between atoms: C_17  and  N_18
REMARK    8  A    between atoms: C_21  and  C_25
REMARK    9  A    between atoms: C_21  and  C_26
REMARK   10  A    between atoms: C_29  and  N_32
REMARK                            x       y       z     vdW  Elec       q    Type
REMARK                         _______ _______ _______ _____ _____    ______ ____
ROOT
ATOM      1  C   UNL     1      -2.578   1.724   0.025  0.00  0.00    +0.197 C 
ENDROOT
BRANCH   1   2
ATOM      2  N   UNL     1      -3.581   2.792   0.035  0.00  0.00    -0.216 N 
ATOM      3  C   UNL     1      -4.105   3.350  -1.074  0.00  0.00    +0.251 C 
ATOM      4  O   UNL     1      -3.845   3.074  -2.225  0.00  0.00    -0.272 OA
ATOM      5  C   UNL     1      -5.088   4.394  -0.583  0.00  0.00    +0.135 C 
ATOM      6  N   UNL     1      -4.994   4.295   0.884  0.00  0.00    -0.281 N 
ATOM      7  C   UNL     1      -4.094   3.330   1.148  0.00  0.00    +0.310 C 
ATOM      8  O   UNL     1      -3.780   2.988   2.271  0.00  0.00    -0.252 OA
ATOM      9  C   UNL     1      -6.505   4.065  -1.055  0.00  0.00    +0.047 C 
ATOM     10  H   UNL     1      -5.488   4.820   1.533  0.00  0.00    +0.152 HD
BRANCH   5  11
ATOM     11  C   UNL     1      -4.678   5.768  -1.048  0.00  0.00    -0.015 A 
ATOM     12  C   UNL     1      -3.986   5.917  -2.236  0.00  0.00    +0.008 A 
ATOM     13  C   UNL     1      -3.615   7.178  -2.665  0.00  0.00    +0.033 A 
ATOM     14  C   UNL     1      -3.926   8.287  -1.901  0.00  0.00    +0.126 A 
ATOM     15  C   UNL     1      -4.613   8.137  -0.711  0.00  0.00    +0.033 A 
ATOM     16  C   UNL     1      -4.989   6.878  -0.285  0.00  0.00    +0.008 A 
BRANCH  14  17
ATOM     17  N   UNL     1      -3.522   9.636  -2.358  0.00  0.00    +0.056 N 
ATOM     18  O   UNL     1      -3.796  10.614  -1.685  0.00  0.00    -0.126 OA
ATOM     19  O   UNL     1      -2.917   9.769  -3.407  0.00  0.00    -0.126 OA
ENDBRANCH  14  17
ENDBRANCH   5  11
ENDBRANCH   1   2
BRANCH   1  20
ATOM     20  C   UNL     1      -1.198   2.331   0.021  0.00  0.00    +0.183 C 
ATOM     21  O   UNL     1      -1.066   3.537   0.026  0.00  0.00    -0.290 OA
BRANCH  20  25
ATOM     22  N   UNL     1       2.076   0.757  -0.014  0.00  0.00    -0.317 N 
ATOM     23  C   UNL     1       1.296  -0.366  -0.012  0.00  0.00    +0.022 A 
ATOM     24  C   UNL     1       0.002  -0.004   0.002  0.00  0.00    +0.034 A 
ATOM     25  C   UNL     1      -0.018   1.465   0.010  0.00  0.00    +0.040 A 
ATOM     26  C   UNL     1       1.306   1.862  -0.000  0.00  0.00    +0.031 A 
ATOM     27  C   UNL     1       1.802   3.285   0.002  0.00  0.00    +0.064 C 
ATOM     28  C   UNL     1       1.806  -1.784  -0.025  0.00  0.00    +0.064 C 
BRANCH  22  33
ATOM     29  C   UNL     1       7.752   0.764  -0.062  0.00  0.00    +0.047 C 
ATOM     30  C   UNL     1       6.245   0.761  -0.050  0.00  0.00    -0.015 A 
ATOM     31  C   UNL     1       5.564   1.262   1.044  0.00  0.00    +0.008 A 
ATOM     32  C   UNL     1       4.182   1.266   1.056  0.00  0.00    +0.026 A 
ATOM     33  C   UNL     1       3.477   0.757  -0.027  0.00  0.00    +0.049 A 
ATOM     34  C   UNL     1       4.162   0.255  -1.124  0.00  0.00    +0.064 A 
ATOM     35  C   UNL     1       5.546   0.258  -1.134  0.00  0.00    +0.128 A 
ATOM     36  F   UNL     1       6.215  -0.230  -2.201  0.00  0.00    -0.205 F 
ENDBRANCH  22  33
ENDBRANCH  20  25
ENDBRANCH   1  20
TORSDOF 6
