REMARK  Name = ZINC34923399
REMARK  12 active torsions:
REMARK  status: ('A' for Active; 'I' for Inactive)
REMARK    1  A    between atoms: C_1  and  C_2
REMARK    2  A    between atoms: C_5  and  C_8
REMARK    3  A    between atoms: C_10  and  C_31
REMARK    4  A    between atoms: C_11  and  C_30
REMARK    5  A    between atoms: C_15  and  C_18
REMARK    6  A    between atoms: C_19  and  N_21
REMARK    7  A    between atoms: N_21  and  C_22
REMARK    8  A    between atoms: C_22  and  C_23
REMARK    9  A    between atoms: C_31  and  O_33
REMARK   10  A    between atoms: O_33  and  C_34
REMARK   11  A    between atoms: C_34  and  C_35
REMARK   12  A    between atoms: C_34  and  C_36
REMARK                            x       y       z     vdW  Elec       q    Type
REMARK                         _______ _______ _______ _____ _____    ______ ____
ROOT
ATOM      1  C   UNL     1       0.234  -4.032   0.228  0.00  0.00    +0.150 C 
ATOM      2  C   UNL     1       1.591  -4.680   0.061  0.00  0.00    +0.082 C 
ATOM      3  C   UNL     1       1.863  -5.807   0.813  0.00  0.00    +0.053 C 
ATOM      4  N   UNL     1       0.957  -6.292   1.646  0.00  0.00    -0.230 NA
ATOM      5  C   UNL     1      -0.240  -5.777   1.837  0.00  0.00    +0.166 C 
ATOM      6  N   UNL     1      -0.703  -4.664   1.194  0.00  0.00    -0.267 N 
ATOM      7  C   UNL     1      -1.982  -4.248   1.504  0.00  0.00    +0.048 C 
ATOM      8  C   UNL     1      -2.673  -4.969   2.415  0.00  0.00    +0.072 C 
ATOM      9  S   UNL     1      -1.505  -6.245   2.836  0.00  0.00    -0.060 S 
ATOM     10  C   UNL     1       3.200  -6.489   0.682  0.00  0.00    +0.066 C 
ENDROOT
BRANCH   1  15
ATOM     11  C   UNL     1       1.066   1.442   1.883  0.00  0.00    +0.044 C 
ATOM     12  C   UNL     1       0.849   0.014   1.452  0.00  0.00    -0.050 A 
ATOM     13  C   UNL     1       0.514  -0.268   0.140  0.00  0.00    +0.004 A 
ATOM     14  C   UNL     1       0.316  -1.577  -0.256  0.00  0.00    +0.006 A 
ATOM     15  C   UNL     1       0.452  -2.604   0.659  0.00  0.00    -0.022 A 
ATOM     16  C   UNL     1       0.788  -2.322   1.970  0.00  0.00    +0.006 A 
ATOM     17  C   UNL     1       0.991  -1.013   2.365  0.00  0.00    +0.004 A 
ENDBRANCH   1  15
BRANCH   7  18
ATOM     18  C   UNL     1      -2.573  -3.063   0.866  0.00  0.00    +0.091 C 
ATOM     19  C   UNL     1      -3.868  -2.758   1.078  0.00  0.00    +0.239 C 
ATOM     20  O   UNL     1      -4.595  -3.474   1.970  0.00  0.00    -0.271 OA
BRANCH  19  21
ATOM     21  N   UNL     1      -4.456  -1.713   0.386  0.00  0.00    -0.308 N 
ATOM     22  H   UNL     1      -3.958  -1.248  -0.305  0.00  0.00    +0.149 HD
BRANCH  21  23
ATOM     23  C   UNL     1      -5.829  -1.310   0.697  0.00  0.00    +0.142 C 
BRANCH  23  24
ATOM     24  C   UNL     1      -6.270  -0.242  -0.271  0.00  0.00    +0.005 A 
ATOM     25  C   UNL     1      -6.243   1.087   0.106  0.00  0.00    +0.008 A 
ATOM     26  C   UNL     1      -6.648   2.067  -0.782  0.00  0.00    +0.000 A 
ATOM     27  C   UNL     1      -7.080   1.718  -2.048  0.00  0.00    +0.003 A 
ATOM     28  C   UNL     1      -7.107   0.389  -2.428  0.00  0.00    +0.038 A 
ATOM     29  C   UNL     1      -6.697  -0.592  -1.541  0.00  0.00    +0.128 A 
ATOM     30  F   UNL     1      -6.719  -1.891  -1.913  0.00  0.00    -0.205 F 
ENDBRANCH  23  24
ENDBRANCH  21  23
ENDBRANCH  19  21
ENDBRANCH   7  18
BRANCH   2  31
ATOM     31  C   UNL     1       2.539  -4.155  -0.825  0.00  0.00    +0.339 C 
ATOM     32  O   UNL     1       3.665  -4.621  -0.858  0.00  0.00    -0.245 OA
BRANCH  31  33
ATOM     33  O   UNL     1       2.206  -3.133  -1.643  0.00  0.00    -0.459 OA
BRANCH  33  34
ATOM     34  C   UNL     1       3.224  -2.647  -2.522  0.00  0.00    +0.171 C 
ATOM     35  C   UNL     1       2.578  -2.101  -3.797  0.00  0.00    +0.052 C 
ATOM     36  C   UNL     1       4.007  -1.531  -1.828  0.00  0.00    +0.052 C 
ENDBRANCH  33  34
ENDBRANCH  31  33
ENDBRANCH   2  31
TORSDOF 8
