REMARK  Name = ZINC32935393
REMARK  6 active torsions:
REMARK  status: ('A' for Active; 'I' for Inactive)
REMARK    1  A    between atoms: C_6  and  C_7
REMARK    2  A    between atoms: N_12  and  C_14
REMARK    3  A    between atoms: C_14  and  N_15
REMARK    4  A    between atoms: N_18  and  C_21
REMARK    5  A    between atoms: C_21  and  C_22
REMARK    6  A    between atoms: C_24  and  C_27
REMARK                            x       y       z     vdW  Elec       q    Type
REMARK                         _______ _______ _______ _____ _____    ______ ____
ROOT
ATOM      1  N   UNL     1      -2.012   1.308  -3.707  0.00  0.00    +0.394 N 
ATOM      2  C   UNL     1      -0.677   1.914  -3.606  0.00  0.00    -0.061 C 
ATOM      3  C   UNL     1       0.059   1.323  -2.401  0.00  0.00    +0.066 C 
ATOM      4  N   UNL     1      -0.723   1.572  -1.182  0.00  0.00    -0.297 NA
ATOM      5  C   UNL     1      -2.058   0.966  -1.283  0.00  0.00    +0.066 C 
ATOM      6  C   UNL     1      -2.794   1.557  -2.488  0.00  0.00    -0.061 C 
ATOM      7  H   UNL     1      -1.885   0.220  -3.812  0.00  0.00    -0.079 HD
ENDROOT
BRANCH   1   8
ATOM      8  C   UNL     1      -2.723   1.794  -4.897  0.00  0.00    +0.072 C 
BRANCH   8  14
ATOM      9  C   UNL     1      -5.922   0.147  -5.114  0.00  0.00    +0.160 A 
ATOM     10  N   UNL     1      -6.260   1.304  -4.442  0.00  0.00    -0.317 N 
ATOM     11  H   UNL     1      -7.304   1.480  -4.140  0.00  0.00    +0.169 HD
ATOM     12  C   UNL     1      -5.144   2.042  -4.281  0.00  0.00    +0.174 A 
ATOM     13  S   UNL     1      -5.041   3.565  -3.507  0.00  0.00    -0.012 S 
ATOM     14  N   UNL     1      -4.121   1.363  -4.841  0.00  0.00    -0.257 N 
ATOM     15  N   UNL     1      -4.643   0.172  -5.365  0.00  0.00    -0.153 NA
BRANCH   9  21
ATOM     16  C   UNL     1      -8.208  -0.843  -5.164  0.00  0.00    +0.013 A 
ATOM     17  C   UNL     1      -9.075  -1.854  -5.524  0.00  0.00    +0.021 A 
ATOM     18  C   UNL     1      -8.602  -2.967  -6.199  0.00  0.00    +0.041 A 
ATOM     19  C   UNL     1      -7.260  -3.068  -6.523  0.00  0.00    +0.021 A 
ATOM     20  C   UNL     1      -6.385  -2.061  -6.173  0.00  0.00    +0.013 A 
ATOM     21  C   UNL     1      -6.855  -0.937  -5.492  0.00  0.00    +0.019 A 
ATOM     22 CL   UNL     1      -9.697  -4.239  -6.642  0.00  0.00    -0.084 Cl
ENDBRANCH   9  21
ENDBRANCH   8  14
ENDBRANCH   1   8
BRANCH   4  23
ATOM     23  C   UNL     1      -0.013   1.086   0.008  0.00  0.00    +0.183 C 
BRANCH  23  24
ATOM     24  C   UNL     1      -0.718   1.572   1.248  0.00  0.00    +0.242 A 
ATOM     25  N   UNL     1      -1.679   0.954   1.889  0.00  0.00    -0.190 NA
ATOM     26  C   UNL     1      -1.998   1.758   2.929  0.00  0.00    +0.203 A 
ATOM     27  N   UNL     1      -1.218   2.807   2.858  0.00  0.00    -0.056 NA
ATOM     28  O   UNL     1      -0.477   2.712   1.903  0.00  0.00    -0.336 OA
BRANCH  26  29
ATOM     29  C   UNL     1      -3.034   1.499   3.956  0.00  0.00    +0.029 A 
ATOM     30  C   UNL     1      -3.263   2.411   4.985  0.00  0.00    +0.019 A 
ATOM     31  C   UNL     1      -4.228   2.114   5.884  0.00  0.00    +0.046 A 
ATOM     32  S   UNL     1      -4.819   0.536   5.300  0.00  0.00    -0.104 S 
ATOM     33  C   UNL     1      -3.785   0.360   3.920  0.00  0.00    +0.057 A 
ENDBRANCH  26  29
ENDBRANCH  23  24
ENDBRANCH   4  23
TORSDOF 6
