REMARK  Name = ZINC04647774
REMARK  10 active torsions:
REMARK  status: ('A' for Active; 'I' for Inactive)
REMARK    1  A    between atoms: C_1  and  C_2
REMARK    2  A    between atoms: C_2  and  C_4
REMARK    3  A    between atoms: C_2  and  O_16
REMARK    4  A    between atoms: N_6  and  C_7
REMARK    5  A    between atoms: C_11  and  N_13
REMARK    6  A    between atoms: O_16  and  C_17
REMARK    7  A    between atoms: C_17  and  C_19
REMARK    8  A    between atoms: C_22  and  N_25
REMARK    9  A    between atoms: N_25  and  S_26
REMARK   10  A    between atoms: S_26  and  C_29
REMARK                            x       y       z     vdW  Elec       q    Type
REMARK                         _______ _______ _______ _____ _____    ______ ____
ROOT
ATOM      1  C   UNL     1       2.389   9.444   1.280  0.00  0.00    +0.340 C 
ATOM      2  O   UNL     1       1.464  10.046   1.787  0.00  0.00    -0.245 OA
ENDROOT
BRANCH   1   3
ATOM      3  C   UNL     1       3.773   9.903   1.495  0.00  0.00    +0.059 A 
ATOM      4  C   UNL     1       4.840   9.208   0.916  0.00  0.00    +0.017 A 
ATOM      5  C   UNL     1       6.126   9.641   1.113  0.00  0.00    +0.025 A 
ATOM      6  C   UNL     1       6.371  10.765   1.899  0.00  0.00    +0.048 A 
ATOM      7  C   UNL     1       5.312  11.455   2.481  0.00  0.00    +0.025 A 
ATOM      8  C   UNL     1       4.023  11.031   2.283  0.00  0.00    +0.017 A 
BRANCH   6   9
ATOM      9  N   UNL     1       7.676  11.198   2.101  0.00  0.00    -0.216 N 
ATOM     10  H   UNL     1       8.152  11.652   1.388  0.00  0.00    +0.174 HD
BRANCH   9  11
ATOM     11  S   UNL     1       8.419  10.938   3.558  0.00  0.00    +0.079 S 
ATOM     12  O   UNL     1       9.731  11.471   3.446  0.00  0.00    -0.149 OA
ATOM     13  O   UNL     1       7.506  11.366   4.560  0.00  0.00    -0.149 OA
BRANCH  11  14
ATOM     14  C   UNL     1       8.597   9.196   3.749  0.00  0.00    +0.147 A 
ATOM     15  C   UNL     1       9.657   8.409   3.448  0.00  0.00    +0.038 A 
ATOM     16  C   UNL     1       9.573   7.049   3.686  0.00  0.00    +0.030 A 
ATOM     17  C   UNL     1       8.430   6.545   4.214  0.00  0.00    +0.080 A 
ATOM     18  S   UNL     1       7.429   8.011   4.398  0.00  0.00    -0.057 S 
ATOM     19 CL   UNL     1       8.043   4.900   4.615  0.00  0.00    -0.076 Cl
ENDBRANCH  11  14
ENDBRANCH   9  11
ENDBRANCH   6   9
ENDBRANCH   1   3
BRANCH   1  20
ATOM     20  O   UNL     1       2.150   8.357   0.520  0.00  0.00    -0.449 OA
BRANCH  20  22
ATOM     21  C   UNL     1       0.180   8.663  -0.877  0.00  0.00    +0.062 C 
ATOM     22  C   UNL     1       0.763   7.963   0.351  0.00  0.00    +0.259 C 
BRANCH  22  23
ATOM     23  C   UNL     1       0.684   6.470   0.164  0.00  0.00    +0.258 C 
ATOM     24  O   UNL     1       1.702   5.815   0.080  0.00  0.00    -0.271 OA
ATOM     25  N   UNL     1      -0.516   5.863   0.088  0.00  0.00    -0.282 N 
ATOM     26  H   UNL     1      -1.329   6.393   0.079  0.00  0.00    +0.155 HD
BRANCH  25  27
ATOM     27  C   UNL     1      -0.592   4.467   0.023  0.00  0.00    +0.036 A 
ATOM     28  C   UNL     1       0.344   3.688   0.692  0.00  0.00    +0.023 A 
ATOM     29  C   UNL     1       0.268   2.311   0.626  0.00  0.00    +0.004 A 
ATOM     30  C   UNL     1      -0.739   1.707  -0.105  0.00  0.00    +0.033 A 
ATOM     31  C   UNL     1      -1.669   2.480  -0.776  0.00  0.00    +0.128 A 
ATOM     32  C   UNL     1      -1.601   3.858  -0.709  0.00  0.00    +0.056 A 
BRANCH  31  33
ATOM     33  N   UNL     1      -2.741   1.829  -1.563  0.00  0.00    +0.056 N 
ATOM     34  O   UNL     1      -2.804   0.614  -1.619  0.00  0.00    -0.126 OA
ATOM     35  O   UNL     1      -3.561   2.510  -2.154  0.00  0.00    -0.126 OA
ENDBRANCH  31  33
ENDBRANCH  25  27
ENDBRANCH  22  23
ENDBRANCH  20  22
ENDBRANCH   1  20
TORSDOF 9
