REMARK  Name = ZINC01809179
REMARK  7 active torsions:
REMARK  status: ('A' for Active; 'I' for Inactive)
REMARK    1  A    between atoms: C_4  and  N_7
REMARK    2  A    between atoms: C_16  and  S_17
REMARK    3  A    between atoms: S_17  and  C_18
REMARK    4  A    between atoms: C_18  and  C_19
REMARK    5  A    between atoms: N_21  and  N_22
REMARK    6  A    between atoms: C_23  and  C_24
REMARK    7  A    between atoms: C_29  and  O_30
REMARK                            x       y       z     vdW  Elec       q    Type
REMARK                         _______ _______ _______ _____ _____    ______ ____
ROOT
ATOM      1  N   UNL     1       3.623  -0.652  -0.037  0.00  0.00    -0.255 N 
ATOM      2  C   UNL     1       3.631  -1.994   0.052  0.00  0.00    +0.268 A 
ATOM      3  O   UNL     1       2.586  -2.614   0.146  0.00  0.00    -0.267 OA
ATOM      4  C   UNL     1       4.884  -2.685   0.035  0.00  0.00    +0.076 A 
ATOM      5  C   UNL     1       5.127  -4.127   0.120  0.00  0.00    -0.023 A 
ATOM      6  C   UNL     1       6.411  -4.534   0.082  0.00  0.00    -0.004 A 
ATOM      7  S   UNL     1       7.362  -3.046  -0.068  0.00  0.00    -0.073 S 
ATOM      8  C   UNL     1       6.028  -1.876  -0.078  0.00  0.00    +0.117 A 
ATOM      9  N   UNL     1       5.953  -0.553  -0.161  0.00  0.00    -0.215 NA
ATOM     10  C   UNL     1       4.786   0.058  -0.149  0.00  0.00    +0.178 A 
ATOM     11  C   UNL     1       6.919  -5.942   0.152  0.00  0.00    +0.043 C 
ATOM     12  C   UNL     1       5.780  -6.844   0.650  0.00  0.00    +0.005 C 
ATOM     13  C   UNL     1       4.514  -6.520  -0.148  0.00  0.00    +0.005 C 
ATOM     14  C   UNL     1       3.991  -5.138   0.247  0.00  0.00    +0.037 C 
ENDROOT
BRANCH   1  18
ATOM     15  C   UNL     1      -0.017   1.377   0.011  0.00  0.00    +0.000 A 
ATOM     16  C   UNL     1       0.523   0.959  -1.191  0.00  0.00    +0.002 A 
ATOM     17  C   UNL     1       1.730   0.286  -1.210  0.00  0.00    +0.026 A 
ATOM     18  C   UNL     1       2.400   0.031  -0.021  0.00  0.00    +0.052 A 
ATOM     19  C   UNL     1       1.854   0.453   1.184  0.00  0.00    +0.026 A 
ATOM     20  C   UNL     1       0.647   1.124   1.197  0.00  0.00    +0.002 A 
ENDBRANCH   1  18
BRANCH  10  21
ATOM     21  S   UNL     1       4.723   1.815  -0.271  0.00  0.00    -0.078 S 
BRANCH  21  22
ATOM     22  C   UNL     1       6.464   2.308  -0.398  0.00  0.00    +0.174 C 
BRANCH  22  23
ATOM     23  C   UNL     1       6.555   3.808  -0.510  0.00  0.00    +0.242 C 
ATOM     24  O   UNL     1       5.544   4.479  -0.504  0.00  0.00    -0.273 OA
ATOM     25  N   UNL     1       7.759   4.405  -0.616  0.00  0.00    -0.206 N 
ATOM     26  H   UNL     1       8.567   3.869  -0.621  0.00  0.00    +0.177 HD
BRANCH  25  27
ATOM     27  N   UNL     1       7.843   5.800  -0.720  0.00  0.00    -0.188 NA
ATOM     28  C   UNL     1       9.002   6.374  -0.822  0.00  0.00    +0.142 C 
BRANCH  28  29
ATOM     29  C   UNL     1       9.091   7.841  -0.931  0.00  0.00    +0.037 A 
ATOM     30  C   UNL     1      10.336   8.463  -1.047  0.00  0.00    +0.028 A 
ATOM     31  C   UNL     1      10.412   9.837  -1.149  0.00  0.00    +0.019 A 
ATOM     32  C   UNL     1       9.257  10.602  -1.137  0.00  0.00    +0.019 A 
ATOM     33  C   UNL     1       8.019   9.998  -1.022  0.00  0.00    +0.047 A 
ATOM     34  C   UNL     1       7.925   8.620  -0.925  0.00  0.00    +0.126 A 
ATOM     35 BR   UNL     1      12.098  10.678  -1.306  0.00  0.00    -0.050 Br
BRANCH  34  36
ATOM     36  O   UNL     1       6.709   8.025  -0.818  0.00  0.00    -0.506 OA
ATOM     37  H   UNL     1       6.403   7.916   0.093  0.00  0.00    +0.292 HD
ENDBRANCH  34  36
ENDBRANCH  28  29
ENDBRANCH  25  27
ENDBRANCH  22  23
ENDBRANCH  21  22
ENDBRANCH  10  21
TORSDOF 7
