REMARK  Name = ZINC02689726
REMARK  9 active torsions:
REMARK  status: ('A' for Active; 'I' for Inactive)
REMARK    1  A    between atoms: C_1  and  C_2
REMARK    2  A    between atoms: C_2  and  C_3
REMARK    3  A    between atoms: C_2  and  C_4
REMARK    4  A    between atoms: C_2  and  C_5
REMARK    5  A    between atoms: C_12  and  C_14
REMARK    6  A    between atoms: C_12  and  N_18
REMARK    7  A    between atoms: C_19  and  O_21
REMARK    8  A    between atoms: O_21  and  C_22
REMARK    9  A    between atoms: C_25  and  C_28
REMARK                            x       y       z     vdW  Elec       q    Type
REMARK                         _______ _______ _______ _____ _____    ______ ____
ROOT
ATOM      1  C   UNL     1      -5.412   0.825   0.774  0.00  0.00    -0.038 A 
ATOM      2  C   UNL     1      -5.466   0.679  -0.600  0.00  0.00    +0.008 A 
ATOM      3  C   UNL     1      -4.802  -0.368  -1.212  0.00  0.00    +0.050 A 
ATOM      4  C   UNL     1      -4.082  -1.274  -0.450  0.00  0.00    +0.169 A 
ATOM      5  C   UNL     1      -4.029  -1.126   0.934  0.00  0.00    +0.169 A 
ATOM      6  C   UNL     1      -4.696  -0.074   1.541  0.00  0.00    +0.053 A 
ATOM      7  O   UNL     1      -3.266  -2.133   1.450  0.00  0.00    -0.429 OA
ATOM      8  C   UNL     1      -2.518  -2.659   0.338  0.00  0.00    +0.386 C 
ATOM      9  O   UNL     1      -3.353  -2.373  -0.800  0.00  0.00    -0.429 OA
ENDROOT
BRANCH   1  11
ATOM     10  C   UNL     1      -6.846   2.809   0.372  0.00  0.00    +0.015 C 
ATOM     11  C   UNL     1      -6.137   1.968   1.437  0.00  0.00    -0.013 C 
ATOM     12  C   UNL     1      -7.170   1.415   2.421  0.00  0.00    +0.015 C 
ATOM     13  C   UNL     1      -5.131   2.841   2.190  0.00  0.00    +0.015 C 
ENDBRANCH   1  11
BRANCH   8  14
ATOM     14  C   UNL     1      -2.314  -4.168   0.489  0.00  0.00    +0.288 C 
ATOM     15 CL   UNL     1      -1.334  -4.497   1.966  0.00  0.00    -0.073 Cl
ATOM     16 CL   UNL     1      -3.917  -4.980   0.637  0.00  0.00    -0.073 Cl
ATOM     17 CL   UNL     1      -1.449  -4.805  -0.960  0.00  0.00    -0.073 Cl
ENDBRANCH   8  14
BRANCH   8  18
ATOM     18  N   UNL     1      -1.228  -1.976   0.215  0.00  0.00    -0.205 N 
ATOM     19  C   UNL     1      -1.184  -0.632   0.115  0.00  0.00    +0.411 C 
ATOM     20  O   UNL     1      -2.214   0.012   0.125  0.00  0.00    -0.226 OA
ATOM     21  H   UNL     1      -0.406  -2.490   0.207  0.00  0.00    +0.159 HD
BRANCH  19  22
ATOM     22  O   UNL     1       0.002  -0.004   0.002  0.00  0.00    -0.411 OA
BRANCH  22  23
ATOM     23  C   UNL     1      -0.014   1.353   0.030  0.00  0.00    +0.133 A 
ATOM     24  C   UNL     1       0.275   2.073  -1.124  0.00  0.00    +0.047 A 
ATOM     25  C   UNL     1       0.254   3.449  -1.103  0.00  0.00    +0.014 A 
ATOM     26  C   UNL     1      -0.047   4.124   0.086  0.00  0.00    +0.014 A 
ATOM     27  C   UNL     1      -0.332   3.394   1.247  0.00  0.00    +0.014 A 
ATOM     28  C   UNL     1      -0.314   2.018   1.213  0.00  0.00    +0.047 A 
BRANCH  26  29
ATOM     29  C   UNL     1      -0.065   5.592   0.116  0.00  0.00    +0.258 C 
ATOM     30  O   UNL     1      -0.327   6.175   1.147  0.00  0.00    -0.296 OA
ENDBRANCH  26  29
ENDBRANCH  22  23
ENDBRANCH  19  22
ENDBRANCH   8  18
TORSDOF 6
