REMARK  Name = ZINC65259616
REMARK  4 active torsions:
REMARK  status: ('A' for Active; 'I' for Inactive)
REMARK    1  A    between atoms: C_6  and  N_7
REMARK    2  A    between atoms: C_8  and  C_10
REMARK    3  A    between atoms: N_13  and  S_21
REMARK    4  A    between atoms: S_21  and  C_24
REMARK                            x       y       z     vdW  Elec       q    Type
REMARK                         _______ _______ _______ _____ _____    ______ ____
ROOT
ATOM      1  C   UNL     1      -3.558  -1.018   0.025  0.00  0.00    +0.098 C 
ATOM      2  C   UNL     1      -3.633  -1.884  -1.258  0.00  0.00    +0.122 C 
ATOM      3  N   UNL     1      -5.069  -2.167  -1.442  0.00  0.00    -0.180 NA
ATOM      4  C   UNL     1      -5.846  -1.116  -0.766  0.00  0.00    +0.116 C 
ATOM      5  C   UNL     1      -4.838  -0.162  -0.104  0.00  0.00    -0.003 C 
ATOM      6  C   UNL     1      -4.575   1.045  -0.994  0.00  0.00    +0.009 C 
ATOM      7  C   UNL     1      -3.535   1.952  -0.332  0.00  0.00    +0.001 C 
ATOM      8  C   UNL     1      -4.050   2.401   1.037  0.00  0.00    +0.000 C 
ATOM      9  C   UNL     1      -4.282   1.177   1.925  0.00  0.00    +0.001 C 
ATOM     10  C   UNL     1      -5.325   0.266   1.273  0.00  0.00    +0.009 C 
ENDROOT
BRANCH   1  12
ATOM     11  N   UNL     1      -1.745   0.189  -1.147  0.00  0.00    -0.285 N 
ATOM     12  C   UNL     1      -2.326  -0.151   0.021  0.00  0.00    +0.222 C 
ATOM     13  O   UNL     1      -1.856   0.240   1.069  0.00  0.00    -0.275 OA
ATOM     14  H   UNL     1      -2.162  -0.060  -1.986  0.00  0.00    +0.155 HD
BRANCH  11  20
ATOM     15  C   UNL     1      -0.287   1.841  -0.156  0.00  0.00    +0.027 A 
ATOM     16  C   UNL     1       0.901   2.546  -0.158  0.00  0.00    +0.051 A 
ATOM     17  C   UNL     1       1.844   2.321  -1.149  0.00  0.00    +0.162 A 
ATOM     18  C   UNL     1       1.595   1.380  -2.142  0.00  0.00    +0.164 A 
ATOM     19  C   UNL     1       0.403   0.674  -2.141  0.00  0.00    +0.072 A 
ATOM     20  C   UNL     1      -0.540   0.903  -1.148  0.00  0.00    +0.037 A 
ATOM     21  O   UNL     1       2.512   1.139  -3.119  0.00  0.00    -0.485 OA
ATOM     22  C   UNL     1       3.531   2.128  -3.303  0.00  0.00    +0.270 C 
ATOM     23  C   UNL     1       4.085   2.510  -1.924  0.00  0.00    +0.270 C 
ATOM     24  O   UNL     1       3.007   3.029  -1.136  0.00  0.00    -0.485 OA
ENDBRANCH  11  20
ENDBRANCH   1  12
BRANCH   3  25
ATOM     25  S   UNL     1      -5.701  -3.453  -2.272  0.00  0.00    +0.035 S 
ATOM     26  O   UNL     1      -6.980  -3.011  -2.706  0.00  0.00    -0.158 OA
ATOM     27  O   UNL     1      -4.698  -3.806  -3.214  0.00  0.00    -0.158 OA
BRANCH  25  28
ATOM     28  C   UNL     1      -5.882  -4.764  -1.031  0.00  0.00    +0.148 C 
ATOM     29  C   UNL     1      -4.890  -5.928  -1.083  0.00  0.00    +0.029 C 
ATOM     30  C   UNL     1      -6.341  -6.140  -1.519  0.00  0.00    +0.029 C 
ENDBRANCH  25  28
ENDBRANCH   3  25
TORSDOF 4
