REMARK  Name = ZINC14955022
REMARK  6 active torsions:
REMARK  status: ('A' for Active; 'I' for Inactive)
REMARK    1  A    between atoms: C_4  and  C_7
REMARK    2  A    between atoms: C_7  and  N_8
REMARK    3  A    between atoms: C_19  and  N_23
REMARK    4  A    between atoms: N_23  and  C_24
REMARK    5  A    between atoms: N_27  and  C_30
REMARK    6  A    between atoms: C_30  and  C_31
REMARK                            x       y       z     vdW  Elec       q    Type
REMARK                         _______ _______ _______ _____ _____    ______ ____
ROOT
ATOM      1  N   UNL     1       4.152  -0.952   1.338  0.00  0.00    -0.294 N 
ATOM      2  C   UNL     1       4.925  -0.028   1.963  0.00  0.00    +0.203 A 
ATOM      3  N   UNL     1       5.338  -0.210   3.189  0.00  0.00    -0.230 NA
ATOM      4  C   UNL     1       5.013  -1.308   3.864  0.00  0.00    +0.116 A 
ATOM      5  C   UNL     1       4.217  -2.319   3.302  0.00  0.00    +0.076 A 
ATOM      6  C   UNL     1       3.777  -2.087   1.958  0.00  0.00    +0.263 A 
ATOM      7  O   UNL     1       3.079  -2.905   1.384  0.00  0.00    -0.267 OA
ATOM      8  C   UNL     1       3.940  -3.469   4.162  0.00  0.00    -0.023 A 
ATOM      9  C   UNL     1       4.471  -3.447   5.403  0.00  0.00    -0.003 A 
ATOM     10  S   UNL     1       5.359  -1.916   5.496  0.00  0.00    -0.073 S 
ATOM     11  C   UNL     1       4.337  -4.494   6.466  0.00  0.00    +0.061 C 
ATOM     12  C   UNL     1       3.807  -5.780   5.816  0.00  0.00    +0.059 C 
ATOM     13  C   UNL     1       2.612  -5.424   4.927  0.00  0.00    +0.024 C 
ATOM     14  C   UNL     1       3.090  -4.649   3.699  0.00  0.00    +0.038 C 
ENDROOT
BRANCH  12  15
ATOM     15  N   UNL     1       3.384  -6.722   6.861  0.00  0.00    -0.310 NA
ATOM     16  H   UNL     1       2.928  -6.240   7.620  0.00  0.00    +0.122 HD
BRANCH  15  17
ATOM     17  C   UNL     1       4.522  -7.514   7.347  0.00  0.00    +0.050 C 
ATOM     18  C   UNL     1       4.726  -8.730   6.439  0.00  0.00    -0.000 C 
ATOM     19  C   UNL     1       5.861  -9.591   6.996  0.00  0.00    -0.077 C 
ATOM     20  N   UNL     1       5.518 -10.043   8.350  0.00  0.00    +0.382 N 
ATOM     21  C   UNL     1       5.391  -8.885   9.243  0.00  0.00    -0.077 C 
ATOM     22  C   UNL     1       4.238  -7.996   8.773  0.00  0.00    -0.000 C 
ATOM     23  H   UNL     1       4.643 -10.544   8.325  0.00  0.00    -0.081 HD
BRANCH  20  24
ATOM     24  C   UNL     1       6.575 -10.932   8.850  0.00  0.00    -0.043 C 
BRANCH  24  25
ATOM     25  C   UNL     1       6.167 -11.493  10.188  0.00  0.00    -0.064 A 
ATOM     26  C   UNL     1       6.497 -10.820  11.350  0.00  0.00    +0.002 A 
ATOM     27  C   UNL     1       6.123 -11.335  12.577  0.00  0.00    +0.000 A 
ATOM     28  C   UNL     1       5.419 -12.522  12.643  0.00  0.00    +0.000 A 
ATOM     29  C   UNL     1       5.088 -13.195  11.481  0.00  0.00    +0.000 A 
ATOM     30  C   UNL     1       5.458 -12.678  10.254  0.00  0.00    +0.002 A 
ENDBRANCH  24  25
ENDBRANCH  20  24
ENDBRANCH  15  17
ENDBRANCH  12  15
BRANCH   1  31
ATOM     31  C   UNL     1       3.711  -0.707  -0.038  0.00  0.00    +0.161 C 
BRANCH  31  35
ATOM     32  C   UNL     1      -0.017   1.378   0.010  0.00  0.00    +0.000 A 
ATOM     33  C   UNL     1       1.171   2.086   0.002  0.00  0.00    +0.000 A 
ATOM     34  C   UNL     1       2.377   1.411  -0.013  0.00  0.00    +0.005 A 
ATOM     35  C   UNL     1       2.396   0.029  -0.020  0.00  0.00    -0.028 A 
ATOM     36  C   UNL     1       1.208  -0.679  -0.012  0.00  0.00    +0.005 A 
ATOM     37  C   UNL     1       0.002  -0.004   0.002  0.00  0.00    +0.000 A 
ENDBRANCH  31  35
ENDBRANCH   1  31
TORSDOF 6
