REMARK  Name = ZINC35564041
REMARK  3 active torsions:
REMARK  status: ('A' for Active; 'I' for Inactive)
REMARK    1  A    between atoms: C_3  and  C_6
REMARK    2  A    between atoms: C_20  and  C_22
REMARK    3  A    between atoms: C_22  and  N_23
REMARK                            x       y       z     vdW  Elec       q    Type
REMARK                         _______ _______ _______ _____ _____    ______ ____
ROOT
ATOM      1  C   UNL     1       3.696   1.677  -2.414  0.00  0.00    +0.253 C 
ATOM      2  O   UNL     1       2.551   1.331  -2.191  0.00  0.00    -0.269 OA
ATOM      3  N   UNL     1       4.669   0.751  -2.530  0.00  0.00    -0.294 N 
ATOM      4  C   UNL     1       6.083   1.151  -2.558  0.00  0.00    +0.127 C 
ATOM      5  C   UNL     1       6.828   0.394  -1.452  0.00  0.00    +0.127 C 
ATOM      6  N   UNL     1       6.494  -1.033  -1.552  0.00  0.00    -0.298 N 
ATOM      7  C   UNL     1       5.080  -1.433  -1.525  0.00  0.00    +0.127 C 
ATOM      8  C   UNL     1       4.335  -0.677  -2.625  0.00  0.00    +0.127 C 
ATOM      9  C   UNL     1       7.482  -1.973  -1.670  0.00  0.00    +0.198 A 
ATOM     10  N   UNL     1       8.784  -1.592  -1.566  0.00  0.00    -0.295 N 
ATOM     11  H   UNL     1       9.007  -0.661  -1.410  0.00  0.00    +0.172 HD
ATOM     12  C   UNL     1       9.764  -2.513  -1.681  0.00  0.00    +0.253 A 
ATOM     13  O   UNL     1      10.936  -2.188  -1.589  0.00  0.00    -0.268 OA
ATOM     14  C   UNL     1       9.407  -3.854  -1.907  0.00  0.00    +0.091 A 
ATOM     15  C   UNL     1       8.085  -4.178  -2.002  0.00  0.00    +0.034 A 
ATOM     16  N   UNL     1       7.155  -3.234  -1.877  0.00  0.00    -0.223 NA
ENDROOT
BRANCH   1  19
ATOM     17  C   UNL     1       3.799   5.428  -2.551  0.00  0.00    +0.008 A 
ATOM     18  C   UNL     1       3.212   4.205  -2.329  0.00  0.00    +0.021 A 
ATOM     19  C   UNL     1       4.018   3.100  -2.557  0.00  0.00    +0.074 A 
ATOM     20  S   UNL     1       5.546   3.861  -3.068  0.00  0.00    -0.092 S 
ATOM     21  C   UNL     1       5.089   5.474  -2.966  0.00  0.00    +0.046 A 
ENDBRANCH   1  19
BRANCH  15  22
ATOM     22  C   UNL     1       7.676  -5.608  -2.244  0.00  0.00    -0.022 C 
BRANCH  22  23
ATOM     23  N   UNL     1       6.939  -6.111  -1.077  0.00  0.00    +0.383 N 
ATOM     24  C   UNL     1       7.833  -6.146   0.087  0.00  0.00    -0.078 C 
ATOM     25  C   UNL     1       7.050  -6.591   1.323  0.00  0.00    -0.019 C 
ATOM     26  C   UNL     1       6.473  -7.989   1.079  0.00  0.00    -0.004 C 
ATOM     27  C   UNL     1       5.602  -7.958  -0.180  0.00  0.00    -0.019 C 
ATOM     28  C   UNL     1       6.439  -7.462  -1.361  0.00  0.00    -0.078 C 
ATOM     29  H   UNL     1       6.161  -5.499  -0.883  0.00  0.00    -0.081 HD
ENDBRANCH  22  23
ENDBRANCH  15  22
TORSDOF 3
