REMARK  Name = ZINC35768835
REMARK  9 active torsions:
REMARK  status: ('A' for Active; 'I' for Inactive)
REMARK    1  A    between atoms: C_4  and  C_7
REMARK    2  A    between atoms: C_7  and  N_8
REMARK    3  A    between atoms: C_10  and  C_17
REMARK    4  A    between atoms: C_17  and  C_19
REMARK    5  A    between atoms: C_17  and  C_36
REMARK    6  A    between atoms: C_19  and  C_20
REMARK    7  A    between atoms: N_22  and  C_23
REMARK    8  A    between atoms: N_26  and  C_29
REMARK    9  A    between atoms: C_29  and  C_30
REMARK                            x       y       z     vdW  Elec       q    Type
REMARK                         _______ _______ _______ _____ _____    ______ ____
ROOT
ATOM      1  C   UNL     1       6.078  -0.080   4.352  0.00  0.00    +0.060 C 
ENDROOT
BRANCH   1   4
ATOM      2  N   UNL     1       4.152  -0.952   1.338  0.00  0.00    -0.342 N 
ATOM      3  C   UNL     1       5.008  -0.152   2.043  0.00  0.00    +0.091 A 
ATOM      4  C   UNL     1       5.204  -0.660   3.270  0.00  0.00    -0.014 A 
ATOM      5  C   UNL     1       4.408  -1.887   3.358  0.00  0.00    +0.004 A 
ATOM      6  C   UNL     1       3.761  -2.020   2.115  0.00  0.00    +0.050 A 
ATOM      7  C   UNL     1       2.918  -3.105   1.898  0.00  0.00    +0.026 A 
ATOM      8  C   UNL     1       2.724  -4.031   2.900  0.00  0.00    +0.002 A 
ATOM      9  C   UNL     1       3.362  -3.894   4.125  0.00  0.00    +0.001 A 
ATOM     10  C   UNL     1       4.201  -2.840   4.356  0.00  0.00    +0.010 A 
BRANCH   2  11
ATOM     11  C   UNL     1       3.711  -0.707  -0.038  0.00  0.00    +0.157 C 
BRANCH  11  15
ATOM     12  C   UNL     1      -0.017   1.378   0.010  0.00  0.00    +0.000 A 
ATOM     13  C   UNL     1       1.171   2.086   0.002  0.00  0.00    +0.000 A 
ATOM     14  C   UNL     1       2.377   1.411  -0.013  0.00  0.00    +0.005 A 
ATOM     15  C   UNL     1       2.396   0.029  -0.020  0.00  0.00    -0.028 A 
ATOM     16  C   UNL     1       1.208  -0.679  -0.012  0.00  0.00    +0.005 A 
ATOM     17  C   UNL     1       0.002  -0.004   0.002  0.00  0.00    +0.000 A 
ENDBRANCH  11  15
ENDBRANCH   2  11
ENDBRANCH   1   4
BRANCH   1  18
ATOM     18  C   UNL     1       7.500   0.001   3.860  0.00  0.00    -0.032 A 
ATOM     19  C   UNL     1       8.508  -0.682   4.514  0.00  0.00    +0.012 A 
ATOM     20  C   UNL     1       9.777  -0.588   4.046  0.00  0.00    +0.045 A 
ATOM     21  S   UNL     1       9.572   0.491   2.639  0.00  0.00    -0.105 S 
ATOM     22  C   UNL     1       7.809   0.740   2.767  0.00  0.00    +0.049 A 
ENDBRANCH   1  18
BRANCH   1  23
ATOM     23  C   UNL     1       5.582   1.323   4.711  0.00  0.00    +0.108 C 
BRANCH  23  24
ATOM     24  C   UNL     1       6.377   1.854   5.875  0.00  0.00    +0.214 C 
ATOM     25  O   UNL     1       7.254   1.178   6.370  0.00  0.00    -0.276 OA
ATOM     26  N   UNL     1       6.113   3.081   6.367  0.00  0.00    -0.313 N 
ATOM     27  H   UNL     1       5.412   3.622   5.971  0.00  0.00    +0.149 HD
BRANCH  26  28
ATOM     28  C   UNL     1       6.886   3.598   7.499  0.00  0.00    +0.069 C 
ATOM     29  C   UNL     1       6.263   3.110   8.810  0.00  0.00    +0.003 C 
ATOM     30  C   UNL     1       7.027   3.717   9.989  0.00  0.00    -0.077 C 
ATOM     31  N   UNL     1       6.949   5.182   9.924  0.00  0.00    +0.382 N 
ATOM     32  C   UNL     1       7.609   5.662   8.704  0.00  0.00    -0.077 C 
ATOM     33  C   UNL     1       6.867   5.129   7.476  0.00  0.00    +0.003 C 
ATOM     34  H   UNL     1       5.981   5.466   9.916  0.00  0.00    -0.081 HD
BRANCH  31  35
ATOM     35  C   UNL     1       7.617   5.758  11.099  0.00  0.00    -0.043 C 
BRANCH  35  36
ATOM     36  C   UNL     1       7.433   7.254  11.098  0.00  0.00    -0.064 A 
ATOM     37  C   UNL     1       8.353   8.063  10.459  0.00  0.00    +0.002 A 
ATOM     38  C   UNL     1       8.183   9.435  10.458  0.00  0.00    +0.000 A 
ATOM     39  C   UNL     1       7.093   9.998  11.095  0.00  0.00    +0.000 A 
ATOM     40  C   UNL     1       6.173   9.188  11.734  0.00  0.00    +0.000 A 
ATOM     41  C   UNL     1       6.340   7.816  11.731  0.00  0.00    +0.002 A 
ENDBRANCH  35  36
ENDBRANCH  31  35
ENDBRANCH  26  28
ENDBRANCH  23  24
ENDBRANCH   1  23
TORSDOF 9
