REMARK  Name = ZINC30977729
REMARK  11 active torsions:
REMARK  status: ('A' for Active; 'I' for Inactive)
REMARK    1  A    between atoms: C_1  and  C_2
REMARK    2  A    between atoms: C_2  and  C_4
REMARK    3  A    between atoms: C_2  and  N_11
REMARK    4  A    between atoms: C_12  and  C_14
REMARK    5  A    between atoms: N_17  and  C_20
REMARK    6  A    between atoms: C_20  and  C_21
REMARK    7  A    between atoms: C_23  and  C_26
REMARK    8  A    between atoms: C_29  and  C_32
REMARK    9  A    between atoms: C_32  and  C_33
REMARK   10  A    between atoms: C_32  and  C_34
REMARK   11  A    between atoms: C_32  and  C_35
REMARK                            x       y       z     vdW  Elec       q    Type
REMARK                         _______ _______ _______ _____ _____    ______ ____
ROOT
ATOM      1  C   UNL     1      -1.293  -0.775   0.010  0.00  0.00    +0.071 C 
ATOM      2  C   UNL     1      -2.086  -0.430   1.274  0.00  0.00    -0.006 C 
ATOM      3  C   UNL     1      -3.370  -1.261   1.306  0.00  0.00    -0.077 C 
ATOM      4  N   UNL     1      -3.031  -2.690   1.295  0.00  0.00    +0.386 N 
ATOM      5  C   UNL     1      -2.310  -3.055   0.069  0.00  0.00    -0.077 C 
ATOM      6  C   UNL     1      -0.994  -2.277  -0.001  0.00  0.00    -0.006 C 
ATOM      7  H   UNL     1      -2.362  -2.882   2.147  0.00  0.00    -0.081 HD
ENDROOT
BRANCH   1   9
ATOM      8  N   UNL     1      -0.016   1.344   0.009  0.00  0.00    -0.309 N 
ATOM      9  C   UNL     1       0.002  -0.004   0.002  0.00  0.00    +0.216 C 
ATOM     10  O   UNL     1       1.060  -0.596  -0.011  0.00  0.00    -0.276 OA
ATOM     11  H   UNL     1      -0.976   1.881   0.021  0.00  0.00    +0.149 HD
BRANCH   8  13
ATOM     12  C   UNL     1       1.731   2.254  -1.440  0.00  0.00    +0.033 C 
ATOM     13  C   UNL     1       1.242   2.093   0.001  0.00  0.00    +0.100 C 
BRANCH  13  14
ATOM     14  C   UNL     1       1.021   3.453   0.611  0.00  0.00    -0.027 A 
ATOM     15  C   UNL     1      -0.135   4.157   0.328  0.00  0.00    +0.008 A 
ATOM     16  C   UNL     1      -0.341   5.402   0.891  0.00  0.00    +0.038 A 
ATOM     17  C   UNL     1       0.615   5.950   1.730  0.00  0.00    +0.123 A 
ATOM     18  C   UNL     1       1.774   5.246   2.008  0.00  0.00    +0.038 A 
ATOM     19  C   UNL     1       1.976   3.999   1.449  0.00  0.00    +0.008 A 
ATOM     20  F   UNL     1       0.416   7.169   2.277  0.00  0.00    -0.205 F 
ENDBRANCH  13  14
ENDBRANCH   8  13
ENDBRANCH   1   9
BRANCH   4  21
ATOM     21  C   UNL     1      -4.233  -3.518   1.466  0.00  0.00    +0.022 C 
BRANCH  21  22
ATOM     22  C   UNL     1      -4.808  -3.291   2.840  0.00  0.00    +0.211 A 
ATOM     23  N   UNL     1      -5.699  -2.390   3.171  0.00  0.00    -0.193 NA
ATOM     24  C   UNL     1      -5.911  -2.559   4.496  0.00  0.00    +0.202 A 
ATOM     25  N   UNL     1      -5.144  -3.543   4.887  0.00  0.00    -0.056 NA
ATOM     26  O   UNL     1      -4.510  -3.975   3.949  0.00  0.00    -0.340 OA
BRANCH  24  27
ATOM     27  C   UNL     1      -6.840  -1.774   5.347  0.00  0.00    +0.022 A 
ATOM     28  C   UNL     1      -7.595  -0.743   4.791  0.00  0.00    +0.012 A 
ATOM     29  C   UNL     1      -8.461  -0.020   5.586  0.00  0.00    +0.005 A 
ATOM     30  C   UNL     1      -8.572  -0.310   6.934  0.00  0.00    -0.042 A 
ATOM     31  C   UNL     1      -7.821  -1.328   7.492  0.00  0.00    +0.005 A 
ATOM     32  C   UNL     1      -6.955  -2.061   6.705  0.00  0.00    +0.012 A 
BRANCH  30  33
ATOM     33  C   UNL     1      -9.515   0.488   7.798  0.00  0.00    -0.013 C 
ATOM     34  C   UNL     1      -8.725   1.177   8.913  0.00  0.00    +0.015 C 
ATOM     35  C   UNL     1     -10.219   1.544   6.944  0.00  0.00    +0.015 C 
ATOM     36  C   UNL     1     -10.557  -0.448   8.414  0.00  0.00    +0.015 C 
ENDBRANCH  30  33
ENDBRANCH  24  27
ENDBRANCH  21  22
ENDBRANCH   4  21
TORSDOF 7
