REMARK  Name = ZINC35093585
REMARK  9 active torsions:
REMARK  status: ('A' for Active; 'I' for Inactive)
REMARK    1  A    between atoms: C_1  and  C_2
REMARK    2  A    between atoms: C_2  and  C_3
REMARK    3  A    between atoms: C_3  and  C_4
REMARK    4  A    between atoms: C_4  and  N_5
REMARK    5  A    between atoms: N_5  and  C_6
REMARK    6  A    between atoms: C_6  and  C_8
REMARK    7  A    between atoms: C_6  and  C_9
REMARK    8  A    between atoms: N_19  and  C_20
REMARK    9  A    between atoms: N_29  and  C_30
REMARK                            x       y       z     vdW  Elec       q    Type
REMARK                         _______ _______ _______ _____ _____    ______ ____
ROOT
ATOM      1  C   UNL     1       3.186  -2.626  -2.226  0.00  0.00    +0.141 C 
ATOM      2  C   UNL     1       3.871  -1.396  -1.627  0.00  0.00    +0.036 C 
ENDROOT
BRANCH   1   3
ATOM      3  C   UNL     1       3.078  -3.702  -1.177  0.00  0.00    +0.138 A 
ATOM      4  N   UNL     1       2.507  -3.408  -0.049  0.00  0.00    -0.231 NA
ATOM      5  C   UNL     1       2.374  -4.326   0.941  0.00  0.00    +0.078 A 
ATOM      6  C   UNL     1       1.760  -4.010   2.155  0.00  0.00    +0.028 A 
ATOM      7  C   UNL     1       1.646  -4.973   3.132  0.00  0.00    +0.002 A 
ATOM      8  C   UNL     1       2.135  -6.256   2.927  0.00  0.00    +0.001 A 
ATOM      9  C   UNL     1       2.745  -6.592   1.739  0.00  0.00    +0.015 A 
ATOM     10  C   UNL     1       2.869  -5.633   0.736  0.00  0.00    +0.065 A 
ATOM     11  C   UNL     1       3.510  -5.934  -0.552  0.00  0.00    +0.266 A 
ATOM     12  O   UNL     1       3.958  -7.040  -0.793  0.00  0.00    -0.267 OA
ATOM     13  N   UNL     1       3.578  -4.935  -1.463  0.00  0.00    -0.260 N 
BRANCH  13  14
ATOM     14  C   UNL     1       4.174  -5.170  -2.709  0.00  0.00    +0.086 A 
ATOM     15  C   UNL     1       5.517  -4.879  -2.904  0.00  0.00    +0.029 A 
ATOM     16  C   UNL     1       6.102  -5.112  -4.134  0.00  0.00    +0.002 A 
ATOM     17  C   UNL     1       5.352  -5.636  -5.171  0.00  0.00    +0.003 A 
ATOM     18  C   UNL     1       4.014  -5.927  -4.982  0.00  0.00    +0.040 A 
ATOM     19  C   UNL     1       3.423  -5.702  -3.752  0.00  0.00    +0.147 A 
ATOM     20  F   UNL     1       2.117  -5.993  -3.565  0.00  0.00    -0.203 F 
ENDBRANCH  13  14
ENDBRANCH   1   3
BRANCH   1  21
ATOM     21  N   UNL     1       1.845  -2.260  -2.690  0.00  0.00    -0.276 N 
ATOM     22  C   UNL     1       1.518  -2.408  -3.989  0.00  0.00    +0.303 C 
ATOM     23  O   UNL     1       2.336  -2.846  -4.776  0.00  0.00    -0.253 OA
ATOM     24  N   UNL     1       0.285  -2.072  -4.416  0.00  0.00    -0.294 N 
ATOM     25  H   UNL     1      -0.367  -1.723  -3.789  0.00  0.00    +0.151 HD
BRANCH  24  26
ATOM     26  C   UNL     1      -0.071  -2.233  -5.828  0.00  0.00    +0.037 C 
ATOM     27  C   UNL     1       0.864  -1.382  -6.690  0.00  0.00    +0.029 C 
ATOM     28  C   UNL     1       0.492  -1.550  -8.165  0.00  0.00    -0.008 C 
ATOM     29  C   UNL     1      -0.954  -1.099  -8.381  0.00  0.00    +0.007 C 
ATOM     30  C   UNL     1      -1.888  -1.950  -7.520  0.00  0.00    -0.008 C 
ATOM     31  C   UNL     1      -1.517  -1.782  -6.045  0.00  0.00    +0.029 C 
ATOM     32  C   UNL     1      -1.748  -3.421  -7.916  0.00  0.00    +0.007 C 
ATOM     33  C   UNL     1      -0.302  -3.873  -7.699  0.00  0.00    -0.008 C 
ATOM     34  C   UNL     1       0.632  -3.021  -8.561  0.00  0.00    +0.007 C 
ATOM     35  C   UNL     1       0.069  -3.704  -6.225  0.00  0.00    +0.029 C 
ENDBRANCH  24  26
BRANCH  21  36
ATOM     36  C   UNL     1       0.860  -1.733  -1.742  0.00  0.00    +0.110 C 
BRANCH  36  37
ATOM     37  C   UNL     1       0.976  -0.209  -1.681  0.00  0.00    +0.019 C 
BRANCH  37  39
ATOM     38  C   UNL     1       0.063   1.866  -0.630  0.00  0.00    +0.004 C 
ATOM     39  C   UNL     1      -0.052   0.341  -0.691  0.00  0.00    -0.002 C 
ENDBRANCH  37  39
ENDBRANCH  36  37
ENDBRANCH  21  36
ENDBRANCH   1  21
TORSDOF 7
