REMARK  Name = ZINC00659725
REMARK  7 active torsions:
REMARK  status: ('A' for Active; 'I' for Inactive)
REMARK    1  A    between atoms: C_1  and  O_2
REMARK    2  A    between atoms: O_2  and  C_3
REMARK    3  A    between atoms: C_5  and  C_11
REMARK    4  A    between atoms: C_8  and  O_9
REMARK    5  A    between atoms: N_19  and  C_27
REMARK    6  A    between atoms: C_27  and  C_28
REMARK    7  A    between atoms: C_28  and  C_29
REMARK                            x       y       z     vdW  Elec       q    Type
REMARK                         _______ _______ _______ _____ _____    ______ ____
ROOT
ATOM      1  C   UNL     1      -2.574   4.678  -0.031  0.00  0.00    +0.089 C 
ATOM      2  C   UNL     1      -3.235   4.251   1.254  0.00  0.00    +0.024 C 
ATOM      3  C   UNL     1      -4.238   3.350   1.243  0.00  0.00    +0.018 C 
ATOM      4  C   UNL     1      -4.910   2.917   2.522  0.00  0.00    +0.052 C 
ATOM      5  C   UNL     1      -3.911   2.983   3.675  0.00  0.00    +0.014 C 
ATOM      6  C   UNL     1      -3.384   4.418   3.779  0.00  0.00    +0.080 C 
ATOM      7  C   UNL     1      -2.779   4.814   2.459  0.00  0.00    +0.162 C 
ATOM      8  O   UNL     1      -1.883   5.634   2.434  0.00  0.00    -0.292 OA
ATOM      9  N   UNL     1      -4.667   2.814   0.060  0.00  0.00    -0.306 N 
ATOM     10  C   UNL     1      -4.440   3.462  -1.124  0.00  0.00    +0.018 C 
ATOM     11  C   UNL     1      -3.445   4.368  -1.221  0.00  0.00    +0.024 C 
ATOM     12  C   UNL     1      -3.194   5.043  -2.428  0.00  0.00    +0.162 C 
ATOM     13  O   UNL     1      -2.297   5.862  -2.479  0.00  0.00    -0.292 OA
ATOM     14  C   UNL     1      -4.016   4.771  -3.658  0.00  0.00    +0.080 C 
ATOM     15  C   UNL     1      -4.533   3.329  -3.602  0.00  0.00    +0.014 C 
ATOM     16  C   UNL     1      -5.323   3.146  -2.304  0.00  0.00    +0.052 C 
ENDROOT
BRANCH   1  19
ATOM     17  C   UNL     1       1.126   3.997  -0.378  0.00  0.00    +0.163 A 
ATOM     18  C   UNL     1      -0.081   4.665  -0.244  0.00  0.00    +0.054 A 
ATOM     19  C   UNL     1      -1.262   3.950  -0.177  0.00  0.00    -0.031 A 
ATOM     20  C   UNL     1      -1.244   2.569  -0.249  0.00  0.00    +0.023 A 
ATOM     21  C   UNL     1      -0.042   1.897  -0.378  0.00  0.00    +0.063 A 
ATOM     22  C   UNL     1       1.146   2.608  -0.446  0.00  0.00    +0.173 A 
ATOM     23 BR   UNL     1      -0.020   0.008  -0.469  0.00  0.00    -0.046 Br
BRANCH  17  25
ATOM     24  C   UNL     1       2.192   6.123  -0.369  0.00  0.00    +0.277 C 
ATOM     25  O   UNL     1       2.289   4.699  -0.445  0.00  0.00    -0.491 OA
ENDBRANCH  17  25
BRANCH  22  26
ATOM     26  O   UNL     1       2.329   1.949  -0.577  0.00  0.00    -0.503 OA
ATOM     27  H   UNL     1       2.596   1.799  -1.494  0.00  0.00    +0.292 HD
ENDBRANCH  22  26
ENDBRANCH   1  19
BRANCH   9  28
ATOM     28  C   UNL     1      -5.377   1.533   0.060  0.00  0.00    +0.115 C 
BRANCH  28  29
ATOM     29  C   UNL     1      -6.880   1.783   0.201  0.00  0.00    +0.054 C 
BRANCH  29  30
ATOM     30  C   UNL     1      -7.611   0.465   0.202  0.00  0.00    -0.046 A 
ATOM     31  C   UNL     1      -8.053  -0.081  -0.989  0.00  0.00    +0.004 A 
ATOM     32  C   UNL     1      -8.719  -1.292  -0.989  0.00  0.00    +0.000 A 
ATOM     33  C   UNL     1      -8.951  -1.953   0.203  0.00  0.00    +0.000 A 
ATOM     34  C   UNL     1      -8.514  -1.405   1.394  0.00  0.00    +0.000 A 
ATOM     35  C   UNL     1      -7.843  -0.196   1.393  0.00  0.00    +0.004 A 
ENDBRANCH  29  30
ENDBRANCH  28  29
ENDBRANCH   9  28
TORSDOF 6
