REMARK  Name = ZINC05595836
REMARK  13 active torsions:
REMARK  status: ('A' for Active; 'I' for Inactive)
REMARK    1  A    between atoms: C_1  and  C_2
REMARK    2  A    between atoms: C_5  and  C_7
REMARK    3  A    between atoms: C_10  and  C_11
REMARK    4  A    between atoms: C_10  and  O_21
REMARK    5  A    between atoms: C_14  and  O_17
REMARK    6  A    between atoms: O_17  and  C_18
REMARK    7  A    between atoms: C_18  and  C_19
REMARK    8  A    between atoms: C_18  and  C_20
REMARK    9  A    between atoms: N_26  and  C_27
REMARK   10  A    between atoms: C_27  and  C_28
REMARK   11  A    between atoms: C_28  and  N_58
REMARK   12  A    between atoms: C_29  and  N_58
REMARK   13  A    between atoms: C_30  and  N_58
REMARK                            x       y       z     vdW  Elec       q    Type
REMARK                         _______ _______ _______ _____ _____    ______ ____
ROOT
ATOM      1  C   UNL     1       6.274  -0.491  -0.048  0.00  0.00    +0.180 C 
ATOM      2  C   UNL     1       4.863   0.040   0.052  0.00  0.00    +0.074 C 
ATOM      3  C   UNL     1       3.693  -0.689  -0.038  0.00  0.00    +0.133 C 
ATOM      4  C   UNL     1       4.980   1.423   0.259  0.00  0.00    +0.249 C 
ATOM      5  O   UNL     1       4.057   2.205   0.394  0.00  0.00    -0.282 OA
ATOM      6  C   UNL     1       6.427   1.767   0.287  0.00  0.00    +0.288 C 
ATOM      7  O   UNL     1       6.874   2.884   0.448  0.00  0.00    -0.266 OA
ATOM      8  N   UNL     1       7.168   0.660   0.106  0.00  0.00    -0.282 N 
ENDROOT
BRANCH   1  13
ATOM      9  C   UNL     1       7.143  -1.042  -4.985  0.00  0.00    +0.086 C 
ATOM     10  C   UNL     1       6.868  -1.372  -3.541  0.00  0.00    +0.102 A 
ATOM     11  C   UNL     1       6.725  -2.608  -3.030  0.00  0.00    +0.045 A 
ATOM     12  C   UNL     1       6.487  -2.454  -1.645  0.00  0.00    +0.047 A 
ATOM     13  C   UNL     1       6.490  -1.133  -1.394  0.00  0.00    +0.130 A 
ATOM     14  O   UNL     1       6.725  -0.482  -2.545  0.00  0.00    -0.463 OA
ENDBRANCH   1  13
BRANCH   3  15
ATOM     15  C   UNL     1       2.395   0.002  -0.064  0.00  0.00    +0.017 A 
ATOM     16  C   UNL     1       2.181   1.062  -0.954  0.00  0.00    +0.015 A 
ATOM     17  C   UNL     1       0.965   1.705  -0.975  0.00  0.00    +0.046 A 
ATOM     18  C   UNL     1      -0.051   1.305  -0.114  0.00  0.00    +0.121 A 
ATOM     19  C   UNL     1       0.156   0.253   0.772  0.00  0.00    +0.046 A 
ATOM     20  C   UNL     1       1.369  -0.397   0.801  0.00  0.00    +0.015 A 
BRANCH  18  21
ATOM     21  O   UNL     1      -1.247   1.946  -0.134  0.00  0.00    -0.489 OA
BRANCH  21  22
ATOM     22  C   UNL     1      -1.353   3.095  -0.978  0.00  0.00    +0.167 C 
ATOM     23  C   UNL     1      -1.700   2.652  -2.401  0.00  0.00    +0.051 C 
ATOM     24  C   UNL     1      -2.452   4.017  -0.448  0.00  0.00    +0.051 C 
ENDBRANCH  21  22
ENDBRANCH  18  21
ENDBRANCH   3  15
BRANCH   3  25
ATOM     25  O   UNL     1       3.741  -2.037  -0.102  0.00  0.00    -0.506 OA
ATOM     26  H   UNL     1       2.812  -2.401  -0.163  0.00  0.00    +0.292 HD
ENDBRANCH   3  25
BRANCH   8  27
ATOM     27  C   UNL     1       8.632   0.612   0.074  0.00  0.00    +0.091 C 
BRANCH  27  28
ATOM     28  C   UNL     1       9.165   0.379   1.489  0.00  0.00    -0.060 C 
BRANCH  28  31
ATOM     29  C   UNL     1      11.195   1.634   1.082  0.00  0.00    -0.097 C 
ATOM     30  C   UNL     1      11.173  -0.125   2.745  0.00  0.00    -0.097 C 
ATOM     31  N   UNL     1      10.641   0.311   1.437  0.00  0.00    +0.377 N 
ATOM     32  H   UNL     1      10.918  -0.370   0.720  0.00  0.00    -0.083 HD
ENDBRANCH  28  31
ENDBRANCH  27  28
ENDBRANCH   8  27
TORSDOF 8
