REMARK  Name = ZINC37264120
REMARK  13 active torsions:
REMARK  status: ('A' for Active; 'I' for Inactive)
REMARK    1  A    between atoms: C_1  and  C_2
REMARK    2  A    between atoms: C_2  and  C_3
REMARK    3  A    between atoms: C_2  and  N_4
REMARK    4  A    between atoms: C_5  and  C_7
REMARK    5  A    between atoms: C_7  and  N_8
REMARK    6  A    between atoms: C_11  and  C_22
REMARK    7  A    between atoms: N_13  and  C_14
REMARK    8  A    between atoms: C_17  and  O_20
REMARK    9  A    between atoms: O_20  and  C_21
REMARK   10  A    between atoms: C_22  and  C_23
REMARK   11  A    between atoms: C_22  and  C_24
REMARK   12  A    between atoms: C_22  and  C_25
REMARK   13  A    between atoms: C_26  and  C_32
REMARK                            x       y       z     vdW  Elec       q    Type
REMARK                         _______ _______ _______ _____ _____    ______ ____
ROOT
ATOM      1  N   UNL     1      -3.645  -1.104  -3.074  0.00  0.00    -0.246 N 
ATOM      2  C   UNL     1      -3.803  -2.287  -3.813  0.00  0.00    +0.136 A 
ATOM      3  C   UNL     1      -2.778  -3.097  -4.165  0.00  0.00    +0.034 A 
ATOM      4  C   UNL     1      -3.307  -4.172  -4.880  0.00  0.00    +0.075 A 
ATOM      5  N   UNL     1      -4.607  -4.012  -4.958  0.00  0.00    -0.169 NA
ATOM      6  N   UNL     1      -4.949  -2.824  -4.293  0.00  0.00    -0.218 N 
ATOM      7  C   UNL     1      -1.329  -2.848  -3.831  0.00  0.00    +0.112 C 
ATOM      8  S   UNL     1      -1.076  -3.179  -2.050  0.00  0.00    -0.138 S 
ATOM      9  C   UNL     1      -2.579  -2.454  -1.315  0.00  0.00    +0.166 C 
ATOM     10  C   UNL     1      -2.902  -1.141  -1.964  0.00  0.00    +0.231 C 
ATOM     11  O   UNL     1      -2.490  -0.108  -1.478  0.00  0.00    -0.274 OA
ENDROOT
BRANCH   7  12
ATOM     12  C   UNL     1      -0.456  -3.764  -4.649  0.00  0.00    -0.027 A 
ATOM     13  C   UNL     1      -0.025  -3.370  -5.903  0.00  0.00    +0.005 A 
ATOM     14  C   UNL     1       0.775  -4.209  -6.655  0.00  0.00    +0.003 A 
ATOM     15  C   UNL     1       1.146  -5.443  -6.154  0.00  0.00    +0.038 A 
ATOM     16  C   UNL     1       0.715  -5.838  -4.899  0.00  0.00    +0.124 A 
ATOM     17  C   UNL     1      -0.082  -4.994  -4.144  0.00  0.00    +0.043 A 
ATOM     18  F   UNL     1       1.077  -7.044  -4.409  0.00  0.00    -0.205 F 
ENDBRANCH   7  12
BRANCH   6  19
ATOM     19  C   UNL     1      -6.239  -2.293  -4.151  0.00  0.00    +0.068 A 
ATOM     20  C   UNL     1      -6.588  -1.617  -2.989  0.00  0.00    +0.031 A 
ATOM     21  C   UNL     1      -7.858  -1.094  -2.850  0.00  0.00    +0.048 A 
ATOM     22  C   UNL     1      -8.786  -1.243  -3.871  0.00  0.00    +0.120 A 
ATOM     23  C   UNL     1      -8.438  -1.918  -5.032  0.00  0.00    +0.048 A 
ATOM     24  C   UNL     1      -7.166  -2.437  -5.174  0.00  0.00    +0.031 A 
BRANCH  22  25
ATOM     25  O   UNL     1     -10.036  -0.728  -3.733  0.00  0.00    -0.495 OA
ATOM     26  C   UNL     1     -10.940  -0.919  -4.824  0.00  0.00    +0.277 C 
ENDBRANCH  22  25
ENDBRANCH   6  19
BRANCH   4  27
ATOM     27  C   UNL     1      -2.522  -5.319  -5.462  0.00  0.00    +0.007 C 
ATOM     28  C   UNL     1      -1.841  -6.096  -4.333  0.00  0.00    +0.017 C 
ATOM     29  C   UNL     1      -3.467  -6.250  -6.224  0.00  0.00    +0.017 C 
ATOM     30  C   UNL     1      -1.460  -4.775  -6.420  0.00  0.00    +0.017 C 
ENDBRANCH   4  27
BRANCH   1  31
ATOM     31  C   UNL     1      -4.276   0.143  -3.513  0.00  0.00    +0.210 C 
BRANCH  31  33
ATOM     32  N   UNL     1      -3.707   2.070  -4.956  0.00  0.00    -0.312 N 
ATOM     33  C   UNL     1      -3.336   0.887  -4.427  0.00  0.00    +0.231 C 
ATOM     34  O   UNL     1      -2.247   0.421  -4.686  0.00  0.00    -0.274 OA
ATOM     35  H   UNL     1      -4.578   2.442  -4.749  0.00  0.00    +0.149 HD
BRANCH  32  37
ATOM     36  C   UNL     1      -3.599   3.707  -6.770  0.00  0.00    +0.027 C 
ATOM     37  C   UNL     1      -2.793   2.793  -5.845  0.00  0.00    +0.067 C 
ATOM     38  C   UNL     1      -1.828   3.635  -5.008  0.00  0.00    +0.027 C 
ENDBRANCH  32  37
ENDBRANCH  31  33
ENDBRANCH   1  31
TORSDOF 7
