REMARK  Name = ZINC17014925
REMARK  8 active torsions:
REMARK  status: ('A' for Active; 'I' for Inactive)
REMARK    1  A    between atoms: C_1  and  C_2
REMARK    2  A    between atoms: C_4  and  O_40
REMARK    3  A    between atoms: C_5  and  C_9
REMARK    4  A    between atoms: N_17  and  C_33
REMARK    5  A    between atoms: C_18  and  C_20
REMARK    6  A    between atoms: C_24  and  O_26
REMARK    7  A    between atoms: O_26  and  C_27
REMARK    8  A    between atoms: C_33  and  C_34
REMARK                            x       y       z     vdW  Elec       q    Type
REMARK                         _______ _______ _______ _____ _____    ______ ____
ROOT
ATOM      1  C   UNL     1       0.328  -4.780   0.008  0.00  0.00    +0.102 A 
ATOM      2  C   UNL     1       0.299  -5.417   1.253  0.00  0.00    +0.035 A 
ATOM      3  C   UNL     1       0.236  -6.770   0.982  0.00  0.00    +0.126 A 
ATOM      4  N   UNL     1       0.231  -6.885  -0.379  0.00  0.00    -0.272 N 
ATOM      5  H   UNL     1       0.192  -7.722  -0.868  0.00  0.00    +0.189 HD
ATOM      6  N   UNL     1       0.279  -5.718  -0.917  0.00  0.00    -0.173 NA
ATOM      7  C   UNL     1       0.201  -7.500   2.254  0.00  0.00    +0.266 C 
ATOM      8  O   UNL     1       0.146  -8.710   2.359  0.00  0.00    -0.268 OA
ATOM      9  N   UNL     1       0.241  -6.640   3.288  0.00  0.00    -0.281 N 
ATOM     10  C   UNL     1       0.305  -5.275   2.750  0.00  0.00    +0.142 C 
ENDROOT
BRANCH   1  15
ATOM     11  C   UNL     1       0.588   0.904  -0.910  0.00  0.00    +0.045 C 
ATOM     12  C   UNL     1       0.522  -0.582  -0.672  0.00  0.00    -0.029 A 
ATOM     13  C   UNL     1       1.367  -1.428  -1.365  0.00  0.00    +0.050 A 
ATOM     14  C   UNL     1       1.310  -2.796  -1.149  0.00  0.00    +0.126 A 
ATOM     15  C   UNL     1       0.396  -3.316  -0.229  0.00  0.00    +0.045 A 
ATOM     16  C   UNL     1      -0.451  -2.456   0.465  0.00  0.00    +0.034 A 
ATOM     17  C   UNL     1      -0.381  -1.094   0.245  0.00  0.00    +0.045 A 
ATOM     18 CL   UNL     1      -1.433  -0.021   1.114  0.00  0.00    -0.083 Cl
BRANCH  14  19
ATOM     19  O   UNL     1       2.141  -3.628  -1.830  0.00  0.00    -0.506 OA
ATOM     20  H   UNL     1       2.983  -3.793  -1.386  0.00  0.00    +0.292 HD
ENDBRANCH  14  19
ENDBRANCH   1  15
BRANCH  10  21
ATOM     21  C   UNL     1       1.573  -4.598   3.202  0.00  0.00    -0.019 A 
ATOM     22  C   UNL     1       2.788  -5.243   3.061  0.00  0.00    +0.006 A 
ATOM     23  C   UNL     1       3.954  -4.624   3.474  0.00  0.00    +0.004 A 
ATOM     24  C   UNL     1       3.907  -3.360   4.030  0.00  0.00    +0.046 A 
ATOM     25  C   UNL     1       2.689  -2.711   4.172  0.00  0.00    +0.129 A 
ATOM     26  C   UNL     1       1.521  -3.332   3.752  0.00  0.00    +0.052 A 
BRANCH  25  27
ATOM     27  O   UNL     1       2.640  -1.468   4.718  0.00  0.00    -0.456 OA
BRANCH  27  28
ATOM     28  C   UNL     1       3.815  -0.856   5.018  0.00  0.00    +0.128 A 
ATOM     29  C   UNL     1       4.660  -0.435   4.000  0.00  0.00    +0.046 A 
ATOM     30  C   UNL     1       5.854   0.186   4.308  0.00  0.00    +0.004 A 
ATOM     31  C   UNL     1       6.209   0.389   5.628  0.00  0.00    +0.000 A 
ATOM     32  C   UNL     1       5.370  -0.029   6.645  0.00  0.00    +0.004 A 
ATOM     33  C   UNL     1       4.171  -0.645   6.343  0.00  0.00    +0.046 A 
ENDBRANCH  27  28
ENDBRANCH  25  27
ENDBRANCH  10  21
BRANCH   9  34
ATOM     34  C   UNL     1       0.223  -7.004   4.707  0.00  0.00    +0.145 C 
BRANCH  34  35
ATOM     35  C   UNL     1       1.636  -7.194   5.195  0.00  0.00    -0.012 A 
ATOM     36  C   UNL     1       2.243  -8.438   5.120  0.00  0.00    +0.008 A 
ATOM     37  C   UNL     1       3.544  -8.566   5.581  0.00  0.00    +0.020 A 
ATOM     38  C   UNL     1       4.189  -7.457   6.096  0.00  0.00    +0.111 A 
ATOM     39  N   UNL     1       3.580  -6.289   6.152  0.00  0.00    -0.263 NA
ATOM     40  C   UNL     1       2.345  -6.129   5.718  0.00  0.00    +0.115 A 
ENDBRANCH  34  35
ENDBRANCH   9  34
TORSDOF 7
