REMARK  Name = ZINC29923631
REMARK  11 active torsions:
REMARK  status: ('A' for Active; 'I' for Inactive)
REMARK    1  A    between atoms: C_1  and  C_2
REMARK    2  A    between atoms: C_8  and  N_10
REMARK    3  A    between atoms: N_10  and  C_11
REMARK    4  A    between atoms: C_11  and  N_13
REMARK    5  A    between atoms: N_13  and  N_14
REMARK    6  A    between atoms: C_15  and  C_17
REMARK    7  A    between atoms: C_20  and  S_23
REMARK    8  A    between atoms: S_23  and  N_26
REMARK    9  A    between atoms: N_26  and  C_27
REMARK   10  A    between atoms: C_32  and  O_33
REMARK   11  A    between atoms: O_33  and  C_34
REMARK                            x       y       z     vdW  Elec       q    Type
REMARK                         _______ _______ _______ _____ _____    ______ ____
ROOT
ATOM      1  C   UNL     1       6.912   1.591  -0.130  0.00  0.00    +0.038 A 
ATOM      2  C   UNL     1       6.164   1.454  -1.300  0.00  0.00    +0.015 A 
ATOM      3  C   UNL     1       6.696   1.860  -2.506  0.00  0.00    +0.029 A 
ATOM      4  C   UNL     1       7.968   2.401  -2.558  0.00  0.00    +0.109 A 
ATOM      5  C   UNL     1       8.715   2.539  -1.402  0.00  0.00    +0.029 A 
ATOM      6  C   UNL     1       8.192   2.143  -0.188  0.00  0.00    +0.015 A 
ENDROOT
BRANCH   1   8
ATOM      7  N   UNL     1       5.111   0.626   1.220  0.00  0.00    -0.231 N 
ATOM      8  C   UNL     1       6.348   1.159   1.167  0.00  0.00    +0.260 C 
ATOM      9  O   UNL     1       7.000   1.284   2.185  0.00  0.00    -0.269 OA
ATOM     10  H   UNL     1       4.591   0.526   0.407  0.00  0.00    +0.173 HD
BRANCH   7  11
ATOM     11  N   UNL     1       4.577   0.216   2.448  0.00  0.00    -0.246 N 
ATOM     12  H   UNL     1       5.097   0.316   3.261  0.00  0.00    +0.172 HD
BRANCH  11  13
ATOM     13  C   UNL     1       3.340  -0.317   2.501  0.00  0.00    +0.147 C 
ATOM     14  S   UNL     1       2.687  -0.817   4.003  0.00  0.00    -0.017 S 
BRANCH  13  15
ATOM     15  N   UNL     1       2.617  -0.456   1.372  0.00  0.00    -0.322 N 
ATOM     16  H   UNL     1       2.987  -0.172   0.522  0.00  0.00    +0.148 HD
BRANCH  15  23
ATOM     17  C   UNL     1       0.352   0.988   0.288  0.00  0.00    +0.009 C 
ATOM     18  C   UNL     1       0.452  -0.538   0.238  0.00  0.00    +0.006 C 
ATOM     19  C   UNL     1      -0.952  -1.143   0.298  0.00  0.00    +0.005 C 
ATOM     20  C   UNL     1      -0.852  -2.669   0.248  0.00  0.00    +0.000 C 
ATOM     21  C   UNL     1      -0.032  -3.166   1.439  0.00  0.00    +0.002 C 
ATOM     22  C   UNL     1       1.373  -2.561   1.379  0.00  0.00    +0.022 C 
ATOM     23  C   UNL     1       1.273  -1.035   1.430  0.00  0.00    +0.075 C 
ENDBRANCH  15  23
ENDBRANCH  13  15
ENDBRANCH  11  13
ENDBRANCH   7  11
ENDBRANCH   1   8
BRANCH   4  24
ATOM     24  S   UNL     1       8.640   2.916  -4.103  0.00  0.00    +0.072 S 
ATOM     25  O   UNL     1      10.053   2.885  -3.962  0.00  0.00    -0.150 OA
ATOM     26  O   UNL     1       7.958   2.179  -5.109  0.00  0.00    -0.150 OA
BRANCH  24  27
ATOM     27  N   UNL     1       8.220   4.504  -4.315  0.00  0.00    -0.213 N 
ATOM     28  H   UNL     1       7.680   4.766  -5.076  0.00  0.00    +0.174 HD
BRANCH  27  29
ATOM     29  C   UNL     1       8.646   5.469  -3.394  0.00  0.00    +0.090 A 
ATOM     30  C   UNL     1       9.893   5.358  -2.797  0.00  0.00    +0.028 A 
ATOM     31  C   UNL     1      10.312   6.313  -1.889  0.00  0.00    +0.002 A 
ATOM     32  C   UNL     1       9.489   7.378  -1.573  0.00  0.00    +0.004 A 
ATOM     33  C   UNL     1       8.245   7.495  -2.164  0.00  0.00    +0.047 A 
ATOM     34  C   UNL     1       7.820   6.546  -3.079  0.00  0.00    +0.142 A 
BRANCH  34  35
ATOM     35  O   UNL     1       6.598   6.662  -3.665  0.00  0.00    -0.493 OA
ATOM     36  C   UNL     1       5.806   7.792  -3.293  0.00  0.00    +0.277 C 
ENDBRANCH  34  35
ENDBRANCH  27  29
ENDBRANCH  24  27
ENDBRANCH   4  24
TORSDOF 9
