REMARK  Name = ZINC39688082
REMARK  5 active torsions:
REMARK  status: ('A' for Active; 'I' for Inactive)
REMARK    1  A    between atoms: C_1  and  C_2
REMARK    2  A    between atoms: C_7  and  N_10
REMARK    3  A    between atoms: C_11  and  C_13
REMARK    4  A    between atoms: C_24  and  C_26
REMARK    5  A    between atoms: C_29  and  C_31
REMARK                            x       y       z     vdW  Elec       q    Type
REMARK                         _______ _______ _______ _____ _____    ______ ____
ROOT
ATOM      1  C   UNL     1      -5.776  -4.209  -3.128  0.00  0.00    +0.100 C 
ATOM      2  C   UNL     1      -7.016  -3.303  -3.305  0.00  0.00    +0.121 C 
ATOM      3  N   UNL     1      -8.117  -4.237  -3.639  0.00  0.00    -0.294 N 
ATOM      4  C   UNL     1      -7.877  -5.415  -2.772  0.00  0.00    +0.115 C 
ATOM      5  C   UNL     1      -6.346  -5.594  -2.778  0.00  0.00    -0.004 C 
ATOM      6  C   UNL     1      -5.861  -6.031  -1.399  0.00  0.00    -0.010 C 
ATOM      7  C   UNL     1      -6.392  -7.435  -1.098  0.00  0.00    -0.082 C 
ATOM      8  N   UNL     1      -5.918  -8.371  -2.124  0.00  0.00    +0.379 N 
ATOM      9  C   UNL     1      -6.465  -7.996  -3.434  0.00  0.00    -0.082 C 
ATOM     10  C   UNL     1      -5.937  -6.616  -3.834  0.00  0.00    -0.010 C 
ATOM     11  C   UNL     1      -9.112  -4.056  -4.530  0.00  0.00    +0.282 C 
ATOM     12  O   UNL     1      -9.949  -4.924  -4.693  0.00  0.00    -0.267 OA
ATOM     13  H   UNL     1      -4.910  -8.344  -2.162  0.00  0.00    -0.086 HD
ATOM     14  H   UNL     1      -6.218  -9.305  -1.891  0.00  0.00    -0.086 HD
ENDROOT
BRANCH  11  15
ATOM     15  C   UNL     1      -9.185  -2.813  -5.304  0.00  0.00    +0.190 A 
ATOM     16  C   UNL     1     -10.147  -2.498  -6.239  0.00  0.00    +0.055 A 
ATOM     17  C   UNL     1      -9.833  -1.226  -6.726  0.00  0.00    +0.050 A 
ATOM     18  C   UNL     1      -8.704  -0.814  -6.079  0.00  0.00    +0.136 A 
ATOM     19  O   UNL     1      -8.326  -1.776  -5.220  0.00  0.00    -0.450 OA
BRANCH  18  20
ATOM     20  C   UNL     1      -8.015   0.476  -6.284  0.00  0.00    +0.017 A 
ATOM     21  C   UNL     1      -8.517   1.401  -7.202  0.00  0.00    +0.011 A 
ATOM     22  C   UNL     1      -7.870   2.604  -7.388  0.00  0.00    +0.001 A 
ATOM     23  C   UNL     1      -6.725   2.896  -6.668  0.00  0.00    +0.000 A 
ATOM     24  C   UNL     1      -6.222   1.985  -5.756  0.00  0.00    +0.001 A 
ATOM     25  C   UNL     1      -6.863   0.780  -5.556  0.00  0.00    +0.011 A 
ENDBRANCH  18  20
ENDBRANCH  11  15
BRANCH   1  27
ATOM     26  N   UNL     1      -3.580  -3.920  -2.026  0.00  0.00    -0.312 N 
ATOM     27  C   UNL     1      -4.910  -3.699  -2.006  0.00  0.00    +0.218 C 
ATOM     28  O   UNL     1      -5.408  -3.088  -1.084  0.00  0.00    -0.275 OA
ATOM     29  H   UNL     1      -3.182  -4.408  -2.764  0.00  0.00    +0.149 HD
BRANCH  26  36
ATOM     30  C   UNL     1       1.917  -3.741   0.899  0.00  0.00    +0.109 C 
ATOM     31  C   UNL     1       0.551  -4.088   1.434  0.00  0.00    +0.212 C 
ATOM     32  O   UNL     1       0.444  -4.828   2.388  0.00  0.00    -0.276 OA
ATOM     33  N   UNL     1      -0.550  -3.575   0.851  0.00  0.00    -0.302 N 
ATOM     34  C   UNL     1      -0.437  -2.681  -0.309  0.00  0.00    +0.109 C 
ATOM     35  C   UNL     1      -1.307  -3.232  -1.443  0.00  0.00    +0.041 C 
ATOM     36  C   UNL     1      -2.738  -3.424  -0.935  0.00  0.00    +0.076 C 
ATOM     37  C   UNL     1      -2.742  -4.436   0.212  0.00  0.00    +0.041 C 
ATOM     38  C   UNL     1      -1.889  -3.904   1.361  0.00  0.00    +0.109 C 
ENDBRANCH  26  36
ENDBRANCH   1  27
TORSDOF 4
