REMARK  Name = ZINC11869667
REMARK  8 active torsions:
REMARK  status: ('A' for Active; 'I' for Inactive)
REMARK    1  A    between atoms: C_4  and  O_7
REMARK    2  A    between atoms: O_7  and  C_8
REMARK    3  A    between atoms: C_8  and  C_9
REMARK    4  A    between atoms: N_11  and  C_12
REMARK    5  A    between atoms: C_12  and  C_13
REMARK    6  A    between atoms: C_13  and  C_14
REMARK    7  A    between atoms: C_23  and  C_24
REMARK    8  A    between atoms: C_23  and  N_63
REMARK                            x       y       z     vdW  Elec       q    Type
REMARK                         _______ _______ _______ _____ _____    ______ ____
ROOT
ATOM      1  C   UNL     1       0.090   0.274   0.085  0.00  0.00    +0.135 A 
ATOM      2  N   UNL     1       0.137   1.577   0.177  0.00  0.00    -0.134 NA
ATOM      3  N   UNL     1       1.364   1.968   0.202  0.00  0.00    -0.134 NA
ATOM      4  C   UNL     1       2.151   0.934   0.134  0.00  0.00    +0.132 A 
ATOM      5  N   UNL     1       1.365  -0.167   0.043  0.00  0.00    -0.317 N 
ATOM      6  C   UNL     1       1.832  -1.548  -0.089  0.00  0.00    +0.106 C 
ATOM      7  C   UNL     1       3.213  -1.677   0.559  0.00  0.00    -0.056 C 
ATOM      8  C   UNL     1       4.164  -0.013  -0.941  0.00  0.00    -0.071 C 
ATOM      9  C   UNL     1       3.657   0.918   0.164  0.00  0.00    +0.058 C 
ATOM     10  N   UNL     1       4.257  -1.408  -0.456  0.00  0.00    +0.384 N 
ATOM     11  H   UNL     1       4.118  -2.045  -1.250  0.00  0.00    -0.081 HD
ENDROOT
BRANCH   1  12
ATOM     12  C   UNL     1      -1.153  -0.576   0.034  0.00  0.00    +0.095 C 
BRANCH  12  13
ATOM     13  C   UNL     1      -1.585  -0.761  -1.422  0.00  0.00    +0.112 C 
BRANCH  13  16
ATOM     14  C   UNL     1      -3.359  -1.885  -2.658  0.00  0.00    +0.251 C 
ATOM     15  O   UNL     1      -2.866  -1.469  -3.685  0.00  0.00    -0.272 OA
ATOM     16  N   UNL     1      -2.794  -1.588  -1.471  0.00  0.00    -0.312 N 
ATOM     17  H   UNL     1      -3.187  -1.921  -0.650  0.00  0.00    +0.149 HD
BRANCH  14  18
ATOM     18  C   UNL     1      -4.602  -2.735  -2.709  0.00  0.00    +0.324 C 
BRANCH  18  19
ATOM     19  O   UNL     1      -5.005  -2.909  -4.069  0.00  0.00    -0.483 OA
BRANCH  19  23
ATOM     20  C   UNL     1      -8.384  -5.177  -4.745  0.00  0.00    +0.000 A 
ATOM     21  C   UNL     1      -7.699  -4.625  -5.812  0.00  0.00    +0.004 A 
ATOM     22  C   UNL     1      -6.567  -3.865  -5.588  0.00  0.00    +0.045 A 
ATOM     23  C   UNL     1      -6.118  -3.656  -4.292  0.00  0.00    +0.121 A 
ATOM     24  C   UNL     1      -6.805  -4.216  -3.224  0.00  0.00    +0.045 A 
ATOM     25  C   UNL     1      -7.939  -4.971  -3.453  0.00  0.00    +0.004 A 
ENDBRANCH  19  23
ENDBRANCH  18  19
ENDBRANCH  14  18
ENDBRANCH  13  16
ENDBRANCH  12  13
ENDBRANCH   1  12
BRANCH  10  26
ATOM     26  C   UNL     1       5.592  -1.649   0.120  0.00  0.00    -0.042 C 
BRANCH  26  27
ATOM     27  C   UNL     1       6.593  -1.719  -1.004  0.00  0.00    -0.056 A 
ATOM     28  C   UNL     1       7.464  -0.693  -1.209  0.00  0.00    +0.002 A 
ATOM     29  C   UNL     1       8.396  -0.739  -2.244  0.00  0.00    +0.001 A 
ATOM     30  C   UNL     1       8.464  -1.812  -3.079  0.00  0.00    +0.008 A 
ATOM     31  C   UNL     1       7.581  -2.890  -2.899  0.00  0.00    -0.018 A 
ATOM     32  C   UNL     1       6.636  -2.845  -1.843  0.00  0.00    -0.017 A 
ATOM     33  C   UNL     1       5.750  -3.921  -1.666  0.00  0.00    +0.009 A 
ATOM     34  C   UNL     1       5.817  -4.994  -2.501  0.00  0.00    +0.001 A 
ATOM     35  C   UNL     1       6.749  -5.040  -3.536  0.00  0.00    +0.001 A 
ATOM     36  C   UNL     1       7.620  -4.014  -3.741  0.00  0.00    +0.008 A 
ENDBRANCH  26  27
ENDBRANCH  10  26
TORSDOF 8
