REMARK  Name = ZINC40797457
REMARK  4 active torsions:
REMARK  status: ('A' for Active; 'I' for Inactive)
REMARK    1  A    between atoms: C_1  and  C_2
REMARK    2  A    between atoms: C_11  and  C_13
REMARK    3  A    between atoms: C_11  and  C_14
REMARK    4  A    between atoms: N_16  and  C_17
REMARK                            x       y       z     vdW  Elec       q    Type
REMARK                         _______ _______ _______ _____ _____    ______ ____
ROOT
ATOM      1  C   UNL     1       0.032   1.524   0.012  0.00  0.00    +0.044 C 
ATOM      2  C   UNL     1       0.040   0.017   0.003  0.00  0.00    -0.048 A 
ATOM      3  C   UNL     1       0.039  -0.665  -1.200  0.00  0.00    +0.007 A 
ATOM      4  C   UNL     1       0.041  -2.048  -1.216  0.00  0.00    +0.048 A 
ATOM      5  C   UNL     1       0.047  -2.752  -0.025  0.00  0.00    +0.144 A 
ATOM      6  C   UNL     1       0.059  -2.065   1.187  0.00  0.00    +0.076 A 
ATOM      7  C   UNL     1       0.054  -0.679   1.197  0.00  0.00    +0.030 A 
ATOM      8  N   UNL     1       0.099  -2.785   2.389  0.00  0.00    -0.279 N 
ATOM      9  C   UNL     1       0.345  -4.112   2.353  0.00  0.00    +0.270 C 
ATOM     10  O   UNL     1       0.276  -4.771   3.369  0.00  0.00    -0.271 OA
ATOM     11  C   UNL     1       0.705  -4.771   1.046  0.00  0.00    +0.258 C 
ATOM     12  O   UNL     1       0.030  -4.112  -0.028  0.00  0.00    -0.465 OA
ATOM     13  C   UNL     1       0.284  -6.242   1.085  0.00  0.00    +0.076 C 
ATOM     14  H   UNL     1      -0.047  -2.336   3.236  0.00  0.00    +0.155 HD
ENDROOT
BRANCH  11  15
ATOM     15  C   UNL     1       2.194  -4.682   0.833  0.00  0.00    +0.270 C 
ATOM     16  O   UNL     1       2.937  -4.572   1.785  0.00  0.00    -0.271 OA
ATOM     17  N   UNL     1       2.699  -4.724  -0.416  0.00  0.00    -0.281 N 
ATOM     18  H   UNL     1       2.114  -4.893  -1.171  0.00  0.00    +0.155 HD
BRANCH  17  19
ATOM     19  C   UNL     1       4.069  -4.526  -0.624  0.00  0.00    +0.048 A 
ATOM     20  C   UNL     1       4.815  -3.802   0.298  0.00  0.00    +0.024 A 
ATOM     21  C   UNL     1       6.166  -3.608   0.090  0.00  0.00    +0.002 A 
ATOM     22  C   UNL     1       6.778  -4.133  -1.034  0.00  0.00    +0.001 A 
ATOM     23  C   UNL     1       6.039  -4.854  -1.953  0.00  0.00    +0.017 A 
ATOM     24  C   UNL     1       4.687  -5.057  -1.749  0.00  0.00    +0.039 A 
ATOM     25 BR   UNL     1       3.679  -6.049  -3.003  0.00  0.00    -0.048 Br
ENDBRANCH  17  19
ENDBRANCH  11  15
TORSDOF 2
