REMARK  Name = ZINC12275240
REMARK  4 active torsions:
REMARK  status: ('A' for Active; 'I' for Inactive)
REMARK    1  A    between atoms: C_3  and  O_23
REMARK    2  A    between atoms: C_4  and  C_21
REMARK    3  A    between atoms: C_6  and  N_7
REMARK    4  A    between atoms: C_11  and  C_12
REMARK                            x       y       z     vdW  Elec       q    Type
REMARK                         _______ _______ _______ _____ _____    ______ ____
ROOT
ATOM      1  N   UNL     1      -0.103  -4.188  -0.027  0.00  0.00    -0.224 N 
ATOM      2  C   UNL     1      -0.191  -4.827  -1.181  0.00  0.00    +0.263 C 
ATOM      3  O   UNL     1      -0.379  -4.221  -2.221  0.00  0.00    -0.269 OA
ATOM      4  C   UNL     1      -0.058  -6.248  -1.171  0.00  0.00    +0.080 C 
ATOM      5  C   UNL     1      -0.108  -7.131  -2.210  0.00  0.00    +0.066 C 
ATOM      6  S   UNL     1       0.192  -6.556   0.572  0.00  0.00    -0.061 S 
ATOM      7  C   UNL     1       0.112  -4.859   1.126  0.00  0.00    +0.125 C 
ATOM      8  S   UNL     1       0.264  -4.242   2.715  0.00  0.00    -0.027 S 
ENDROOT
BRANCH   1  14
ATOM      9  C   UNL     1       0.736  -1.995  -0.610  0.00  0.00    +0.027 A 
ATOM     10  C   UNL     1       0.618  -0.620  -0.593  0.00  0.00    +0.048 A 
ATOM     11  C   UNL     1      -0.459  -0.021   0.043  0.00  0.00    +0.131 A 
ATOM     12  C   UNL     1      -1.435  -0.816   0.660  0.00  0.00    +0.106 A 
ATOM     13  C   UNL     1      -1.312  -2.207   0.633  0.00  0.00    +0.042 A 
ATOM     14  C   UNL     1      -0.229  -2.790   0.000  0.00  0.00    +0.044 A 
BRANCH  12  15
ATOM     15  C   UNL     1      -2.586  -0.187   1.333  0.00  0.00    +0.390 C 
ATOM     16  O   UNL     1      -2.691   1.023   1.354  0.00  0.00    -0.240 OA
ATOM     17  O   UNL     1      -3.523  -0.954   1.924  0.00  0.00    -0.240 OA
ENDBRANCH  12  15
BRANCH  11  18
ATOM     18  O   UNL     1      -0.571   1.331   0.064  0.00  0.00    -0.506 OA
ATOM     19  H   UNL     1      -0.147   1.750   0.825  0.00  0.00    +0.292 HD
ENDBRANCH  11  18
ENDBRANCH   1  14
BRANCH   5  20
ATOM     20  C   UNL     1      -0.136  -6.656  -3.541  0.00  0.00    +0.131 A 
ATOM     21  C   UNL     1      -0.319  -7.423  -4.675  0.00  0.00    +0.050 A 
ATOM     22  C   UNL     1      -0.278  -6.541  -5.764  0.00  0.00    +0.057 A 
ATOM     23  C   UNL     1      -0.069  -5.300  -5.267  0.00  0.00    +0.171 A 
ATOM     24  O   UNL     1       0.016  -5.373  -3.930  0.00  0.00    -0.449 OA
ATOM     25 BR   UNL     1       0.080  -3.717  -6.291  0.00  0.00    -0.008 Br
ENDBRANCH   5  20
TORSDOF 4
