REMARK  Name = ZINC39695791
REMARK  7 active torsions:
REMARK  status: ('A' for Active; 'I' for Inactive)
REMARK    1  A    between atoms: C_1  and  C_2
REMARK    2  A    between atoms: C_9  and  C_11
REMARK    3  A    between atoms: C_11  and  C_13
REMARK    4  A    between atoms: C_11  and  N_14
REMARK    5  A    between atoms: C_15  and  C_17
REMARK    6  A    between atoms: C_28  and  C_30
REMARK    7  A    between atoms: N_34  and  C_35
REMARK                            x       y       z     vdW  Elec       q    Type
REMARK                         _______ _______ _______ _____ _____    ______ ____
ROOT
ATOM      1  C   UNL     1      -2.243  -8.005   1.343  0.00  0.00    +0.100 C 
ATOM      2  C   UNL     1      -3.538  -7.806   0.523  0.00  0.00    +0.121 C 
ATOM      3  N   UNL     1      -4.100  -9.170   0.375  0.00  0.00    -0.295 N 
ATOM      4  C   UNL     1      -3.858  -9.813   1.688  0.00  0.00    +0.115 C 
ATOM      5  C   UNL     1      -2.457  -9.323   2.106  0.00  0.00    -0.004 C 
ATOM      6  C   UNL     1      -1.398 -10.345   1.704  0.00  0.00    -0.010 C 
ATOM      7  C   UNL     1      -1.597 -11.626   2.517  0.00  0.00    -0.082 C 
ATOM      8  N   UNL     1      -1.492 -11.320   3.949  0.00  0.00    +0.379 N 
ATOM      9  C   UNL     1      -2.571 -10.408   4.347  0.00  0.00    -0.082 C 
ATOM     10  C   UNL     1      -2.413  -9.075   3.611  0.00  0.00    -0.010 C 
ATOM     11  C   UNL     1      -4.697  -9.704  -0.709  0.00  0.00    +0.263 C 
ATOM     12  O   UNL     1      -5.281 -10.768  -0.620  0.00  0.00    -0.268 OA
ATOM     13  H   UNL     1      -1.562 -12.175   4.481  0.00  0.00    -0.086 HD
ATOM     14  H   UNL     1      -0.600 -10.885   4.134  0.00  0.00    -0.086 HD
ENDROOT
BRANCH  11  15
ATOM     15  C   UNL     1      -4.642  -9.003  -1.996  0.00  0.00    +0.104 A 
ATOM     16  C   UNL     1      -3.755  -8.006  -2.345  0.00  0.00    +0.032 A 
ATOM     17  C   UNL     1      -4.059  -7.626  -3.656  0.00  0.00    +0.020 A 
ATOM     18  C   UNL     1      -5.103  -8.380  -4.076  0.00  0.00    +0.086 A 
ATOM     19  N   UNL     1      -5.463  -9.224  -3.079  0.00  0.00    -0.346 N 
ATOM     20  C   UNL     1      -6.548 -10.207  -3.142  0.00  0.00    +0.149 C 
ENDBRANCH  11  15
BRANCH   1  22
ATOM     21  N   UNL     1      -0.821  -6.564   2.763  0.00  0.00    -0.305 N 
ATOM     22  C   UNL     1      -2.053  -6.864   2.308  0.00  0.00    +0.219 C 
ATOM     23  O   UNL     1      -3.010  -6.215   2.676  0.00  0.00    -0.275 OA
ATOM     24  H   UNL     1      -0.056  -7.083   2.469  0.00  0.00    +0.149 HD
BRANCH  21  25
ATOM     25  C   UNL     1      -0.636  -5.455   3.702  0.00  0.00    +0.136 C 
ATOM     26  C   UNL     1      -0.883  -5.948   5.129  0.00  0.00    +0.036 C 
BRANCH  25  35
ATOM     27  C   UNL     1       5.801  -1.722   3.608  0.00  0.00    +0.044 C 
ATOM     28  C   UNL     1       4.775  -2.816   3.465  0.00  0.00    -0.048 A 
ATOM     29  C   UNL     1       5.160  -4.063   2.993  0.00  0.00    +0.005 A 
ATOM     30  C   UNL     1       4.245  -5.068   2.856  0.00  0.00    +0.030 A 
ATOM     31  C   UNL     1       2.907  -4.843   3.192  0.00  0.00    +0.089 A 
ATOM     32  C   UNL     1       2.518  -3.581   3.670  0.00  0.00    +0.067 A 
ATOM     33  C   UNL     1       3.462  -2.573   3.808  0.00  0.00    +0.031 A 
ATOM     34  N   UNL     1       1.161  -3.667   3.912  0.00  0.00    -0.340 N 
ATOM     35  C   UNL     1       0.772  -4.930   3.589  0.00  0.00    +0.128 A 
ATOM     36  N   UNL     1       1.792  -5.618   3.168  0.00  0.00    -0.231 NA
ATOM     37  H   UNL     1       0.592  -2.959   4.250  0.00  0.00    +0.167 HD
ENDBRANCH  25  35
ENDBRANCH  21  25
ENDBRANCH   1  22
TORSDOF 4
