REMARK  Name = ZINC34930297
REMARK  13 active torsions:
REMARK  status: ('A' for Active; 'I' for Inactive)
REMARK    1  A    between atoms: C_1  and  C_2
REMARK    2  A    between atoms: C_2  and  O_3
REMARK    3  A    between atoms: O_3  and  C_4
REMARK    4  A    between atoms: C_7  and  C_10
REMARK    5  A    between atoms: C_12  and  C_32
REMARK    6  A    between atoms: C_13  and  C_31
REMARK    7  A    between atoms: C_20  and  C_21
REMARK    8  A    between atoms: C_24  and  N_27
REMARK    9  A    between atoms: C_32  and  O_34
REMARK   10  A    between atoms: O_34  and  C_35
REMARK   11  A    between atoms: C_35  and  C_36
REMARK   12  A    between atoms: C_36  and  O_37
REMARK   13  A    between atoms: O_37  and  C_38
REMARK                            x       y       z     vdW  Elec       q    Type
REMARK                         _______ _______ _______ _____ _____    ______ ____
ROOT
ATOM      1  C   UNL     1       0.757  -6.842  -1.882  0.00  0.00    +0.162 C 
ATOM      2  C   UNL     1       2.063  -7.411  -1.378  0.00  0.00    +0.085 C 
ATOM      3  C   UNL     1       2.965  -7.864  -2.299  0.00  0.00    +0.053 C 
ATOM      4  N   UNL     1       2.694  -7.802  -3.596  0.00  0.00    -0.228 NA
ATOM      5  C   UNL     1       1.588  -7.324  -4.106  0.00  0.00    +0.178 A 
ATOM      6  N   UNL     1       0.551  -6.817  -3.358  0.00  0.00    -0.275 N 
ATOM      7  C   UNL     1      -0.533  -6.355  -3.993  0.00  0.00    +0.268 A 
ATOM      8  O   UNL     1      -1.476  -5.897  -3.373  0.00  0.00    -0.266 OA
ATOM      9  C   UNL     1      -0.550  -6.416  -5.463  0.00  0.00    +0.081 A 
ATOM     10  C   UNL     1      -1.514  -6.019  -6.332  0.00  0.00    +0.028 C 
ATOM     11  S   UNL     1       1.040  -7.153  -5.794  0.00  0.00    -0.046 S 
ATOM     12  C   UNL     1       4.279  -8.439  -1.837  0.00  0.00    +0.066 C 
ENDROOT
BRANCH   1  16
ATOM     13  C   UNL     1       0.428  -2.831  -0.443  0.00  0.00    +0.121 A 
ATOM     14  C   UNL     1      -0.186  -3.868   0.243  0.00  0.00    +0.046 A 
ATOM     15  C   UNL     1      -0.079  -5.164  -0.224  0.00  0.00    +0.009 A 
ATOM     16  C   UNL     1       0.641  -5.427  -1.375  0.00  0.00    -0.020 A 
ATOM     17  C   UNL     1       1.254  -4.396  -2.061  0.00  0.00    +0.009 A 
ATOM     18  C   UNL     1       1.145  -3.098  -1.601  0.00  0.00    +0.046 A 
BRANCH  13  19
ATOM     19  O   UNL     1       0.324  -1.556   0.014  0.00  0.00    -0.492 OA
BRANCH  19  21
ATOM     20  C   UNL     1      -0.436   0.132   1.569  0.00  0.00    +0.048 C 
ATOM     21  C   UNL     1      -0.430  -1.356   1.212  0.00  0.00    +0.225 C 
ENDBRANCH  19  21
ENDBRANCH  13  19
ENDBRANCH   1  16
BRANCH  10  22
ATOM     22  C   UNL     1      -1.389  -6.334  -7.762  0.00  0.00    -0.024 A 
ATOM     23  C   UNL     1      -0.485  -7.312  -8.191  0.00  0.00    +0.010 A 
ATOM     24  C   UNL     1      -0.374  -7.601  -9.534  0.00  0.00    +0.033 A 
ATOM     25  C   UNL     1      -1.154  -6.927 -10.458  0.00  0.00    +0.126 A 
ATOM     26  C   UNL     1      -2.050  -5.958 -10.042  0.00  0.00    +0.033 A 
ATOM     27  C   UNL     1      -2.178  -5.661  -8.702  0.00  0.00    +0.010 A 
BRANCH  25  28
ATOM     28  N   UNL     1      -1.028  -7.244 -11.898  0.00  0.00    +0.056 N 
ATOM     29  O   UNL     1      -0.246  -8.090 -12.265  0.00  0.00    -0.126 OA
ATOM     30  O   UNL     1      -1.708  -6.657 -12.708  0.00  0.00    -0.126 OA
ENDBRANCH  25  28
ENDBRANCH  10  22
BRANCH   2  31
ATOM     31  C   UNL     1       2.341  -7.472  -0.002  0.00  0.00    +0.339 C 
ATOM     32  O   UNL     1       3.335  -8.055   0.393  0.00  0.00    -0.245 OA
BRANCH  31  33
ATOM     33  O   UNL     1       1.507  -6.884   0.882  0.00  0.00    -0.459 OA
BRANCH  33  34
ATOM     34  C   UNL     1       1.852  -6.985   2.265  0.00  0.00    +0.260 C 
BRANCH  34  35
ATOM     35  C   UNL     1       0.797  -6.265   3.108  0.00  0.00    +0.200 C 
BRANCH  35  36
ATOM     36  O   UNL     1      -0.456  -6.939   2.981  0.00  0.00    -0.380 OA
ATOM     37  C   UNL     1      -1.516  -6.343   3.732  0.00  0.00    +0.194 C 
ENDBRANCH  35  36
ENDBRANCH  34  35
ENDBRANCH  33  34
ENDBRANCH  31  33
ENDBRANCH   2  31
TORSDOF 10
