REMARK  Name = ZINC21809599
REMARK  8 active torsions:
REMARK  status: ('A' for Active; 'I' for Inactive)
REMARK    1  A    between atoms: C_1  and  C_2
REMARK    2  A    between atoms: C_2  and  C_25
REMARK    3  A    between atoms: N_14  and  C_15
REMARK    4  A    between atoms: C_18  and  O_23
REMARK    5  A    between atoms: C_19  and  O_21
REMARK    6  A    between atoms: O_21  and  C_22
REMARK    7  A    between atoms: O_23  and  C_24
REMARK    8  A    between atoms: N_27  and  C_28
REMARK                            x       y       z     vdW  Elec       q    Type
REMARK                         _______ _______ _______ _____ _____    ______ ____
ROOT
ATOM      1  C   UNL     1       2.439   1.270  -6.740  0.00  0.00    +0.044 C 
ATOM      2  C   UNL     1       2.994   2.285  -5.737  0.00  0.00    +0.133 C 
ATOM      3  C   UNL     1       2.976   3.672  -6.380  0.00  0.00    +0.158 C 
ATOM      4  N   UNL     1       4.050   3.751  -7.374  0.00  0.00    -0.333 N 
ATOM      5  C   UNL     1       4.112   4.512  -8.527  0.00  0.00    +0.057 A 
ATOM      6  C   UNL     1       3.316   5.423  -9.236  0.00  0.00    +0.034 A 
ATOM      7  C   UNL     1       3.773   5.978 -10.379  0.00  0.00    +0.048 A 
ATOM      8  S   UNL     1       5.391   5.245 -10.549  0.00  0.00    -0.095 S 
ATOM      9  C   UNL     1       5.368   4.238  -9.089  0.00  0.00    +0.038 A 
ATOM     10  C   UNL     1       6.044   3.322  -8.291  0.00  0.00    +0.048 A 
ATOM     11  C   UNL     1       5.224   3.016  -7.247  0.00  0.00    +0.107 A 
ATOM     12  C   UNL     1       5.420   2.110  -6.109  0.00  0.00    +0.268 C 
ATOM     13  O   UNL     1       6.501   1.602  -5.871  0.00  0.00    -0.268 OA
ATOM     14  N   UNL     1       4.333   1.869  -5.338  0.00  0.00    -0.250 N 
ENDROOT
BRANCH  14  15
ATOM     15  C   UNL     1       4.500   1.200  -4.119  0.00  0.00    +0.041 A 
ATOM     16  C   UNL     1       5.359   1.715  -3.157  0.00  0.00    +0.027 A 
ATOM     17  C   UNL     1       5.525   1.056  -1.954  0.00  0.00    +0.051 A 
ATOM     18  C   UNL     1       4.836  -0.119  -1.705  0.00  0.00    +0.162 A 
ATOM     19  C   UNL     1       3.974  -0.638  -2.667  0.00  0.00    +0.163 A 
ATOM     20  C   UNL     1       3.804   0.025  -3.871  0.00  0.00    +0.073 A 
BRANCH  19  21
ATOM     21  O   UNL     1       3.296  -1.791  -2.423  0.00  0.00    -0.491 OA
ATOM     22  C   UNL     1       2.430  -2.265  -3.456  0.00  0.00    +0.277 C 
ENDBRANCH  19  21
BRANCH  18  23
ATOM     23  O   UNL     1       5.000  -0.766  -0.519  0.00  0.00    -0.491 OA
ATOM     24  C   UNL     1       5.899  -0.177   0.422  0.00  0.00    +0.277 C 
ENDBRANCH  18  23
ENDBRANCH  14  15
BRANCH   2  25
ATOM     25  C   UNL     1       2.106   2.300  -4.520  0.00  0.00    +0.239 C 
ATOM     26  O   UNL     1       0.991   1.826  -4.577  0.00  0.00    -0.273 OA
ATOM     27  N   UNL     1       2.550   2.842  -3.369  0.00  0.00    -0.311 N 
ATOM     28  H   UNL     1       3.527   3.345  -3.339  0.00  0.00    +0.149 HD
BRANCH  27  29
ATOM     29  C   UNL     1       1.731   2.760  -2.157  0.00  0.00    +0.073 C 
ATOM     30  C   UNL     1       0.705   3.909  -2.170  0.00  0.00    +0.022 C 
ATOM     31  C   UNL     1       0.093   4.180  -0.782  0.00  0.00    +0.002 C 
ATOM     32  C   UNL     1      -0.234   2.913  -0.040  0.00  0.00    +0.000 C 
ATOM     33  C   UNL     1       0.958   2.558   0.872  0.00  0.00    +0.000 C 
ATOM     34  C   UNL     1       2.037   1.906   0.144  0.00  0.00    +0.002 C 
ATOM     35  C   UNL     1       2.634   2.809  -0.954  0.00  0.00    +0.022 C 
ENDBRANCH  27  29
ENDBRANCH   2  25
TORSDOF 5
