REMARK  Name = ZINC60194777
REMARK  8 active torsions:
REMARK  status: ('A' for Active; 'I' for Inactive)
REMARK    1  A    between atoms: C_1  and  C_2
REMARK    2  A    between atoms: C_2  and  C_4
REMARK    3  A    between atoms: C_2  and  N_16
REMARK    4  A    between atoms: C_8  and  C_10
REMARK    5  A    between atoms: C_17  and  C_19
REMARK    6  A    between atoms: C_19  and  N_20
REMARK    7  A    between atoms: C_28  and  S_29
REMARK    8  A    between atoms: S_29  and  C_30
REMARK                            x       y       z     vdW  Elec       q    Type
REMARK                         _______ _______ _______ _____ _____    ______ ____
ROOT
ATOM      1  N   UNL     1       0.688  -0.476  -1.203  0.00  0.00    -0.304 N 
ATOM      2  C   UNL     1       0.006  -0.608  -2.358  0.00  0.00    +0.233 C 
ATOM      3  O   UNL     1      -1.175  -0.336  -2.400  0.00  0.00    -0.274 OA
ATOM      4  H   UNL     1       1.632  -0.695  -1.170  0.00  0.00    +0.149 HD
ENDROOT
BRANCH   1   6
ATOM      5  C   UNL     1      -0.019   1.526   0.010  0.00  0.00    +0.036 C 
ATOM      6  C   UNL     1       0.002  -0.004   0.002  0.00  0.00    +0.134 C 
BRANCH   6   7
ATOM      7  C   UNL     1       0.731  -0.503   1.223  0.00  0.00    +0.105 A 
ATOM      8  N   UNL     1       2.059  -0.742   1.301  0.00  0.00    -0.348 N 
ATOM      9  H   UNL     1       2.706  -0.623   0.589  0.00  0.00    +0.167 HD
ATOM     10  C   UNL     1       2.321  -1.181   2.569  0.00  0.00    +0.110 A 
ATOM     11  C   UNL     1       1.135  -1.196   3.230  0.00  0.00    +0.064 A 
ATOM     12  N   UNL     1       0.183  -0.769   2.376  0.00  0.00    -0.342 N 
ATOM     13  H   UNL     1      -0.760  -0.677   2.584  0.00  0.00    +0.167 HD
BRANCH  11  14
ATOM     14  C   UNL     1       0.925  -1.603   4.641  0.00  0.00    -0.000 A 
ATOM     15  C   UNL     1      -0.354  -1.577   5.194  0.00  0.00    +0.010 A 
ATOM     16  C   UNL     1      -0.544  -1.957   6.507  0.00  0.00    +0.001 A 
ATOM     17  C   UNL     1       0.533  -2.363   7.275  0.00  0.00    +0.000 A 
ATOM     18  C   UNL     1       1.805  -2.391   6.731  0.00  0.00    +0.001 A 
ATOM     19  C   UNL     1       2.005  -2.020   5.418  0.00  0.00    +0.010 A 
ENDBRANCH  11  14
ENDBRANCH   6   7
ENDBRANCH   1   6
BRANCH   2  20
ATOM     20  C   UNL     1       0.712  -1.094  -3.598  0.00  0.00    +0.220 C 
BRANCH  20  21
ATOM     21  N   UNL     1      -0.240  -1.150  -4.711  0.00  0.00    -0.310 N 
ATOM     22  C   UNL     1      -1.030  -2.232  -5.063  0.00  0.00    +0.070 A 
ATOM     23  C   UNL     1      -1.192  -3.511  -4.551  0.00  0.00    +0.028 A 
ATOM     24  C   UNL     1      -2.085  -4.380  -5.144  0.00  0.00    +0.002 A 
ATOM     25  C   UNL     1      -2.822  -3.983  -6.250  0.00  0.00    +0.002 A 
ATOM     26  C   UNL     1      -2.673  -2.718  -6.772  0.00  0.00    +0.030 A 
ATOM     27  C   UNL     1      -1.774  -1.825  -6.183  0.00  0.00    +0.090 A 
ATOM     28  N   UNL     1      -1.415  -0.544  -6.458  0.00  0.00    -0.222 NA
ATOM     29  C   UNL     1      -0.517  -0.143  -5.592  0.00  0.00    +0.175 A 
BRANCH  29  30
ATOM     30  S   UNL     1       0.224   1.455  -5.569  0.00  0.00    -0.018 S 
BRANCH  30  31
ATOM     31  C   UNL     1      -0.548   2.318  -6.965  0.00  0.00    +0.407 C 
ATOM     32  F   UNL     1      -0.273   1.626  -8.150  0.00  0.00    -0.196 F 
ATOM     33  F   UNL     1      -1.932   2.376  -6.769  0.00  0.00    -0.196 F 
ENDBRANCH  30  31
ENDBRANCH  29  30
ENDBRANCH  20  21
ENDBRANCH   2  20
TORSDOF 7
