REMARK  Name = ZINC23304478
REMARK  15 active torsions:
REMARK  status: ('A' for Active; 'I' for Inactive)
REMARK    1  A    between atoms: C_1  and  C_2
REMARK    2  A    between atoms: C_2  and  C_3
REMARK    3  A    between atoms: C_2  and  C_4
REMARK    4  A    between atoms: C_4  and  C_5
REMARK    5  A    between atoms: C_5  and  N_6
REMARK    6  A    between atoms: N_6  and  C_7
REMARK    7  A    between atoms: N_6  and  C_12
REMARK    8  A    between atoms: C_7  and  C_8
REMARK    9  A    between atoms: C_8  and  C_9
REMARK   10  A    between atoms: C_9  and  C_10
REMARK   11  A    between atoms: C_9  and  C_11
REMARK   12  A    between atoms: C_12  and  C_13
REMARK   13  A    between atoms: C_16  and  C_19
REMARK   14  A    between atoms: C_29  and  O_31
REMARK   15  A    between atoms: O_31  and  C_32
REMARK                            x       y       z     vdW  Elec       q    Type
REMARK                         _______ _______ _______ _____ _____    ______ ____
ROOT
ATOM      1  C   UNL     1       2.082  -1.647   3.979  0.00  0.00    -0.064 A 
ATOM      2  C   UNL     1       3.447  -1.450   3.870  0.00  0.00    +0.002 A 
ATOM      3  C   UNL     1       4.195  -1.150   4.990  0.00  0.00    +0.013 A 
ATOM      4  C   UNL     1       3.573  -1.057   6.236  0.00  0.00    +0.037 A 
ATOM      5  C   UNL     1       2.196  -1.263   6.340  0.00  0.00    +0.013 A 
ATOM      6  C   UNL     1       1.459  -1.556   5.211  0.00  0.00    +0.002 A 
ENDROOT
BRANCH   4   7
ATOM      7  C   UNL     1       4.369  -0.743   7.441  0.00  0.00    +0.247 C 
ATOM      8  O   UNL     1       5.566  -0.953   7.451  0.00  0.00    -0.270 OA
ATOM      9  N   UNL     1       3.768  -0.222   8.529  0.00  0.00    -0.291 N 
ATOM     10  C   UNL     1       2.362   0.226   8.674  0.00  0.00    +0.080 C 
ATOM     11  C   UNL     1       2.456   1.537   9.481  0.00  0.00    +0.024 C 
ATOM     12  C   UNL     1       3.779   1.421  10.267  0.00  0.00    +0.024 C 
ATOM     13  C   UNL     1       4.357   0.045   9.864  0.00  0.00    +0.080 C 
ATOM     14  C   UNL     1       3.791  -1.006  10.831  0.00  0.00    +0.067 C 
ATOM     15  C   UNL     1       2.269  -0.805  10.945  0.00  0.00    +0.177 C 
ATOM     16  C   UNL     1       1.640  -0.811   9.549  0.00  0.00    +0.067 C 
BRANCH  15  17
ATOM     17  O   UNL     1       1.704  -1.860  11.726  0.00  0.00    -0.486 OA
BRANCH  17  18
ATOM     18  C   UNL     1       1.763  -1.726  13.078  0.00  0.00    +0.156 A 
ATOM     19  C   UNL     1       2.378  -0.619  13.640  0.00  0.00    +0.051 A 
ATOM     20  C   UNL     1       2.433  -0.482  15.014  0.00  0.00    +0.042 A 
ATOM     21  C   UNL     1       1.883  -1.455  15.831  0.00  0.00    +0.126 A 
ATOM     22  C   UNL     1       1.272  -2.565  15.273  0.00  0.00    +0.080 A 
ATOM     23  C   UNL     1       1.211  -2.703  13.898  0.00  0.00    +0.168 A 
ATOM     24  F   UNL     1       0.616  -3.786  13.352  0.00  0.00    -0.202 F 
ATOM     25  F   UNL     1       1.942  -1.322  17.174  0.00  0.00    -0.205 F 
ENDBRANCH  17  18
ENDBRANCH  15  17
ENDBRANCH   4   7
BRANCH   1  26
ATOM     26  C   UNL     1       1.270  -1.968   2.750  0.00  0.00    -0.043 C 
BRANCH  26  27
ATOM     27  N   UNL     1       0.789  -0.720   2.141  0.00  0.00    +0.382 N 
ATOM     28  H   UNL     1       0.289  -0.132   2.925  0.00  0.00    -0.081 HD
BRANCH  27  29
ATOM     29  C   UNL     1       1.908   0.078   1.622  0.00  0.00    -0.078 C 
BRANCH  29  30
ATOM     30  C   UNL     1       2.615  -0.699   0.510  0.00  0.00    -0.016 C 
BRANCH  30  32
ATOM     31  C   UNL     1       4.598  -0.723  -1.010  0.00  0.00    +0.007 C 
ATOM     32  C   UNL     1       3.818   0.105   0.013  0.00  0.00    -0.019 C 
ATOM     33  C   UNL     1       3.332   1.399  -0.643  0.00  0.00    +0.007 C 
ENDBRANCH  30  32
ENDBRANCH  29  30
ENDBRANCH  27  29
BRANCH  27  34
ATOM     34  C   UNL     1      -0.196  -0.995   1.086  0.00  0.00    -0.078 C 
BRANCH  34  35
ATOM     35  C   UNL     1      -0.848   0.316   0.643  0.00  0.00    -0.016 C 
BRANCH  35  36
ATOM     36  C   UNL     1      -1.959   0.018  -0.365  0.00  0.00    -0.019 C 
ATOM     37  C   UNL     1      -3.072  -0.775   0.323  0.00  0.00    +0.007 C 
ATOM     38  C   UNL     1      -2.527   1.333  -0.902  0.00  0.00    +0.007 C 
ENDBRANCH  35  36
ENDBRANCH  34  35
ENDBRANCH  27  34
ENDBRANCH  26  27
ENDBRANCH   1  26
TORSDOF 11
