REMARK  Name = ZINC08834498
REMARK  3 active torsions:
REMARK  status: ('A' for Active; 'I' for Inactive)
REMARK    1  A    between atoms: C_6  and  C_7
REMARK    2  A    between atoms: N_9  and  S_13
REMARK    3  A    between atoms: S_13  and  C_16
REMARK                            x       y       z     vdW  Elec       q    Type
REMARK                         _______ _______ _______ _____ _____    ______ ____
ROOT
ATOM      1  C   UNL     1       3.931   1.675  -2.354  0.00  0.00    +0.167 C 
ATOM      2  N   UNL     1       3.125   0.692  -1.605  0.00  0.00    -0.159 NA
ATOM      3  C   UNL     1       2.718  -0.500  -2.344  0.00  0.00    +0.122 C 
ATOM      4  C   UNL     1       2.504  -0.166  -3.853  0.00  0.00    +0.088 C 
ATOM      5  S   UNL     1       3.918   1.005  -4.071  0.00  0.00    -0.134 S 
ENDROOT
BRANCH   1  11
ATOM      6  C   UNL     1       5.904   0.613  -1.239  0.00  0.00    +0.007 A 
ATOM      7  C   UNL     1       7.195   0.666  -0.747  0.00  0.00    +0.015 A 
ATOM      8  C   UNL     1       7.914   1.845  -0.819  0.00  0.00    +0.018 A 
ATOM      9  C   UNL     1       7.343   2.970  -1.387  0.00  0.00    +0.015 A 
ATOM     10  C   UNL     1       6.054   2.914  -1.884  0.00  0.00    +0.007 A 
ATOM     11  C   UNL     1       5.336   1.735  -1.812  0.00  0.00    -0.019 A 
ATOM     12 BR   UNL     1       9.676   1.921  -0.138  0.00  0.00    -0.050 Br
ENDBRANCH   1  11
BRANCH   2  13
ATOM     13  S   UNL     1       2.713   0.923  -0.018  0.00  0.00    +0.062 S 
ATOM     14  O   UNL     1       3.680   1.808   0.528  0.00  0.00    -0.153 OA
ATOM     15  O   UNL     1       2.464  -0.365   0.528  0.00  0.00    -0.153 OA
BRANCH  13  16
ATOM     16  C   UNL     1       1.175   1.783   0.000  0.00  0.00    +0.106 A 
ATOM     17  C   UNL     1      -0.013   1.076   0.008  0.00  0.00    +0.029 A 
ATOM     18  C   UNL     1      -1.219   1.750   0.017  0.00  0.00    +0.016 A 
ATOM     19  C   UNL     1      -1.238   3.133   0.029  0.00  0.00    +0.013 A 
ATOM     20  C   UNL     1      -0.049   3.841   0.021  0.00  0.00    +0.016 A 
ATOM     21  C   UNL     1       1.157   3.165   0.007  0.00  0.00    +0.029 A 
ATOM     22  I   UNL     1      -3.066   4.156   0.051  0.00  0.00    -0.044 I 
ENDBRANCH  13  16
ENDBRANCH   2  13
TORSDOF 3
