REMARK  Name = ZINC20268236
REMARK  5 active torsions:
REMARK  status: ('A' for Active; 'I' for Inactive)
REMARK    1  A    between atoms: C_1  and  C_2
REMARK    2  A    between atoms: C_2  and  C_3
REMARK    3  A    between atoms: C_3  and  C_4
REMARK    4  A    between atoms: N_8  and  C_9
REMARK    5  A    between atoms: C_9  and  C_10
REMARK                            x       y       z     vdW  Elec       q    Type
REMARK                         _______ _______ _______ _____ _____    ______ ____
ROOT
ATOM      1  C   UNL     1       3.773   2.123   0.590  0.00  0.00    +0.135 A 
ATOM      2  N   UNL     1       3.684   2.116  -0.710  0.00  0.00    -0.133 NA
ATOM      3  N   UNL     1       2.470   1.887  -1.067  0.00  0.00    -0.122 NA
ATOM      4  C   UNL     1       1.714   1.735  -0.005  0.00  0.00    +0.203 A 
ATOM      5  N   UNL     1       2.521   1.887   1.086  0.00  0.00    -0.294 N 
ATOM      6  S   UNL     1      -0.017   1.406   0.010  0.00  0.00    -0.009 SA
ENDROOT
BRANCH   1   7
ATOM      7  C   UNL     1       5.025   2.349   1.398  0.00  0.00    +0.076 C 
BRANCH   7   9
ATOM      8  C   UNL     1       6.456   4.074   2.502  0.00  0.00    +0.004 C 
ATOM      9  C   UNL     1       5.185   3.844   1.682  0.00  0.00    +0.004 C 
ENDBRANCH   7   9
ENDBRANCH   1   7
BRANCH   5  10
ATOM     10  C   UNL     1       2.127   1.809   2.495  0.00  0.00    +0.250 C 
BRANCH  10  11
ATOM     11  C   UNL     1       2.259   0.386   2.975  0.00  0.00    +0.375 C 
ATOM     12  O   UNL     1       2.642  -0.474   2.218  0.00  0.00    -0.244 OA
ATOM     13  O   UNL     1       1.950   0.075   4.244  0.00  0.00    -0.244 OA
ENDBRANCH  10  11
ENDBRANCH   5  10
TORSDOF 4
