REMARK  Name = ZINC00203559
REMARK  5 active torsions:
REMARK  status: ('A' for Active; 'I' for Inactive)
REMARK    1  A    between atoms: C_1  and  C_2
REMARK    2  A    between atoms: C_2  and  C_3
REMARK    3  A    between atoms: C_6  and  C_9
REMARK    4  A    between atoms: C_18  and  N_22
REMARK    5  A    between atoms: C_19  and  C_20
REMARK                            x       y       z     vdW  Elec       q    Type
REMARK                         _______ _______ _______ _____ _____    ______ ____
ROOT
ATOM      1  C   UNL     1      -0.076   5.774   0.032  0.00  0.00    +0.098 C 
ATOM      2  C   UNL     1      -0.798   6.269  -1.193  0.00  0.00    +0.011 A 
ATOM      3  C   UNL     1      -0.155   6.243  -2.419  0.00  0.00    +0.057 A 
ATOM      4  C   UNL     1      -0.802   6.695  -3.556  0.00  0.00    +0.167 A 
ATOM      5  C   UNL     1      -2.107   7.176  -3.466  0.00  0.00    +0.170 A 
ATOM      6  C   UNL     1      -2.749   7.201  -2.241  0.00  0.00    +0.096 A 
ATOM      7  C   UNL     1      -2.095   6.747  -1.101  0.00  0.00    +0.138 A 
ATOM      8  O   UNL     1      -2.742   6.778   0.091  0.00  0.00    -0.441 OA
ATOM      9  C   UNL     1      -2.041   6.722   1.236  0.00  0.00    +0.199 C 
ATOM     10  C   UNL     1      -0.773   6.256   1.273  0.00  0.00    +0.098 C 
ATOM     11  O   UNL     1      -2.517   7.557  -4.711  0.00  0.00    -0.452 OA
ATOM     12  C   UNL     1      -1.605   6.925  -5.628  0.00  0.00    +0.466 C 
ATOM     13  O   UNL     1      -0.397   6.774  -4.858  0.00  0.00    -0.453 OA
ENDROOT
BRANCH   1  17
ATOM     14  C   UNL     1      -0.018   1.503   0.010  0.00  0.00    -0.048 A 
ATOM     15  C   UNL     1      -1.225   2.178   0.020  0.00  0.00    +0.004 A 
ATOM     16  C   UNL     1      -1.244   3.560   0.032  0.00  0.00    +0.005 A 
ATOM     17  C   UNL     1      -0.056   4.267   0.025  0.00  0.00    -0.035 A 
ATOM     18  C   UNL     1       1.151   3.592   0.010  0.00  0.00    +0.005 A 
ATOM     19  C   UNL     1       1.169   2.210   0.003  0.00  0.00    +0.004 A 
BRANCH  14  21
ATOM     20  C   UNL     1       0.023  -0.522   1.442  0.00  0.00    +0.009 C 
ATOM     21  C   UNL     1       0.002  -0.004   0.002  0.00  0.00    +0.032 C 
ENDBRANCH  14  21
ENDBRANCH   1  17
BRANCH   9  22
ATOM     22  N   UNL     1      -2.630   7.150   2.399  0.00  0.00    -0.328 N 
ATOM     23  H   UNL     1      -3.540   7.487   2.387  0.00  0.00    +0.145 HD
ATOM     24  H   UNL     1      -2.137   7.116   3.234  0.00  0.00    +0.145 HD
ENDBRANCH   9  22
BRANCH  10  25
ATOM     25  C   UNL     1      -0.080   6.222   2.526  0.00  0.00    +0.101 C 
ATOM     26  N   UNL     1       0.469   6.194   3.519  0.00  0.00    -0.191 NA
ENDBRANCH  10  25
TORSDOF 4
