REMARK  Name = ZINC35778823
REMARK  17 active torsions:
REMARK  status: ('A' for Active; 'I' for Inactive)
REMARK    1  A    between atoms: C_1  and  C_2
REMARK    2  A    between atoms: C_2  and  C_3
REMARK    3  A    between atoms: C_2  and  C_4
REMARK    4  A    between atoms: C_4  and  N_5
REMARK    5  A    between atoms: N_5  and  C_6
REMARK    6  A    between atoms: N_5  and  C_14
REMARK    7  A    between atoms: C_6  and  C_7
REMARK    8  A    between atoms: C_7  and  C_9
REMARK    9  A    between atoms: C_7  and  O_13
REMARK   10  A    between atoms: C_9  and  C_10
REMARK   11  A    between atoms: C_10  and  C_11
REMARK   12  A    between atoms: C_14  and  C_15
REMARK   13  A    between atoms: C_25  and  C_27
REMARK   14  A    between atoms: C_27  and  O_28
REMARK   15  A    between atoms: O_28  and  C_29
REMARK   16  A    between atoms: C_33  and  O_35
REMARK   17  A    between atoms: O_35  and  C_36
REMARK                            x       y       z     vdW  Elec       q    Type
REMARK                         _______ _______ _______ _____ _____    ______ ____
ROOT
ATOM      1  C   UNL     1       2.038   0.596  -3.627  0.00  0.00    +0.200 C 
ATOM      2  O   UNL     1       1.061   1.252  -3.334  0.00  0.00    -0.278 OA
ATOM      3  N   UNL     1       2.475   0.570  -4.902  0.00  0.00    -0.292 N 
ATOM      4  C   UNL     1       3.655  -0.226  -5.269  0.00  0.00    +0.113 C 
ATOM      5  C   UNL     1       3.206  -1.343  -6.224  0.00  0.00    +0.061 C 
ATOM      6  C   UNL     1       2.251  -0.767  -7.219  0.00  0.00    -0.004 A 
ATOM      7  C   UNL     1       1.581   0.415  -7.147  0.00  0.00    -0.014 A 
ATOM      8  C   UNL     1       0.735   0.720  -8.212  0.00  0.00    +0.013 A 
ATOM      9  C   UNL     1       0.617  -0.139  -9.250  0.00  0.00    +0.046 A 
ATOM     10  S   UNL     1       1.722  -1.456  -8.765  0.00  0.00    -0.101 S 
ATOM     11  C   UNL     1       1.774   1.331  -5.945  0.00  0.00    +0.144 C 
ENDROOT
BRANCH   1  12
ATOM     12  C   UNL     1       2.765  -0.188  -2.565  0.00  0.00    +0.019 C 
BRANCH  12  13
ATOM     13  N   UNL     1       2.098   0.005  -1.270  0.00  0.00    +0.387 N 
ATOM     14  H   UNL     1       2.034   0.992  -1.069  0.00  0.00    -0.081 HD
BRANCH  13  15
ATOM     15  C   UNL     1       0.749  -0.572  -1.324  0.00  0.00    -0.075 C 
BRANCH  15  17
ATOM     16  C   UNL     1      -0.219   1.274   0.053  0.00  0.00    +0.005 C 
ATOM     17  C   UNL     1      -0.001  -0.238  -0.033  0.00  0.00    -0.034 C 
ATOM     18  C   UNL     1      -1.356  -0.949  -0.031  0.00  0.00    +0.005 C 
ENDBRANCH  15  17
ENDBRANCH  13  15
BRANCH  13  19
ATOM     19  C   UNL     1       2.874  -0.661  -0.216  0.00  0.00    -0.046 C 
BRANCH  19  20
ATOM     20  C   UNL     1       4.227   0.037  -0.060  0.00  0.00    +0.098 C 
BRANCH  20  21
ATOM     21  O   UNL     1       4.019   1.404   0.302  0.00  0.00    -0.394 OA
ATOM     22  H   UNL     1       3.607   1.523   1.168  0.00  0.00    +0.210 HD
ENDBRANCH  20  21
BRANCH  20  23
ATOM     23  C   UNL     1       5.038  -0.662   1.033  0.00  0.00    +0.033 C 
BRANCH  23  24
ATOM     24  C   UNL     1       6.436  -0.045   1.103  0.00  0.00    +0.029 C 
BRANCH  24  25
ATOM     25  C   UNL     1       7.236  -0.734   2.180  0.00  0.00    -0.034 C 
ATOM     26  C   UNL     1       8.396  -1.269   1.893  0.00  0.00    +0.004 C 
ENDBRANCH  24  25
ENDBRANCH  23  24
ENDBRANCH  20  23
ENDBRANCH  19  20
ENDBRANCH  13  19
ENDBRANCH  12  13
ENDBRANCH   1  12
BRANCH  11  27
ATOM     27  C   UNL     1       2.611   2.544  -6.353  0.00  0.00    +0.256 C 
BRANCH  27  28
ATOM     28  O   UNL     1       3.825   2.101  -6.964  0.00  0.00    -0.490 OA
BRANCH  28  29
ATOM     29  C   UNL     1       4.689   3.061  -7.387  0.00  0.00    +0.124 A 
ATOM     30  C   UNL     1       4.377   4.402  -7.212  0.00  0.00    +0.046 A 
ATOM     31  C   UNL     1       5.254   5.379  -7.642  0.00  0.00    +0.007 A 
ATOM     32  C   UNL     1       6.444   5.023  -8.247  0.00  0.00    +0.046 A 
ATOM     33  C   UNL     1       6.761   3.684  -8.425  0.00  0.00    +0.124 A 
ATOM     34  C   UNL     1       5.885   2.702  -7.988  0.00  0.00    +0.091 A 
BRANCH  33  35
ATOM     35  O   UNL     1       7.932   3.335  -9.020  0.00  0.00    -0.495 OA
ATOM     36  C   UNL     1       8.789   4.399  -9.439  0.00  0.00    +0.277 C 
ENDBRANCH  33  35
ENDBRANCH  28  29
ENDBRANCH  27  28
ENDBRANCH  11  27
TORSDOF 14
