REMARK  Name = ZINC63710282
REMARK  7 active torsions:
REMARK  status: ('A' for Active; 'I' for Inactive)
REMARK    1  A    between atoms: C_1  and  C_2
REMARK    2  A    between atoms: C_4  and  N_9
REMARK    3  A    between atoms: C_10  and  S_21
REMARK    4  A    between atoms: C_15  and  C_18
REMARK    5  A    between atoms: S_21  and  C_22
REMARK    6  A    between atoms: C_22  and  C_23
REMARK    7  A    between atoms: C_28  and  C_31
REMARK                            x       y       z     vdW  Elec       q    Type
REMARK                         _______ _______ _______ _____ _____    ______ ____
ROOT
ATOM      1  N   UNL     1       0.028  -2.771  -2.419  0.00  0.00    -0.253 N 
ATOM      2  C   UNL     1       0.151  -4.231  -2.451  0.00  0.00    +0.260 C 
ATOM      3  N   UNL     1       1.169  -4.691  -3.401  0.00  0.00    -0.230 NA
ATOM      4  C   UNL     1       1.448  -3.987  -4.449  0.00  0.00    +0.185 C 
ATOM      5  C   UNL     1       0.831  -2.634  -4.663  0.00  0.00    +0.083 C 
ATOM      6  C   UNL     1       1.323  -2.200  -5.828  0.00  0.00    +0.075 C 
ATOM      7  N   UNL     1       2.174  -3.136  -6.298  0.00  0.00    -0.152 NA
ATOM      8  N   UNL     1       2.267  -4.158  -5.516  0.00  0.00    -0.129 NA
ATOM      9  C   UNL     1       0.987  -0.893  -6.499  0.00  0.00    +0.068 C 
ATOM     10  C   UNL     1      -0.093  -2.087  -3.643  0.00  0.00    +0.133 C 
ATOM     11  N   UNL     1      -0.916  -1.096  -3.850  0.00  0.00    -0.285 NA
ATOM     12  H   UNL     1      -0.950  -0.667  -4.719  0.00  0.00    +0.188 HD
ENDROOT
BRANCH   1  16
ATOM     13  C   UNL     1       0.022   1.503   0.010  0.00  0.00    +0.045 C 
ATOM     14  C   UNL     1       0.022  -0.004   0.002  0.00  0.00    -0.030 A 
ATOM     15  C   UNL     1       0.025  -0.687  -1.198  0.00  0.00    +0.028 A 
ATOM     16  C   UNL     1       0.025  -2.076  -1.205  0.00  0.00    +0.038 A 
ATOM     17  C   UNL     1       0.020  -2.774  -0.004  0.00  0.00    +0.025 A 
ATOM     18  C   UNL     1       0.016  -2.086   1.193  0.00  0.00    +0.022 A 
ATOM     19  C   UNL     1       0.023  -0.702   1.197  0.00  0.00    +0.044 A 
ATOM     20 CL   UNL     1       0.025   0.160   2.704  0.00  0.00    -0.083 Cl
ENDBRANCH   1  16
BRANCH   2  21
ATOM     21  S   UNL     1      -1.450  -4.944  -2.920  0.00  0.00    -0.106 S 
BRANCH  21  22
ATOM     22  C   UNL     1      -1.779  -4.243  -4.560  0.00  0.00    +0.168 C 
BRANCH  22  23
ATOM     23  C   UNL     1      -3.098  -4.761  -5.072  0.00  0.00    +0.228 C 
ATOM     24  O   UNL     1      -3.752  -5.528  -4.397  0.00  0.00    -0.275 OA
ATOM     25  N   UNL     1      -3.552  -4.372  -6.280  0.00  0.00    -0.267 N 
ATOM     26  C   UNL     1      -4.773  -4.852  -6.754  0.00  0.00    +0.168 A 
ATOM     27  C   UNL     1      -5.637  -5.741  -6.077  0.00  0.00    +0.091 A 
ATOM     28  C   UNL     1      -6.707  -5.962  -6.861  0.00  0.00    +0.136 A 
ATOM     29  O   UNL     1      -6.551  -5.255  -7.991  0.00  0.00    -0.358 OA
ATOM     30  N   UNL     1      -5.323  -4.554  -7.903  0.00  0.00    -0.063 NA
ATOM     31  C   UNL     1      -7.878  -6.850  -6.528  0.00  0.00    +0.089 C 
ATOM     32  H   UNL     1      -3.029  -3.759  -6.820  0.00  0.00    +0.156 HD
ENDBRANCH  22  23
ENDBRANCH  21  22
ENDBRANCH   2  21
TORSDOF 4
