REMARK  Name = ZINC35657279
REMARK  5 active torsions:
REMARK  status: ('A' for Active; 'I' for Inactive)
REMARK    1  A    between atoms: C_6  and  O_7
REMARK    2  A    between atoms: O_7  and  C_8
REMARK    3  A    between atoms: C_8  and  C_9
REMARK    4  A    between atoms: C_12  and  C_14
REMARK    5  A    between atoms: N_19  and  C_22
REMARK                            x       y       z     vdW  Elec       q    Type
REMARK                         _______ _______ _______ _____ _____    ______ ____
ROOT
ATOM      1  C   UNL     1      -5.411  -4.004   1.645  0.00  0.00    +0.282 C 
ATOM      2  O   UNL     1      -6.495  -4.332   1.198  0.00  0.00    -0.267 OA
ATOM      3  N   UNL     1      -5.195  -4.028   2.975  0.00  0.00    -0.299 N 
ATOM      4  C   UNL     1      -3.951  -3.491   3.549  0.00  0.00    +0.089 C 
ATOM      5  C   UNL     1      -4.316  -2.528   4.683  0.00  0.00    -0.059 C 
ATOM      6  N   UNL     1      -5.182  -3.216   5.649  0.00  0.00    +0.385 N 
ATOM      7  C   UNL     1      -6.455  -3.576   5.011  0.00  0.00    -0.059 C 
ATOM      8  C   UNL     1      -6.199  -4.586   3.894  0.00  0.00    +0.089 C 
ATOM      9  H   UNL     1      -4.722  -4.052   5.975  0.00  0.00    -0.081 HD
ENDROOT
BRANCH   6  10
ATOM     10  C   UNL     1      -5.442  -2.328   6.790  0.00  0.00    -0.065 C 
ATOM     11  C   UNL     1      -4.117  -1.960   7.462  0.00  0.00    -0.009 C 
ATOM     12  C   UNL     1      -4.388  -1.036   8.650  0.00  0.00    -0.012 C 
ATOM     13  C   UNL     1      -5.290  -1.751   9.658  0.00  0.00    +0.007 C 
ATOM     14  C   UNL     1      -6.615  -2.118   8.986  0.00  0.00    -0.012 C 
ATOM     15  C   UNL     1      -6.344  -3.043   7.798  0.00  0.00    -0.009 C 
ATOM     16  C   UNL     1      -7.307  -0.846   8.495  0.00  0.00    +0.007 C 
ATOM     17  C   UNL     1      -6.405  -0.130   7.487  0.00  0.00    -0.012 C 
ATOM     18  C   UNL     1      -5.081   0.237   8.159  0.00  0.00    +0.007 C 
ATOM     19  C   UNL     1      -6.135  -1.055   6.298  0.00  0.00    -0.009 C 
ENDBRANCH   6  10
BRANCH   1  23
ATOM     20  C   UNL     1      -2.369  -2.971  -0.009  0.00  0.00    +0.143 A 
ATOM     21  C   UNL     1      -3.199  -2.986  -1.075  0.00  0.00    +0.049 A 
ATOM     22  C   UNL     1      -4.464  -3.377  -0.609  0.00  0.00    +0.055 A 
ATOM     23  C   UNL     1      -4.340  -3.583   0.735  0.00  0.00    +0.190 A 
ATOM     24  O   UNL     1      -3.059  -3.336   1.079  0.00  0.00    -0.452 OA
BRANCH  20  25
ATOM     25  C   UNL     1      -0.907  -2.609  -0.040  0.00  0.00    +0.303 C 
BRANCH  25  26
ATOM     26  O   UNL     1      -0.759  -1.205   0.183  0.00  0.00    -0.484 OA
BRANCH  26  32
ATOM     27  C   UNL     1       0.724   0.643   0.396  0.00  0.00    +0.047 A 
ATOM     28  C   UNL     1       2.012   1.143   0.399  0.00  0.00    +0.019 A 
ATOM     29  C   UNL     1       3.085   0.295   0.192  0.00  0.00    +0.018 A 
ATOM     30  C   UNL     1       2.871  -1.055  -0.018  0.00  0.00    +0.019 A 
ATOM     31  C   UNL     1       1.585  -1.560  -0.022  0.00  0.00    +0.047 A 
ATOM     32  C   UNL     1       0.507  -0.711   0.186  0.00  0.00    +0.121 A 
ATOM     33 BR   UNL     1       4.846   0.983   0.196  0.00  0.00    -0.050 Br
ENDBRANCH  26  32
ENDBRANCH  25  26
ENDBRANCH  20  25
ENDBRANCH   1  23
TORSDOF 5
