REMARK  Name = ZINC13222111
REMARK  12 active torsions:
REMARK  status: ('A' for Active; 'I' for Inactive)
REMARK    1  A    between atoms: C_1  and  C_2
REMARK    2  A    between atoms: C_2  and  C_3
REMARK    3  A    between atoms: C_3  and  C_5
REMARK    4  A    between atoms: C_3  and  N_6
REMARK    5  A    between atoms: N_6  and  C_7
REMARK    6  A    between atoms: C_15  and  C_17
REMARK    7  A    between atoms: C_17  and  S_18
REMARK    8  A    between atoms: S_18  and  C_19
REMARK    9  A    between atoms: C_23  and  C_32
REMARK   10  A    between atoms: C_24  and  C_29
REMARK   11  A    between atoms: C_25  and  C_28
REMARK   12  A    between atoms: C_29  and  C_30
REMARK                            x       y       z     vdW  Elec       q    Type
REMARK                         _______ _______ _______ _____ _____    ______ ____
ROOT
ATOM      1  S   UNL     1      -5.846   3.442   4.774  0.00  0.00    -0.075 S 
ENDROOT
BRANCH   1   2
ATOM      2  C   UNL     1      -4.287   2.878   4.180  0.00  0.00    +0.211 A 
ATOM      3  N   UNL     1      -4.059   2.386   2.965  0.00  0.00    -0.183 NA
ATOM      4  C   UNL     1      -2.776   2.057   2.847  0.00  0.00    +0.254 A 
ATOM      5  N   UNL     1      -2.068   1.539   1.837  0.00  0.00    -0.216 NA
ATOM      6  C   UNL     1      -0.783   1.295   1.971  0.00  0.00    +0.047 A 
ATOM      7  C   UNL     1      -0.131   1.586   3.174  0.00  0.00    +0.006 A 
ATOM      8  C   UNL     1      -0.842   2.118   4.203  0.00  0.00    +0.049 A 
ATOM      9  N   UNL     1      -2.169   2.353   4.035  0.00  0.00    -0.200 N 
ATOM     10  N   UNL     1      -3.164   2.878   4.870  0.00  0.00    -0.137 NA
ATOM     11  C   UNL     1      -0.168   2.442   5.511  0.00  0.00    +0.066 C 
ATOM     12  C   UNL     1      -0.008   0.705   0.821  0.00  0.00    +0.066 C 
BRANCH   7  13
ATOM     13  C   UNL     1       1.343   1.314   3.327  0.00  0.00    +0.163 C 
BRANCH  13  14
ATOM     14  C   UNL     1       2.126   2.530   2.904  0.00  0.00    +0.360 C 
ATOM     15  O   UNL     1       1.546   3.517   2.517  0.00  0.00    -0.246 OA
ATOM     16  O   UNL     1       3.467   2.517   2.956  0.00  0.00    -0.246 OA
ENDBRANCH  13  14
ENDBRANCH   7  13
ENDBRANCH   1   2
BRANCH   1  17
ATOM     17  C   UNL     1      -6.969   3.184   3.373  0.00  0.00    +0.173 C 
BRANCH  17  19
ATOM     18  N   UNL     1      -9.341   3.630   2.831  0.00  0.00    -0.293 N 
ATOM     19  C   UNL     1      -8.357   3.632   3.752  0.00  0.00    +0.226 C 
ATOM     20  O   UNL     1      -8.589   3.993   4.886  0.00  0.00    -0.275 OA
BRANCH  18  21
ATOM     21  C   UNL     1     -10.661   4.168   3.168  0.00  0.00    +0.099 C 
ATOM     22  C   UNL     1     -10.524   5.648   3.564  0.00  0.00    +0.046 C 
ATOM     23  C   UNL     1     -11.863   6.102   4.211  0.00  0.00    +0.168 C 
ATOM     24  S   UNL     1     -12.266   4.620   5.229  0.00  0.00    -0.029 S 
ATOM     25  O   UNL     1     -11.737   4.799   6.536  0.00  0.00    -0.174 OA
ATOM     26  O   UNL     1     -13.643   4.310   5.068  0.00  0.00    -0.174 OA
ATOM     27  C   UNL     1     -11.260   3.360   4.344  0.00  0.00    +0.188 C 
ENDBRANCH  18  21
BRANCH  18  28
ATOM     28  C   UNL     1      -9.090   3.091   1.492  0.00  0.00    +0.073 C 
ATOM     29  C   UNL     1      -9.222   4.211   0.458  0.00  0.00    +0.028 C 
BRANCH  28  31
ATOM     30  C   UNL     1      -9.884   0.811   2.133  0.00  0.00    +0.005 C 
ATOM     31  C   UNL     1     -10.109   1.991   1.186  0.00  0.00    +0.019 C 
ENDBRANCH  28  31
ENDBRANCH  18  28
ENDBRANCH  17  19
ENDBRANCH   1  17
TORSDOF 8
