REMARK  Name = ZINC09462238
REMARK  4 active torsions:
REMARK  status: ('A' for Active; 'I' for Inactive)
REMARK    1  A    between atoms: C_1  and  C_2
REMARK    2  A    between atoms: C_2  and  C_3
REMARK    3  A    between atoms: C_3  and  N_54
REMARK    4  A    between atoms: C_13  and  C_15
REMARK                            x       y       z     vdW  Elec       q    Type
REMARK                         _______ _______ _______ _____ _____    ______ ____
ROOT
ATOM      1  C   UNL     1       1.556  -2.488  -0.163  0.00  0.00    -0.073 C 
ATOM      2  C   UNL     1       1.432  -4.013  -0.111  0.00  0.00    +0.052 C 
ATOM      3  C   UNL     1       1.889  -4.603  -1.444  0.00  0.00    +0.189 C 
ATOM      4  C   UNL     1       1.066  -4.004  -2.584  0.00  0.00    +0.052 C 
ATOM      5  C   UNL     1       1.202  -2.479  -2.561  0.00  0.00    -0.073 C 
ATOM      6  N   UNL     1       3.312  -4.323  -1.655  0.00  0.00    -0.207 N 
ATOM      7  C   UNL     1       4.338  -4.895  -0.752  0.00  0.00    +0.136 C 
ATOM      8  C   UNL     1       5.647  -4.716  -1.533  0.00  0.00    +0.086 C 
ATOM      9  C   UNL     1       5.258  -3.799  -2.675  0.00  0.00    +0.068 C 
ATOM     10  N   UNL     1       3.977  -3.623  -2.669  0.00  0.00    -0.185 NA
ATOM     11  C   UNL     1       3.983  -6.347  -0.569  0.00  0.00    +0.018 A 
ATOM     12  C   UNL     1       4.929  -7.213  -0.055  0.00  0.00    +0.024 A 
ATOM     13  C   UNL     1       4.615  -8.542   0.163  0.00  0.00    +0.018 A 
ATOM     14  C   UNL     1       3.345  -9.003  -0.137  0.00  0.00    +0.019 A 
ATOM     15  C   UNL     1       2.403  -8.145  -0.659  0.00  0.00    +0.047 A 
ATOM     16  C   UNL     1       2.714  -6.805  -0.891  0.00  0.00    +0.129 A 
ATOM     17  O   UNL     1       1.743  -6.023  -1.430  0.00  0.00    -0.467 OA
ATOM     18 BR   UNL     1       5.913  -9.722   0.867  0.00  0.00    -0.050 Br
ATOM     19  N   UNL     1       0.709  -1.975  -1.261  0.00  0.00    +0.380 N 
ATOM     20  H   UNL     1      -0.253  -2.303  -1.120  0.00  0.00    -0.082 HD
ENDROOT
BRANCH   9  21
ATOM     21  C   UNL     1       6.196  -3.199  -3.643  0.00  0.00    -0.002 A 
ATOM     22  C   UNL     1       7.565  -3.457  -3.545  0.00  0.00    +0.011 A 
ATOM     23  C   UNL     1       8.436  -2.898  -4.456  0.00  0.00    +0.020 A 
ATOM     24  C   UNL     1       7.957  -2.072  -5.460  0.00  0.00    +0.041 A 
ATOM     25  C   UNL     1       6.601  -1.808  -5.559  0.00  0.00    +0.020 A 
ATOM     26  C   UNL     1       5.719  -2.365  -4.657  0.00  0.00    +0.011 A 
ATOM     27 CL   UNL     1       9.060  -1.365  -6.598  0.00  0.00    -0.084 Cl
ENDBRANCH   9  21
BRANCH  19  28
ATOM     28  C   UNL     1       0.718  -0.497  -1.257  0.00  0.00    -0.079 C 
BRANCH  28  30
ATOM     29  C   UNL     1      -0.019   1.526   0.010  0.00  0.00    +0.002 C 
ATOM     30  C   UNL     1       0.002  -0.004   0.002  0.00  0.00    -0.022 C 
ENDBRANCH  28  30
ENDBRANCH  19  28
TORSDOF 3
