REMARK  Name = ZINC21356363
REMARK  5 active torsions:
REMARK  status: ('A' for Active; 'I' for Inactive)
REMARK    1  A    between atoms: C_1  and  C_2
REMARK    2  A    between atoms: C_5  and  S_9
REMARK    3  A    between atoms: C_7  and  C_8
REMARK    4  A    between atoms: S_9  and  N_12
REMARK    5  A    between atoms: C_22  and  C_24
REMARK                            x       y       z     vdW  Elec       q    Type
REMARK                         _______ _______ _______ _____ _____    ______ ____
ROOT
ATOM      1  N   UNL     1      -2.435   1.087   0.137  0.00  0.00    -0.189 N 
ATOM      2  C   UNL     1      -1.218   1.758   0.017  0.00  0.00    +0.073 A 
ATOM      3  C   UNL     1      -0.013   1.076   0.008  0.00  0.00    +0.026 A 
ATOM      4  C   UNL     1       1.173   1.790   0.001  0.00  0.00    +0.002 A 
ATOM      5  C   UNL     1       1.156   3.173   0.003  0.00  0.00    +0.002 A 
ATOM      6  C   UNL     1      -0.047   3.858  -0.009  0.00  0.00    +0.025 A 
ATOM      7  C   UNL     1      -1.234   3.145  -0.012  0.00  0.00    +0.054 A 
ATOM      8  N   UNL     1      -2.474   3.766  -0.084  0.00  0.00    -0.316 N 
ATOM      9  C   UNL     1      -3.419   3.731   0.889  0.00  0.00    +0.017 C 
ATOM     10  C   UNL     1      -3.802   2.619   1.542  0.00  0.00    +0.039 C 
ATOM     11  C   UNL     1      -3.257   1.230   1.319  0.00  0.00    +0.169 C 
ATOM     12  C   UNL     1      -4.795   2.692   2.547  0.00  0.00    +0.163 C 
ATOM     13  O   UNL     1      -5.139   1.668   3.105  0.00  0.00    -0.292 OA
ATOM     14  C   UNL     1      -5.439   3.985   2.948  0.00  0.00    +0.080 C 
ATOM     15  C   UNL     1      -4.451   5.127   2.682  0.00  0.00    +0.014 C 
ATOM     16  C   UNL     1      -4.062   5.071   1.205  0.00  0.00    +0.051 C 
ATOM     17  H   UNL     1      -2.751   4.339  -0.981  0.00  0.00    +0.152 HD
ENDROOT
BRANCH  11  18
ATOM     18  C   UNL     1      -2.433   0.843   2.520  0.00  0.00    +0.016 A 
ATOM     19  C   UNL     1      -2.775   0.064   3.575  0.00  0.00    +0.013 A 
ATOM     20  C   UNL     1      -1.844  -0.161   4.572  0.00  0.00    +0.008 A 
ATOM     21  C   UNL     1      -0.620   0.413   4.470  0.00  0.00    +0.045 A 
ATOM     22  S   UNL     1      -0.755   1.298   2.925  0.00  0.00    -0.099 S 
ENDBRANCH  11  18
BRANCH   1  23
ATOM     23  S   UNL     1      -2.946   0.111  -1.099  0.00  0.00    +0.076 S 
ATOM     24  O   UNL     1      -1.783  -0.283  -1.814  0.00  0.00    -0.150 OA
ATOM     25  O   UNL     1      -3.844  -0.831  -0.528  0.00  0.00    -0.150 OA
BRANCH  23  30
ATOM     26  C   UNL     1      -6.198   3.539  -4.852  0.00  0.00    +0.044 C 
ATOM     27  C   UNL     1      -5.386   2.683  -3.914  0.00  0.00    -0.047 A 
ATOM     28  C   UNL     1      -6.004   2.027  -2.866  0.00  0.00    +0.005 A 
ATOM     29  C   UNL     1      -5.260   1.237  -2.010  0.00  0.00    +0.029 A 
ATOM     30  C   UNL     1      -3.896   1.112  -2.195  0.00  0.00    +0.109 A 
ATOM     31  C   UNL     1      -3.277   1.768  -3.243  0.00  0.00    +0.032 A 
ATOM     32  C   UNL     1      -4.022   2.554  -4.103  0.00  0.00    -0.046 A 
ATOM     33  C   UNL     1      -3.348   3.268  -5.245  0.00  0.00    +0.044 C 
ENDBRANCH  23  30
ENDBRANCH   1  23
TORSDOF 3
