REMARK  Name = ZINC35570624
REMARK  7 active torsions:
REMARK  status: ('A' for Active; 'I' for Inactive)
REMARK    1  A    between atoms: C_4  and  C_7
REMARK    2  A    between atoms: C_7  and  C_9
REMARK    3  A    between atoms: C_11  and  C_23
REMARK    4  A    between atoms: C_17  and  C_18
REMARK    5  A    between atoms: C_17  and  O_22
REMARK    6  A    between atoms: C_26  and  O_32
REMARK    7  A    between atoms: C_27  and  N_29
REMARK                            x       y       z     vdW  Elec       q    Type
REMARK                         _______ _______ _______ _____ _____    ______ ____
ROOT
ATOM      1  C   UNL     1       4.359  -1.663   0.197  0.00  0.00    +0.144 C 
ATOM      2  C   UNL     1       4.972  -2.676  -0.776  0.00  0.00    +0.117 C 
ATOM      3  N   UNL     1       6.331  -2.999  -0.339  0.00  0.00    -0.319 N 
ATOM      4  C   UNL     1       6.680  -2.946   0.955  0.00  0.00    +0.133 C 
ATOM      5  S   UNL     1       8.285  -3.352   1.391  0.00  0.00    -0.019 S 
ATOM      6  N   UNL     1       5.821  -2.588   1.921  0.00  0.00    -0.291 N 
ATOM      7  C   UNL     1       4.428  -2.239   1.615  0.00  0.00    +0.241 C 
ATOM      8  H   UNL     1       6.994  -3.257  -1.000  0.00  0.00    +0.148 HD
ATOM      9  H   UNL     1       6.126  -2.558   2.841  0.00  0.00    +0.151 HD
ENDROOT
BRANCH   2  10
ATOM     10  C   UNL     1       5.013  -2.083  -2.160  0.00  0.00    -0.024 A 
ATOM     11  C   UNL     1       6.127  -1.375  -2.575  0.00  0.00    +0.009 A 
ATOM     12  C   UNL     1       6.167  -0.831  -3.844  0.00  0.00    +0.048 A 
ATOM     13  C   UNL     1       5.090  -0.996  -4.703  0.00  0.00    +0.147 A 
ATOM     14  C   UNL     1       3.975  -1.707  -4.285  0.00  0.00    +0.168 A 
ATOM     15  C   UNL     1       3.941  -2.253  -3.016  0.00  0.00    +0.042 A 
BRANCH  14  16
ATOM     16  N   UNL     1       2.824  -1.884  -5.199  0.00  0.00    +0.060 N 
ATOM     17  O   UNL     1       1.852  -2.504  -4.834  0.00  0.00    -0.126 OA
ATOM     18  O   UNL     1       2.856  -1.409  -6.310  0.00  0.00    -0.126 OA
ENDBRANCH  14  16
BRANCH  13  19
ATOM     19  O   UNL     1       5.127  -0.461  -5.952  0.00  0.00    -0.504 OA
ATOM     20  H   UNL     1       5.498  -1.052  -6.622  0.00  0.00    +0.292 HD
ENDBRANCH  13  19
ENDBRANCH   2  10
BRANCH   7  21
ATOM     21  C   UNL     1       3.557  -3.494   1.700  0.00  0.00    +0.436 C 
ATOM     22  F   UNL     1       4.022  -4.447   0.788  0.00  0.00    -0.166 F 
ATOM     23  F   UNL     1       3.620  -4.019   2.996  0.00  0.00    -0.166 F 
ATOM     24  F   UNL     1       2.232  -3.163   1.396  0.00  0.00    -0.166 F 
ENDBRANCH   7  21
BRANCH   1  25
ATOM     25  C   UNL     1       5.134  -0.371   0.137  0.00  0.00    +0.173 C 
ATOM     26  O   UNL     1       6.333  -0.392  -0.043  0.00  0.00    -0.292 OA
BRANCH  25  30
ATOM     27  C   UNL     1       3.120   3.333   0.598  0.00  0.00    +0.000 A 
ATOM     28  C   UNL     1       4.489   3.314   0.393  0.00  0.00    +0.001 A 
ATOM     29  C   UNL     1       5.151   2.114   0.242  0.00  0.00    +0.011 A 
ATOM     30  C   UNL     1       4.435   0.914   0.297  0.00  0.00    +0.018 A 
ATOM     31  C   UNL     1       3.053   0.941   0.505  0.00  0.00    +0.011 A 
ATOM     32  C   UNL     1       2.405   2.150   0.654  0.00  0.00    +0.001 A 
ENDBRANCH  25  30
ENDBRANCH   1  25
BRANCH   7  33
ATOM     33  O   UNL     1       3.958  -1.265   2.550  0.00  0.00    -0.364 OA
ATOM     34  H   UNL     1       3.973  -1.563   3.469  0.00  0.00    +0.212 HD
ENDBRANCH   7  33
TORSDOF 7
