REMARK  Name = ZINC39610110
REMARK  5 active torsions:
REMARK  status: ('A' for Active; 'I' for Inactive)
REMARK    1  A    between atoms: C_3  and  C_33
REMARK    2  A    between atoms: C_6  and  C_7
REMARK    3  A    between atoms: C_11  and  C_20
REMARK    4  A    between atoms: N_22  and  C_23
REMARK    5  A    between atoms: C_23  and  C_24
REMARK                            x       y       z     vdW  Elec       q    Type
REMARK                         _______ _______ _______ _____ _____    ______ ____
ROOT
ATOM      1  C   UNL     1      -1.264  -0.763   0.011  0.00  0.00    +0.247 C 
ATOM      2  O   UNL     1      -2.322  -0.177   0.133  0.00  0.00    -0.270 OA
ATOM      3  N   UNL     1      -1.246  -2.106  -0.098  0.00  0.00    -0.296 N 
ATOM      4  C   UNL     1      -0.064  -3.000  -0.125  0.00  0.00    +0.121 C 
ATOM      5  C   UNL     1      -0.486  -4.231   0.708  0.00  0.00    +0.100 C 
ATOM      6  C   UNL     1      -2.022  -4.242   0.641  0.00  0.00    -0.004 C 
ATOM      7  C   UNL     1      -2.405  -3.024  -0.213  0.00  0.00    +0.115 C 
ATOM      8  C   UNL     1      -2.614  -4.104   2.041  0.00  0.00    -0.010 C 
ATOM      9  C   UNL     1      -4.141  -4.175   1.954  0.00  0.00    -0.082 C 
ATOM     10  N   UNL     1      -4.540  -5.455   1.357  0.00  0.00    +0.379 N 
ATOM     11  C   UNL     1      -4.045  -5.540  -0.022  0.00  0.00    -0.082 C 
ATOM     12  C   UNL     1      -2.514  -5.526  -0.019  0.00  0.00    -0.010 C 
ATOM     13  H   UNL     1      -4.152  -6.213   1.899  0.00  0.00    -0.086 HD
ATOM     14  H   UNL     1      -5.546  -5.525   1.357  0.00  0.00    -0.086 HD
ENDROOT
BRANCH   1  20
ATOM     15  C   UNL     1       1.129  -0.539  -0.644  0.00  0.00    +0.013 A 
ATOM     16  C   UNL     1       2.309   0.177  -0.667  0.00  0.00    +0.013 A 
ATOM     17  C   UNL     1       2.377   1.423  -0.070  0.00  0.00    +0.055 A 
ATOM     18  C   UNL     1       1.265   1.960   0.554  0.00  0.00    +0.013 A 
ATOM     19  C   UNL     1       0.079   1.256   0.584  0.00  0.00    +0.013 A 
ATOM     20  C   UNL     1       0.004  -0.002  -0.017  0.00  0.00    +0.037 A 
BRANCH  17  21
ATOM     21  C   UNL     1       3.669   2.199  -0.098  0.00  0.00    +0.417 C 
ATOM     22  F   UNL     1       3.705   3.003  -1.242  0.00  0.00    -0.166 F 
ATOM     23  F   UNL     1       3.754   3.006   1.042  0.00  0.00    -0.166 F 
ATOM     24  F   UNL     1       4.747   1.308  -0.120  0.00  0.00    -0.166 F 
ENDBRANCH  17  21
ENDBRANCH   1  20
BRANCH   5  25
ATOM     25  C   UNL     1       0.077  -5.491   0.104  0.00  0.00    +0.218 C 
ATOM     26  O   UNL     1       0.347  -5.529  -1.078  0.00  0.00    -0.275 OA
ATOM     27  N   UNL     1       0.280  -6.577   0.877  0.00  0.00    -0.311 N 
ATOM     28  H   UNL     1       0.064  -6.546   1.822  0.00  0.00    +0.149 HD
BRANCH  27  29
ATOM     29  C   UNL     1       0.828  -7.802   0.290  0.00  0.00    +0.139 C 
BRANCH  29  30
ATOM     30  C   UNL     1       0.957  -8.857   1.358  0.00  0.00    -0.027 A 
ATOM     31  C   UNL     1       2.124  -8.956   2.093  0.00  0.00    +0.009 A 
ATOM     32  C   UNL     1       2.247  -9.921   3.074  0.00  0.00    +0.050 A 
ATOM     33  C   UNL     1       1.199 -10.793   3.324  0.00  0.00    +0.166 A 
ATOM     34  C   UNL     1       0.024 -10.694   2.584  0.00  0.00    +0.167 A 
ATOM     35  C   UNL     1      -0.095  -9.720   1.606  0.00  0.00    +0.054 A 
ATOM     36  O   UNL     1      -0.846 -11.654   3.015  0.00  0.00    -0.453 OA
ATOM     37  C   UNL     1      -0.042 -12.602   3.742  0.00  0.00    +0.466 C 
ATOM     38  O   UNL     1       1.067 -11.816   4.218  0.00  0.00    -0.453 OA
ENDBRANCH  29  30
ENDBRANCH  27  29
ENDBRANCH   5  25
TORSDOF 5
