REMARK  Name = ZINC13399168
REMARK  9 active torsions:
REMARK  status: ('A' for Active; 'I' for Inactive)
REMARK    1  A    between atoms: C_1  and  C_2
REMARK    2  A    between atoms: C_2  and  C_3
REMARK    3  A    between atoms: C_2  and  C_4
REMARK    4  A    between atoms: C_4  and  N_5
REMARK    5  A    between atoms: C_6  and  C_23
REMARK    6  A    between atoms: C_9  and  S_10
REMARK    7  A    between atoms: S_10  and  C_11
REMARK    8  A    between atoms: C_11  and  C_12
REMARK    9  A    between atoms: C_18  and  C_21
REMARK                            x       y       z     vdW  Elec       q    Type
REMARK                         _______ _______ _______ _____ _____    ______ ____
ROOT
ATOM      1  N   UNL     1       0.043   0.745   2.298  0.00  0.00    -0.318 N 
ATOM      2  C   UNL     1      -0.547  -0.329   2.941  0.00  0.00    +0.069 A 
ATOM      3  C   UNL     1       0.021  -0.403   4.174  0.00  0.00    +0.140 A 
ATOM      4  N   UNL     1       0.913   0.589   4.284  0.00  0.00    -0.230 NA
ATOM      5  C   UNL     1       0.939   1.285   3.170  0.00  0.00    +0.170 A 
ENDROOT
BRANCH   2   6
ATOM      6  C   UNL     1      -1.588  -1.223   2.393  0.00  0.00    +0.000 A 
ATOM      7  C   UNL     1      -1.798  -1.292   1.015  0.00  0.00    +0.011 A 
ATOM      8  C   UNL     1      -2.768  -2.133   0.509  0.00  0.00    +0.016 A 
ATOM      9  C   UNL     1      -3.541  -2.898   1.367  0.00  0.00    +0.018 A 
ATOM     10  C   UNL     1      -3.341  -2.830   2.735  0.00  0.00    +0.016 A 
ATOM     11  C   UNL     1      -2.370  -1.997   3.253  0.00  0.00    +0.011 A 
ATOM     12 BR   UNL     1      -4.874  -4.041   0.666  0.00  0.00    -0.050 Br
ENDBRANCH   2   6
BRANCH   1  13
ATOM     13  C   UNL     1      -0.245   1.216   0.941  0.00  0.00    +0.127 C 
BRANCH  13  15
ATOM     14  C   UNL     1       2.125   0.922   0.207  0.00  0.00    +0.009 C 
ATOM     15  C   UNL     1       0.676   0.504  -0.052  0.00  0.00    +0.003 C 
ATOM     16  C   UNL     1       0.281   0.889  -1.480  0.00  0.00    +0.009 C 
ENDBRANCH  13  15
ENDBRANCH   1  13
BRANCH   5  17
ATOM     17  S   UNL     1       1.962   2.685   2.857  0.00  0.00    -0.078 S 
BRANCH  17  18
ATOM     18  C   UNL     1       2.845   2.788   4.434  0.00  0.00    +0.173 C 
BRANCH  18  19
ATOM     19  C   UNL     1       3.805   3.949   4.397  0.00  0.00    +0.226 C 
ATOM     20  O   UNL     1       3.885   4.638   3.402  0.00  0.00    -0.275 OA
ATOM     21  N   UNL     1       4.576   4.220   5.469  0.00  0.00    -0.300 N 
ATOM     22  C   UNL     1       4.486   3.398   6.683  0.00  0.00    +0.108 C 
ATOM     23  C   UNL     1       4.230   4.308   7.883  0.00  0.00    +0.020 C 
ATOM     24  C   UNL     1       5.308   5.393   7.936  0.00  0.00    +0.018 C 
ATOM     25  C   UNL     1       5.245   6.240   6.663  0.00  0.00    +0.119 C 
ATOM     26  C   UNL     1       5.517   5.348   5.448  0.00  0.00    +0.122 C 
BRANCH  25  27
ATOM     27  C   UNL     1       6.285   7.328   6.732  0.00  0.00    +0.361 C 
ATOM     28  O   UNL     1       7.002   7.419   7.700  0.00  0.00    -0.246 OA
ATOM     29  O   UNL     1       6.416   8.196   5.716  0.00  0.00    -0.246 OA
ENDBRANCH  25  27
ENDBRANCH  18  19
ENDBRANCH  17  18
ENDBRANCH   5  17
TORSDOF 7
