REMARK  Name = ZINC09066063
REMARK  12 active torsions:
REMARK  status: ('A' for Active; 'I' for Inactive)
REMARK    1  A    between atoms: C_1  and  C_2
REMARK    2  A    between atoms: C_2  and  C_3
REMARK    3  A    between atoms: C_2  and  C_4
REMARK    4  A    between atoms: C_2  and  O_5
REMARK    5  A    between atoms: O_5  and  C_6
REMARK    6  A    between atoms: C_6  and  C_8
REMARK    7  A    between atoms: C_12  and  N_13
REMARK    8  A    between atoms: C_14  and  C_15
REMARK    9  A    between atoms: C_19  and  O_22
REMARK   10  A    between atoms: C_20  and  O_21
REMARK   11  A    between atoms: O_22  and  C_23
REMARK   12  A    between atoms: C_28  and  N_54
REMARK                            x       y       z     vdW  Elec       q    Type
REMARK                         _______ _______ _______ _____ _____    ______ ____
ROOT
ATOM      1  C   UNL     1       3.366   6.467   0.004  0.00  0.00    +0.095 A 
ATOM      2  C   UNL     1       3.092   7.845   0.012  0.00  0.00    -0.025 A 
ATOM      3  C   UNL     1       1.786   8.214   0.026  0.00  0.00    -0.021 A 
ATOM      4  S   UNL     1       0.890   6.686   0.020  0.00  0.00    -0.075 S 
ATOM      5  C   UNL     1       2.287   5.573   0.009  0.00  0.00    +0.115 A 
ATOM      6  C   UNL     1       1.251   9.610   0.040  0.00  0.00    -0.036 C 
ATOM      7  C   UNL     1       3.541  10.241  -0.431  0.00  0.00    -0.074 C 
ATOM      8  C   UNL     1       4.178   8.919   0.003  0.00  0.00    +0.018 C 
ATOM      9  C   UNL     1       1.941  11.927   0.249  0.00  0.00    -0.096 C 
ATOM     10  N   UNL     1       2.362  10.519   0.414  0.00  0.00    +0.381 N 
ATOM     11  H   UNL     1       2.610  10.358   1.397  0.00  0.00    -0.082 HD
ENDROOT
BRANCH   1  12
ATOM     12  C   UNL     1       4.747   5.977  -0.011  0.00  0.00    +0.343 C 
ATOM     13  O   UNL     1       5.310   5.777  -1.070  0.00  0.00    -0.245 OA
BRANCH  12  14
ATOM     14  O   UNL     1       5.393   5.746   1.151  0.00  0.00    -0.455 OA
BRANCH  14  16
ATOM     15  C   UNL     1       7.614   6.283   0.309  0.00  0.00    +0.055 C 
ATOM     16  C   UNL     1       6.758   5.261   1.060  0.00  0.00    +0.106 C 
ATOM     17  C   UNL     1       7.322   5.059   2.468  0.00  0.00    +0.055 C 
ATOM     18  C   UNL     1       6.778   3.929   0.307  0.00  0.00    +0.055 C 
ENDBRANCH  14  16
ENDBRANCH  12  14
ENDBRANCH   1  12
BRANCH   5  19
ATOM     19  N   UNL     1       2.300   4.223   0.002  0.00  0.00    -0.247 NA
ATOM     20  C   UNL     1       1.173   3.558   0.009  0.00  0.00    +0.123 C 
BRANCH  20  21
ATOM     21  C   UNL     1       1.187   2.090   0.002  0.00  0.00    +0.039 A 
ATOM     22  C   UNL     1      -0.017   1.374   0.010  0.00  0.00    +0.028 A 
ATOM     23  C   UNL     1       0.002  -0.004   0.002  0.00  0.00    +0.022 A 
ATOM     24  C   UNL     1       1.208  -0.688  -0.013  0.00  0.00    +0.064 A 
ATOM     25  C   UNL     1       2.407   0.005  -0.021  0.00  0.00    +0.163 A 
ATOM     26  C   UNL     1       2.406   1.396  -0.013  0.00  0.00    +0.167 A 
ATOM     27 BR   UNL     1      -1.625  -0.967   0.013  0.00  0.00    -0.050 Br
BRANCH  26  28
ATOM     28  O   UNL     1       3.580   2.079  -0.021  0.00  0.00    -0.503 OA
ATOM     29  H   UNL     1       3.912   2.281  -0.907  0.00  0.00    +0.292 HD
ENDBRANCH  26  28
BRANCH  25  30
ATOM     30  O   UNL     1       3.585  -0.674  -0.036  0.00  0.00    -0.491 OA
ATOM     31  C   UNL     1       3.511  -2.101  -0.044  0.00  0.00    +0.277 C 
ENDBRANCH  25  30
ENDBRANCH  20  21
ENDBRANCH   5  19
TORSDOF 7
