REMARK  Name = ZINC01445920
REMARK  2 active torsions:
REMARK  status: ('A' for Active; 'I' for Inactive)
REMARK    1  A    between atoms: C_11  and  C_27
REMARK    2  A    between atoms: C_17  and  C_22
REMARK                            x       y       z     vdW  Elec       q    Type
REMARK                         _______ _______ _______ _____ _____    ______ ____
ROOT
ATOM      1  C   UNL     1      -6.398   2.210   6.069  0.00  0.00    +0.001 A 
ATOM      2  C   UNL     1      -5.016   2.387   6.088  0.00  0.00    +0.001 A 
ATOM      3  C   UNL     1      -4.291   2.361   4.937  0.00  0.00    +0.009 A 
ATOM      4  C   UNL     1      -4.943   2.153   3.708  0.00  0.00    -0.012 A 
ATOM      5  C   UNL     1      -6.348   1.970   3.690  0.00  0.00    -0.017 A 
ATOM      6  C   UNL     1      -7.063   2.005   4.900  0.00  0.00    +0.008 A 
ATOM      7  C   UNL     1      -7.004   1.757   2.465  0.00  0.00    +0.010 A 
ATOM      8  C   UNL     1      -6.287   1.730   1.311  0.00  0.00    +0.024 A 
ATOM      9  C   UNL     1      -4.898   1.911   1.319  0.00  0.00    +0.036 A 
ATOM     10  C   UNL     1      -4.224   2.123   2.501  0.00  0.00    -0.007 A 
ATOM     11  C   UNL     1      -2.736   2.324   2.509  0.00  0.00    +0.086 C 
ATOM     12  C   UNL     1      -2.106   1.822   1.236  0.00  0.00    +0.024 C 
ATOM     13  C   UNL     1      -2.843   1.623   0.121  0.00  0.00    +0.016 C 
ATOM     14  N   UNL     1      -4.186   1.870   0.120  0.00  0.00    -0.317 N 
ATOM     15  C   UNL     1      -2.209   1.118  -1.152  0.00  0.00    +0.062 C 
ATOM     16  C   UNL     1      -0.758   1.595  -1.230  0.00  0.00    +0.068 C 
ATOM     17  C   UNL     1      -0.013   1.086   0.008  0.00  0.00    +0.091 C 
ATOM     18  C   UNL     1      -0.721   1.573   1.242  0.00  0.00    +0.162 C 
ATOM     19  O   UNL     1      -0.085   1.755   2.262  0.00  0.00    -0.292 OA
ATOM     20  H   UNL     1      -4.647   2.020  -0.720  0.00  0.00    +0.152 HD
ENDROOT
BRANCH  11  21
ATOM     21  C   UNL     1      -2.439   3.793   2.660  0.00  0.00    -0.032 A 
ATOM     22  C   UNL     1      -2.860   4.685   1.691  0.00  0.00    +0.008 A 
ATOM     23  C   UNL     1      -2.594   6.035   1.827  0.00  0.00    +0.050 A 
ATOM     24  C   UNL     1      -1.896   6.496   2.932  0.00  0.00    +0.166 A 
ATOM     25  C   UNL     1      -1.467   5.597   3.905  0.00  0.00    +0.167 A 
ATOM     26  C   UNL     1      -1.742   4.246   3.764  0.00  0.00    +0.054 A 
ATOM     27  O   UNL     1      -0.809   6.290   4.879  0.00  0.00    -0.453 OA
ATOM     28  C   UNL     1      -1.193   7.666   4.699  0.00  0.00    +0.466 C 
ATOM     29  O   UNL     1      -1.506   7.752   3.296  0.00  0.00    -0.453 OA
ENDBRANCH  11  21
BRANCH  16  30
ATOM     30  C   UNL     1      -0.110   1.045  -2.474  0.00  0.00    +0.109 A 
ATOM     31  C   UNL     1       0.435   1.773  -3.465  0.00  0.00    +0.045 A 
ATOM     32  C   UNL     1       0.924   0.857  -4.425  0.00  0.00    +0.041 A 
ATOM     33  C   UNL     1       0.649  -0.376  -3.963  0.00  0.00    +0.195 A 
ATOM     34  O   UNL     1       0.028  -0.256  -2.778  0.00  0.00    -0.468 OA
ENDBRANCH  16  30
TORSDOF 2
