REMARK  Name = ZINC62038966
REMARK  10 active torsions:
REMARK  status: ('A' for Active; 'I' for Inactive)
REMARK    1  A    between atoms: C_1  and  C_2
REMARK    2  A    between atoms: C_2  and  C_3
REMARK    3  A    between atoms: C_2  and  C_4
REMARK    4  A    between atoms: C_2  and  C_5
REMARK    5  A    between atoms: C_17  and  S_19
REMARK    6  A    between atoms: S_19  and  C_20
REMARK    7  A    between atoms: C_20  and  C_21
REMARK    8  A    between atoms: N_23  and  C_24
REMARK    9  A    between atoms: C_26  and  N_31
REMARK   10  A    between atoms: C_29  and  O_30
REMARK                            x       y       z     vdW  Elec       q    Type
REMARK                         _______ _______ _______ _____ _____    ______ ____
ROOT
ATOM      1  C   UNL     1       0.735  -0.594  -1.238  0.00  0.00    -0.000 C 
ATOM      2  C   UNL     1      -0.002  -0.074  -2.475  0.00  0.00    +0.009 C 
ATOM      3  C   UNL     1       0.552  -0.747  -3.731  0.00  0.00    +0.037 C 
ATOM      4  C   UNL     1       2.069  -0.577  -3.755  0.00  0.00    -0.023 A 
ATOM      5  C   UNL     1       2.743  -0.266  -2.623  0.00  0.00    -0.004 A 
ATOM      6  S   UNL     1       4.447  -0.170  -3.113  0.00  0.00    -0.075 S 
ATOM      7  C   UNL     1       4.246  -0.545  -4.824  0.00  0.00    +0.092 A 
ATOM      8  C   UNL     1       2.861  -0.734  -4.961  0.00  0.00    +0.075 A 
ATOM      9  C   UNL     1       2.365  -1.071  -6.319  0.00  0.00    +0.282 A 
ATOM     10  O   UNL     1       1.180  -1.254  -6.548  0.00  0.00    -0.265 OA
ATOM     11  N   UNL     1       3.299  -1.160  -7.284  0.00  0.00    -0.185 NA
ATOM     12  C   UNL     1       4.583  -0.971  -7.087  0.00  0.00    +0.171 A 
ATOM     13  N   UNL     1       5.117  -0.658  -5.863  0.00  0.00    -0.328 N 
ATOM     14  C   UNL     1       2.172  -0.053  -1.254  0.00  0.00    +0.046 C 
ATOM     15  H   UNL     1       6.071  -0.523  -5.743  0.00  0.00    +0.168 HD
ENDROOT
BRANCH   1  17
ATOM     16  C   UNL     1      -0.005   1.418   0.046  0.00  0.00    +0.011 C 
ATOM     17  C   UNL     1       0.020  -0.112   0.026  0.00  0.00    -0.035 C 
ATOM     18  C   UNL     1       0.764  -0.626   1.260  0.00  0.00    +0.011 C 
ATOM     19  C   UNL     1      -1.413  -0.645   0.036  0.00  0.00    +0.011 C 
ENDBRANCH   1  17
BRANCH  12  20
ATOM     20  S   UNL     1       5.674  -1.128  -8.462  0.00  0.00    -0.078 S 
BRANCH  20  21
ATOM     21  C   UNL     1       4.577  -1.540  -9.847  0.00  0.00    +0.173 C 
BRANCH  21  22
ATOM     22  C   UNL     1       5.394  -1.704 -11.103  0.00  0.00    +0.228 C 
ATOM     23  O   UNL     1       6.598  -1.557 -11.067  0.00  0.00    -0.275 OA
ATOM     24  N   UNL     1       4.787  -2.013 -12.266  0.00  0.00    -0.282 N 
ATOM     25  H   UNL     1       3.834  -2.194 -12.282  0.00  0.00    +0.155 HD
BRANCH  24  26
ATOM     26  C   UNL     1       5.533  -2.074 -13.450  0.00  0.00    +0.078 A 
ATOM     27  C   UNL     1       6.843  -2.528 -13.425  0.00  0.00    +0.059 A 
ATOM     28  C   UNL     1       7.577  -2.587 -14.595  0.00  0.00    +0.128 A 
ATOM     29  C   UNL     1       7.008  -2.194 -15.792  0.00  0.00    +0.036 A 
ATOM     30  C   UNL     1       5.702  -1.740 -15.825  0.00  0.00    +0.049 A 
ATOM     31  C   UNL     1       4.958  -1.683 -14.658  0.00  0.00    +0.138 A 
BRANCH  28  32
ATOM     32  N   UNL     1       8.975  -3.072 -14.566  0.00  0.00    +0.056 N 
ATOM     33  O   UNL     1       9.474  -3.416 -13.520  0.00  0.00    -0.126 OA
ATOM     34  O   UNL     1       9.618  -3.124 -15.589  0.00  0.00    -0.126 OA
ENDBRANCH  28  32
BRANCH  31  35
ATOM     35  O   UNL     1       3.672  -1.243 -14.690  0.00  0.00    -0.505 OA
ATOM     36  H   UNL     1       3.581  -0.288 -14.565  0.00  0.00    +0.292 HD
ENDBRANCH  31  35
ENDBRANCH  24  26
ENDBRANCH  21  22
ENDBRANCH  20  21
ENDBRANCH  12  20
TORSDOF 7
