REMARK  Name = ZINC41585004
REMARK  8 active torsions:
REMARK  status: ('A' for Active; 'I' for Inactive)
REMARK    1  A    between atoms: C_1  and  C_2
REMARK    2  A    between atoms: C_5  and  C_7
REMARK    3  A    between atoms: C_12  and  C_36
REMARK    4  A    between atoms: C_14  and  O_35
REMARK    5  A    between atoms: C_15  and  C_18
REMARK    6  A    between atoms: C_18  and  N_19
REMARK    7  A    between atoms: N_22  and  C_25
REMARK    8  A    between atoms: C_25  and  C_26
REMARK                            x       y       z     vdW  Elec       q    Type
REMARK                         _______ _______ _______ _____ _____    ______ ____
ROOT
ATOM      1  C   UNL     1       1.631  -3.173  -0.025  0.00  0.00    +0.096 C 
ATOM      2  C   UNL     1       2.980  -2.968  -0.030  0.00  0.00    +0.179 C 
ATOM      3  C   UNL     1       3.974  -3.984  -0.047  0.00  0.00    +0.232 C 
ATOM      4  O   UNL     1       3.799  -5.191  -0.059  0.00  0.00    -0.283 OA
ATOM      5  C   UNL     1       5.260  -3.265  -0.047  0.00  0.00    +0.071 A 
ATOM      6  C   UNL     1       6.592  -3.679  -0.059  0.00  0.00    -0.033 A 
ATOM      7  C   UNL     1       7.593  -2.749  -0.054  0.00  0.00    +0.050 A 
ATOM      8  C   UNL     1       7.288  -1.391  -0.037  0.00  0.00    +0.122 A 
ATOM      9  C   UNL     1       5.969  -0.965  -0.025  0.00  0.00    +0.020 A 
ATOM     10  C   UNL     1       4.941  -1.897  -0.030  0.00  0.00    +0.145 A 
ATOM     11  O   UNL     1       3.597  -1.764  -0.027  0.00  0.00    -0.451 OA
ATOM     12  C   UNL     1       6.926  -5.148  -0.076  0.00  0.00    +0.045 C 
ENDROOT
BRANCH   1  17
ATOM     13  C   UNL     1      -0.018   1.503   0.010  0.00  0.00    +0.086 C 
ATOM     14  C   UNL     1       0.002  -0.004   0.002  0.00  0.00    +0.103 A 
ATOM     15  C   UNL     1      -1.088  -0.803   0.003  0.00  0.00    +0.045 A 
ATOM     16  C   UNL     1      -0.631  -2.129  -0.007  0.00  0.00    +0.049 A 
ATOM     17  C   UNL     1       0.749  -2.069  -0.014  0.00  0.00    +0.132 A 
ATOM     18  O   UNL     1       1.104  -0.767  -0.013  0.00  0.00    -0.460 OA
ENDBRANCH   1  17
BRANCH   8  19
ATOM     19  O   UNL     1       8.291  -0.476  -0.033  0.00  0.00    -0.506 OA
ATOM     20  H   UNL     1       8.576  -0.201  -0.915  0.00  0.00    +0.292 HD
ENDBRANCH   8  19
BRANCH   9  21
ATOM     21  C   UNL     1       5.652   0.508  -0.006  0.00  0.00    -0.035 C 
BRANCH  21  22
ATOM     22  N   UNL     1       5.542   1.003  -1.385  0.00  0.00    +0.384 N 
ATOM     23  C   UNL     1       4.394   0.365  -2.043  0.00  0.00    -0.063 C 
ATOM     24  C   UNL     1       4.289   0.866  -3.485  0.00  0.00    +0.066 C 
ATOM     25  N   UNL     1       4.125   2.326  -3.483  0.00  0.00    -0.302 NA
ATOM     26  C   UNL     1       5.255   2.978  -2.805  0.00  0.00    +0.066 C 
ATOM     27  C   UNL     1       5.352   2.459  -1.369  0.00  0.00    -0.063 C 
ATOM     28  H   UNL     1       6.386   0.780  -1.891  0.00  0.00    -0.081 HD
BRANCH  25  29
ATOM     29  C   UNL     1       3.964   2.840  -4.850  0.00  0.00    +0.119 C 
BRANCH  29  30
ATOM     30  C   UNL     1       3.556   4.290  -4.797  0.00  0.00    -0.030 A 
ATOM     31  C   UNL     1       2.217   4.628  -4.753  0.00  0.00    +0.009 A 
ATOM     32  C   UNL     1       1.837   5.957  -4.703  0.00  0.00    +0.050 A 
ATOM     33  C   UNL     1       2.800   6.953  -4.698  0.00  0.00    +0.166 A 
ATOM     34  C   UNL     1       4.150   6.612  -4.742  0.00  0.00    +0.167 A 
ATOM     35  C   UNL     1       4.523   5.279  -4.786  0.00  0.00    +0.054 A 
ATOM     36  O   UNL     1       4.890   7.759  -4.727  0.00  0.00    -0.453 OA
ATOM     37  C   UNL     1       3.976   8.812  -5.085  0.00  0.00    +0.466 C 
ATOM     38  O   UNL     1       2.695   8.313  -4.655  0.00  0.00    -0.453 OA
ENDBRANCH  29  30
ENDBRANCH  25  29
ENDBRANCH  21  22
ENDBRANCH   9  21
TORSDOF 6
