REMARK  Name = ZINC34698851
REMARK  9 active torsions:
REMARK  status: ('A' for Active; 'I' for Inactive)
REMARK    1  A    between atoms: C_1  and  C_2
REMARK    2  A    between atoms: C_7  and  C_8
REMARK    3  A    between atoms: N_11  and  C_32
REMARK    4  A    between atoms: C_13  and  C_15
REMARK    5  A    between atoms: C_15  and  N_16
REMARK    6  A    between atoms: N_16  and  C_17
REMARK    7  A    between atoms: C_23  and  C_25
REMARK    8  A    between atoms: C_32  and  C_33
REMARK    9  A    between atoms: C_38  and  O_39
REMARK                            x       y       z     vdW  Elec       q    Type
REMARK                         _______ _______ _______ _____ _____    ______ ____
ROOT
ATOM      1  C   UNL     1       1.498   3.680   2.602  0.00  0.00    +0.005 C 
ATOM      2  C   UNL     1      -0.037   3.580   2.654  0.00  0.00    -0.070 C 
ATOM      3  N   UNL     1      -0.369   2.179   2.993  0.00  0.00    +0.383 N 
ATOM      4  C   UNL     1       0.809   1.649   3.726  0.00  0.00    -0.073 C 
ATOM      5  C   UNL     1       2.010   2.267   2.962  0.00  0.00    -0.005 C 
ATOM      6  H   UNL     1      -0.525   1.645   2.151  0.00  0.00    -0.081 HD
ENDROOT
BRANCH   1  13
ATOM      7  C   UNL     1       3.108   6.048   2.209  0.00  0.00    +0.044 C 
ATOM      8  C   UNL     1       2.720   5.195   1.028  0.00  0.00    -0.047 A 
ATOM      9  C   UNL     1       3.140   5.543  -0.242  0.00  0.00    +0.003 A 
ATOM     10  C   UNL     1       2.785   4.761  -1.325  0.00  0.00    +0.000 A 
ATOM     11  C   UNL     1       2.011   3.631  -1.138  0.00  0.00    +0.000 A 
ATOM     12  C   UNL     1       1.592   3.283   0.132  0.00  0.00    +0.004 A 
ATOM     13  C   UNL     1       1.951   4.063   1.216  0.00  0.00    -0.043 A 
ENDBRANCH   1  13
BRANCH   5  14
ATOM     14  C   UNL     1       3.243   2.351   3.865  0.00  0.00    +0.110 C 
BRANCH  14  15
ATOM     15  N   UNL     1       3.775   1.005   4.091  0.00  0.00    -0.294 N 
ATOM     16  C   UNL     1       3.338   0.275   5.137  0.00  0.00    +0.247 C 
ATOM     17  O   UNL     1       2.146   0.186   5.361  0.00  0.00    -0.270 OA
BRANCH  16  18
ATOM     18  C   UNL     1       4.307  -0.418   6.010  0.00  0.00    +0.037 A 
ATOM     19  C   UNL     1       5.496  -0.921   5.477  0.00  0.00    +0.016 A 
ATOM     20  C   UNL     1       6.397  -1.567   6.296  0.00  0.00    +0.039 A 
ATOM     21  C   UNL     1       6.124  -1.719   7.647  0.00  0.00    +0.123 A 
ATOM     22  C   UNL     1       4.945  -1.221   8.182  0.00  0.00    +0.039 A 
ATOM     23  C   UNL     1       4.040  -0.568   7.373  0.00  0.00    +0.016 A 
ATOM     24  F   UNL     1       7.010  -2.353   8.446  0.00  0.00    -0.205 F 
ENDBRANCH  16  18
BRANCH  15  25
ATOM     25  C   UNL     1       4.782   0.452   3.182  0.00  0.00    +0.076 C 
ATOM     26  C   UNL     1       4.623  -1.068   3.109  0.00  0.00    +0.022 C 
ATOM     27  C   UNL     1       5.675  -1.645   2.159  0.00  0.00    +0.002 C 
ATOM     28  C   UNL     1       7.073  -1.302   2.677  0.00  0.00    +0.000 C 
ATOM     29  C   UNL     1       7.231   0.218   2.750  0.00  0.00    +0.002 C 
ATOM     30  C   UNL     1       6.180   0.795   3.700  0.00  0.00    +0.022 C 
ENDBRANCH  15  25
ENDBRANCH  14  15
ENDBRANCH   5  14
BRANCH   3  31
ATOM     31  C   UNL     1      -1.561   2.134   3.851  0.00  0.00    -0.039 C 
BRANCH  31  32
ATOM     32  C   UNL     1      -2.760   2.610   3.071  0.00  0.00    -0.022 A 
ATOM     33  C   UNL     1      -3.216   3.905   3.227  0.00  0.00    +0.005 A 
ATOM     34  C   UNL     1      -4.315   4.342   2.512  0.00  0.00    +0.000 A 
ATOM     35  C   UNL     1      -4.961   3.485   1.640  0.00  0.00    +0.004 A 
ATOM     36  C   UNL     1      -4.509   2.190   1.481  0.00  0.00    +0.045 A 
ATOM     37  C   UNL     1      -3.402   1.750   2.193  0.00  0.00    +0.118 A 
BRANCH  37  38
ATOM     38  O   UNL     1      -2.952   0.478   2.034  0.00  0.00    -0.507 OA
ATOM     39  H   UNL     1      -3.353  -0.160   2.641  0.00  0.00    +0.292 HD
ENDBRANCH  37  38
ENDBRANCH  31  32
ENDBRANCH   3  31
TORSDOF 8
