REMARK  Name = ZINC10022304
REMARK  13 active torsions:
REMARK  status: ('A' for Active; 'I' for Inactive)
REMARK    1  A    between atoms: C_1  and  C_2
REMARK    2  A    between atoms: C_2  and  C_3
REMARK    3  A    between atoms: C_3  and  C_5
REMARK    4  A    between atoms: C_3  and  N_66
REMARK    5  A    between atoms: C_8  and  S_17
REMARK    6  A    between atoms: N_9  and  C_10
REMARK    7  A    between atoms: C_10  and  C_11
REMARK    8  A    between atoms: S_17  and  C_18
REMARK    9  A    between atoms: C_18  and  C_19
REMARK   10  A    between atoms: C_19  and  C_21
REMARK   11  A    between atoms: C_23  and  C_27
REMARK   12  A    between atoms: C_34  and  N_66
REMARK   13  A    between atoms: C_35  and  N_66
REMARK                            x       y       z     vdW  Elec       q    Type
REMARK                         _______ _______ _______ _____ _____    ______ ____
ROOT
ATOM      1  C   UNL     1      -5.181  -4.351   0.010  0.00  0.00    +0.121 A 
ATOM      2  N   UNL     1      -3.895  -4.558   0.003  0.00  0.00    -0.135 NA
ATOM      3  N   UNL     1      -3.273  -3.481   0.328  0.00  0.00    -0.123 NA
ATOM      4  C   UNL     1      -4.138  -2.523   0.572  0.00  0.00    +0.192 A 
ATOM      5  N   UNL     1      -5.383  -3.048   0.373  0.00  0.00    -0.303 N 
ENDROOT
BRANCH   1   6
ATOM      6  C   UNL     1      -6.250  -5.362  -0.319  0.00  0.00    +0.000 C 
BRANCH   6   9
ATOM      7  C   UNL     1      -7.390  -7.322   0.530  0.00  0.00    -0.096 C 
ATOM      8  C   UNL     1      -4.971  -7.223   0.553  0.00  0.00    -0.096 C 
ATOM      9  N   UNL     1      -6.215  -6.439   0.692  0.00  0.00    +0.383 N 
ATOM     10  H   UNL     1      -6.242  -6.018   1.628  0.00  0.00    -0.082 HD
ENDBRANCH   6   9
BRANCH   6  12
ATOM     11  C   UNL     1      -6.186  -4.825  -2.759  0.00  0.00    +0.002 C 
ATOM     12  C   UNL     1      -6.000  -5.931  -1.718  0.00  0.00    -0.011 C 
ENDBRANCH   6  12
ENDBRANCH   1   6
BRANCH   5  13
ATOM     13  C   UNL     1      -6.667  -2.359   0.519  0.00  0.00    +0.160 C 
BRANCH  13  14
ATOM     14  C   UNL     1      -6.993  -1.628  -0.758  0.00  0.00    -0.028 A 
ATOM     15  C   UNL     1      -6.518  -0.346  -0.962  0.00  0.00    +0.005 A 
ATOM     16  C   UNL     1      -6.813   0.322  -2.135  0.00  0.00    +0.000 A 
ATOM     17  C   UNL     1      -7.591  -0.288  -3.102  0.00  0.00    +0.000 A 
ATOM     18  C   UNL     1      -8.069  -1.569  -2.896  0.00  0.00    +0.000 A 
ATOM     19  C   UNL     1      -7.770  -2.239  -1.725  0.00  0.00    +0.005 A 
ENDBRANCH  13  14
ENDBRANCH   5  13
BRANCH   4  20
ATOM     20  S   UNL     1      -3.763  -0.871   1.056  0.00  0.00    -0.078 S 
BRANCH  20  21
ATOM     21  C   UNL     1      -1.956  -0.960   1.103  0.00  0.00    +0.157 C 
BRANCH  21  22
ATOM     22  C   UNL     1      -1.397   0.381   1.506  0.00  0.00    +0.175 C 
ATOM     23  O   UNL     1      -2.147   1.305   1.738  0.00  0.00    -0.291 OA
BRANCH  22  24
ATOM     24  C   UNL     1       0.053   0.567   1.616  0.00  0.00    +0.036 A 
ATOM     25  C   UNL     1       0.724   1.758   1.984  0.00  0.00    +0.043 A 
ATOM     26  C   UNL     1       2.059   1.489   1.954  0.00  0.00    +0.103 A 
ATOM     27  N   UNL     1       2.229   0.172   1.585  0.00  0.00    -0.356 N 
ATOM     28  H   UNL     1       3.083  -0.277   1.486  0.00  0.00    +0.165 HD
ATOM     29  C   UNL     1       1.028  -0.390   1.383  0.00  0.00    +0.094 A 
BRANCH  26  30
ATOM     30  C   UNL     1       3.134   2.441   2.262  0.00  0.00    +0.263 C 
ATOM     31  O   UNL     1       2.863   3.584   2.578  0.00  0.00    -0.268 OA
ATOM     32  N   UNL     1       4.421   2.047   2.195  0.00  0.00    -0.296 N 
ATOM     33  C   UNL     1       4.888   0.701   1.835  0.00  0.00    +0.108 C 
ATOM     34  C   UNL     1       6.429   0.713   1.916  0.00  0.00    +0.020 C 
ATOM     35  C   UNL     1       6.716   1.901   2.872  0.00  0.00    +0.020 C 
ATOM     36  C   UNL     1       5.594   2.895   2.478  0.00  0.00    +0.108 C 
ENDBRANCH  26  30
ENDBRANCH  22  24
ENDBRANCH  21  22
ENDBRANCH  20  21
ENDBRANCH   4  20
TORSDOF 10
