REMARK  Name = ZINC14555943
REMARK  4 active torsions:
REMARK  status: ('A' for Active; 'I' for Inactive)
REMARK    1  A    between atoms: C_10  and  O_24
REMARK    2  A    between atoms: C_12  and  O_23
REMARK    3  A    between atoms: C_14  and  O_22
REMARK    4  A    between atoms: C_16  and  O_21
REMARK                            x       y       z     vdW  Elec       q    Type
REMARK                         _______ _______ _______ _____ _____    ______ ____
ROOT
ATOM      1  C   UNL     1       7.363   4.585  -1.444  0.00  0.00    +0.000 C 
ATOM      2  C   UNL     1       6.406   5.564  -0.761  0.00  0.00    +0.005 C 
ATOM      3  C   UNL     1       4.968   5.243  -1.174  0.00  0.00    +0.065 C 
ATOM      4  C   UNL     1       4.625   3.812  -0.758  0.00  0.00    +0.171 C 
ATOM      5  C   UNL     1       5.585   2.830  -1.433  0.00  0.00    +0.065 C 
ATOM      6  C   UNL     1       7.021   3.156  -1.018  0.00  0.00    +0.005 C 
ATOM      7  O   UNL     1       4.729   3.685   0.667  0.00  0.00    -0.340 OA
ATOM      8  C   UNL     1       3.428   3.245   1.144  0.00  0.00    +0.184 C 
ATOM      9  C   UNL     1       3.472   1.715   1.152  0.00  0.00    +0.177 C 
ATOM     10  C   UNL     1       2.059   1.141   1.254  0.00  0.00    +0.176 C 
ATOM     11  C   UNL     1       1.286   1.562  -0.002  0.00  0.00    +0.176 C 
ATOM     12  C   UNL     1       1.151   3.084   0.008  0.00  0.00    +0.177 C 
ATOM     13  C   UNL     1       2.501   3.760   0.028  0.00  0.00    +0.184 C 
ATOM     14  O   UNL     1       3.280   3.499  -1.152  0.00  0.00    -0.340 OA
ENDROOT
BRANCH  12  15
ATOM     15  O   UNL     1       0.413   3.480   1.165  0.00  0.00    -0.386 OA
ATOM     16  H   UNL     1      -0.479   3.111   1.208  0.00  0.00    +0.210 HD
ENDBRANCH  12  15
BRANCH  11  17
ATOM     17  O   UNL     1      -0.011   0.963   0.007  0.00  0.00    -0.386 OA
ATOM     18  H   UNL     1       0.002  -0.004   0.002  0.00  0.00    +0.210 HD
ENDBRANCH  11  17
BRANCH  10  19
ATOM     19  O   UNL     1       2.133  -0.284   1.317  0.00  0.00    -0.386 OA
ATOM     20  H   UNL     1       1.272  -0.722   1.353  0.00  0.00    +0.210 HD
ENDBRANCH  10  19
BRANCH   9  21
ATOM     21  O   UNL     1       4.103   1.257  -0.045  0.00  0.00    -0.386 OA
ATOM     22  H   UNL     1       4.168   0.294  -0.112  0.00  0.00    +0.210 HD
ENDBRANCH   9  21
TORSDOF 4
