REMARK  Name = ZINC09680320
REMARK  9 active torsions:
REMARK  status: ('A' for Active; 'I' for Inactive)
REMARK    1  A    between atoms: C_1  and  C_2
REMARK    2  A    between atoms: C_3  and  C_29
REMARK    3  A    between atoms: C_4  and  C_22
REMARK    4  A    between atoms: C_10  and  C_15
REMARK    5  A    between atoms: C_25  and  O_28
REMARK    6  A    between atoms: C_29  and  O_31
REMARK    7  A    between atoms: O_31  and  C_32
REMARK    8  A    between atoms: C_32  and  C_33
REMARK    9  A    between atoms: C_33  and  C_34
REMARK                            x       y       z     vdW  Elec       q    Type
REMARK                         _______ _______ _______ _____ _____    ______ ____
ROOT
ATOM      1  C   UNL     1       0.048   9.095  -5.119  0.00  0.00    +0.061 C 
ATOM      2  C   UNL     1      -0.061   9.927  -3.867  0.00  0.00    +0.031 C 
ATOM      3  C   UNL     1      -0.288   9.328  -2.685  0.00  0.00    +0.154 C 
ATOM      4  C   UNL     1      -0.418  10.126  -1.420  0.00  0.00    +0.073 C 
ATOM      5  C   UNL     1       0.168  11.507  -1.593  0.00  0.00    +0.025 C 
ATOM      6  C   UNL     1       0.370  12.020  -2.825  0.00  0.00    +0.049 C 
ATOM      7  N   UNL     1       0.071  11.285  -3.942  0.00  0.00    -0.260 NA
ATOM      8  C   UNL     1       0.928  13.409  -3.007  0.00  0.00    +0.064 C 
ATOM      9  C   UNL     1       1.880  13.731  -1.846  0.00  0.00    +0.032 C 
ATOM     10  C   UNL     1       1.095  13.617  -0.535  0.00  0.00    +0.088 C 
ATOM     11  C   UNL     1       0.497  12.240  -0.440  0.00  0.00    +0.162 C 
ATOM     12  O   UNL     1       0.295  11.752   0.655  0.00  0.00    -0.292 OA
ENDROOT
BRANCH   9  13
ATOM     13  C   UNL     1       2.408  15.134  -2.000  0.00  0.00    -0.043 A 
ATOM     14  C   UNL     1       1.530  16.201  -2.051  0.00  0.00    +0.005 A 
ATOM     15  C   UNL     1       2.013  17.488  -2.187  0.00  0.00    +0.020 A 
ATOM     16  C   UNL     1       3.376  17.708  -2.283  0.00  0.00    +0.041 A 
ATOM     17  C   UNL     1       4.254  16.640  -2.237  0.00  0.00    +0.020 A 
ATOM     18  C   UNL     1       3.769  15.353  -2.096  0.00  0.00    +0.005 A 
ATOM     19 CL   UNL     1       3.984  19.325  -2.461  0.00  0.00    -0.084 Cl
ENDBRANCH   9  13
BRANCH   4  20
ATOM     20  C   UNL     1      -1.874  10.245  -1.050  0.00  0.00    -0.038 A 
ATOM     21  C   UNL     1      -2.759  10.857  -1.918  0.00  0.00    +0.008 A 
ATOM     22  C   UNL     1      -4.096  10.962  -1.584  0.00  0.00    +0.045 A 
ATOM     23  C   UNL     1      -4.547  10.463  -0.370  0.00  0.00    +0.117 A 
ATOM     24  C   UNL     1      -3.655   9.854   0.502  0.00  0.00    +0.045 A 
ATOM     25  C   UNL     1      -2.321   9.747   0.160  0.00  0.00    +0.008 A 
BRANCH  23  26
ATOM     26  O   UNL     1      -5.860  10.569  -0.037  0.00  0.00    -0.507 OA
ATOM     27  H   UNL     1      -6.080  11.381   0.441  0.00  0.00    +0.292 HD
ENDBRANCH  23  26
ENDBRANCH   4  20
BRANCH   3  28
ATOM     28  C   UNL     1      -0.415   7.920  -2.634  0.00  0.00    +0.317 C 
ATOM     29  O   UNL     1       0.489   7.243  -2.181  0.00  0.00    -0.250 OA
BRANCH  28  30
ATOM     30  O   UNL     1      -1.540   7.327  -3.087  0.00  0.00    -0.464 OA
BRANCH  30  31
ATOM     31  C   UNL     1      -1.600   5.902  -3.005  0.00  0.00    +0.237 C 
BRANCH  31  32
ATOM     32  C   UNL     1      -2.940   5.415  -3.561  0.00  0.00    +0.076 C 
BRANCH  32  33
ATOM     33  C   UNL     1      -3.003   3.912  -3.474  0.00  0.00    -0.044 A 
ATOM     34  C   UNL     1      -3.517   3.306  -2.343  0.00  0.00    +0.004 A 
ATOM     35  C   UNL     1      -3.575   1.927  -2.263  0.00  0.00    +0.000 A 
ATOM     36  C   UNL     1      -3.120   1.154  -3.315  0.00  0.00    +0.000 A 
ATOM     37  C   UNL     1      -2.602   1.760  -4.444  0.00  0.00    +0.000 A 
ATOM     38  C   UNL     1      -2.548   3.139  -4.526  0.00  0.00    +0.004 A 
ENDBRANCH  32  33
ENDBRANCH  31  32
ENDBRANCH  30  31
ENDBRANCH  28  30
ENDBRANCH   3  28
TORSDOF 8
