REMARK  Name = ZINC28953813
REMARK  10 active torsions:
REMARK  status: ('A' for Active; 'I' for Inactive)
REMARK    1  A    between atoms: C_1  and  C_2
REMARK    2  A    between atoms: C_2  and  C_3
REMARK    3  A    between atoms: C_2  and  N_4
REMARK    4  A    between atoms: C_6  and  C_34
REMARK    5  A    between atoms: C_8  and  C_11
REMARK    6  A    between atoms: N_16  and  C_19
REMARK    7  A    between atoms: C_19  and  C_25
REMARK    8  A    between atoms: C_25  and  N_26
REMARK    9  A    between atoms: N_26  and  C_27
REMARK   10  A    between atoms: C_27  and  C_28
REMARK                            x       y       z     vdW  Elec       q    Type
REMARK                         _______ _______ _______ _____ _____    ______ ____
ROOT
ATOM      1  C   UNL     1       5.361   5.237   2.791  0.00  0.00    +0.217 C 
ATOM      2  O   UNL     1       5.404   4.027   2.716  0.00  0.00    -0.275 OA
ATOM      3  N   UNL     1       4.272   5.843   3.303  0.00  0.00    -0.299 N 
ATOM      4  C   UNL     1       3.123   5.056   3.776  0.00  0.00    +0.123 C 
ATOM      5  C   UNL     1       1.851   5.612   3.128  0.00  0.00    +0.104 C 
ATOM      6  N   UNL     1       1.764   7.056   3.386  0.00  0.00    -0.296 NA
ATOM      7  C   UNL     1       2.886   7.776   2.769  0.00  0.00    +0.104 C 
ATOM      8  C   UNL     1       4.200   7.309   3.403  0.00  0.00    +0.123 C 
ENDROOT
BRANCH   1  12
ATOM      9  N   UNL     1       8.241   6.048   3.987  0.00  0.00    +0.382 N 
ATOM     10  C   UNL     1       8.866   5.488   2.761  0.00  0.00    -0.070 C 
ATOM     11  C   UNL     1       7.675   5.147   1.839  0.00  0.00    +0.012 C 
ATOM     12  C   UNL     1       6.527   6.063   2.311  0.00  0.00    +0.064 C 
ATOM     13  C   UNL     1       7.121   6.881   3.478  0.00  0.00    -0.065 C 
ATOM     14  H   UNL     1       7.908   5.270   4.689  0.00  0.00    -0.081 HD
BRANCH  11  15
ATOM     15  C   UNL     1       8.023   5.442   0.403  0.00  0.00    -0.045 A 
ATOM     16  C   UNL     1       8.446   6.707   0.040  0.00  0.00    +0.005 A 
ATOM     17  C   UNL     1       8.771   6.976  -1.276  0.00  0.00    +0.020 A 
ATOM     18  C   UNL     1       8.663   5.983  -2.232  0.00  0.00    +0.041 A 
ATOM     19  C   UNL     1       8.234   4.718  -1.870  0.00  0.00    +0.020 A 
ATOM     20  C   UNL     1       7.915   4.448  -0.552  0.00  0.00    +0.005 A 
ATOM     21 CL   UNL     1       9.063   6.323  -3.887  0.00  0.00    -0.084 Cl
ENDBRANCH  11  15
BRANCH   9  23
ATOM     22  C   UNL     1       8.495   7.517   5.930  0.00  0.00    -0.014 C 
ATOM     23  C   UNL     1       9.203   6.864   4.741  0.00  0.00    -0.075 C 
ATOM     24  C   UNL     1      10.338   5.973   5.251  0.00  0.00    -0.014 C 
ENDBRANCH   9  23
ENDBRANCH   1  12
BRANCH   6  25
ATOM     25  C   UNL     1       0.477   7.596   2.930  0.00  0.00    +0.007 C 
ATOM     26  C   UNL     1      -0.653   7.003   3.775  0.00  0.00    +0.020 C 
ATOM     27  C   UNL     1      -1.994   7.565   3.300  0.00  0.00    +0.002 C 
ATOM     28  C   UNL     1      -1.991   9.088   3.450  0.00  0.00    +0.000 C 
ATOM     29  C   UNL     1      -0.861   9.681   2.606  0.00  0.00    +0.002 C 
ATOM     30  C   UNL     1       0.480   9.118   3.081  0.00  0.00    +0.020 C 
BRANCH  25  31
ATOM     31  C   UNL     1       0.261   7.229   1.461  0.00  0.00    -0.060 C 
BRANCH  31  32
ATOM     32  N   UNL     1       1.305   7.858   0.641  0.00  0.00    +0.384 N 
ATOM     33  H   UNL     1       1.190   8.952   0.677  0.00  0.00    -0.085 HD
ATOM     34  H   UNL     1       2.296   7.581   1.032  0.00  0.00    -0.085 HD
BRANCH  32  35
ATOM     35  C   UNL     1       1.212   7.420  -0.758  0.00  0.00    -0.026 C 
BRANCH  35  36
ATOM     36  C   UNL     1       2.296   8.085  -1.566  0.00  0.00    +0.024 A 
ATOM     37  C   UNL     1       3.490   7.424  -1.782  0.00  0.00    +0.021 A 
ATOM     38  C   UNL     1       4.479   8.042  -2.531  0.00  0.00    +0.003 A 
ATOM     39  C   UNL     1       4.233   9.312  -3.029  0.00  0.00    +0.020 A 
ATOM     40  C   UNL     1       3.014   9.912  -2.772  0.00  0.00    +0.111 A 
ATOM     41  N   UNL     1       2.094   9.291  -2.059  0.00  0.00    -0.262 NA
ENDBRANCH  35  36
ENDBRANCH  32  35
ENDBRANCH  31  32
ENDBRANCH  25  31
ENDBRANCH   6  25
TORSDOF 8
