REMARK  Name = ZINC00867450
REMARK  8 active torsions:
REMARK  status: ('A' for Active; 'I' for Inactive)
REMARK    1  A    between atoms: C_4  and  C_7
REMARK    2  A    between atoms: C_7  and  O_8
REMARK    3  A    between atoms: O_8  and  C_9
REMARK    4  A    between atoms: C_12  and  C_16
REMARK    5  A    between atoms: C_17  and  C_18
REMARK    6  A    between atoms: C_17  and  C_20
REMARK    7  A    between atoms: N_22  and  C_23
REMARK    8  A    between atoms: C_25  and  N_30
REMARK                            x       y       z     vdW  Elec       q    Type
REMARK                         _______ _______ _______ _____ _____    ______ ____
ROOT
ATOM      1  C   UNL     1       8.925  -3.655  -2.189  0.00  0.00    +0.032 C 
ATOM      2  C   UNL     1       9.644  -3.468  -3.349  0.00  0.00    +0.114 C 
ENDROOT
BRANCH   1   6
ATOM      3  C   UNL     1       5.166  -1.773  -1.695  0.00  0.00    +0.135 A 
ATOM      4  C   UNL     1       5.939  -2.087  -0.583  0.00  0.00    +0.047 A 
ATOM      5  C   UNL     1       7.150  -2.699  -0.736  0.00  0.00    +0.011 A 
ATOM      6  C   UNL     1       7.624  -3.004  -2.021  0.00  0.00    -0.022 A 
ATOM      7  C   UNL     1       6.847  -2.682  -3.143  0.00  0.00    +0.027 A 
ATOM      8  C   UNL     1       5.625  -2.070  -2.975  0.00  0.00    +0.060 A 
ATOM      9 BR   UNL     1       4.572  -1.633  -4.483  0.00  0.00    -0.046 Br
BRANCH   3  10
ATOM     10  O   UNL     1       3.962  -1.169  -1.533  0.00  0.00    -0.486 OA
BRANCH  10  11
ATOM     11  C   UNL     1       3.550  -0.893  -0.193  0.00  0.00    +0.264 C 
BRANCH  11  15
ATOM     12  C   UNL     1      -0.281   0.996  -0.240  0.00  0.00    +0.000 A 
ATOM     13  C   UNL     1       0.868   1.762  -0.291  0.00  0.00    +0.000 A 
ATOM     14  C   UNL     1       2.108   1.151  -0.276  0.00  0.00    +0.007 A 
ATOM     15  C   UNL     1       2.199  -0.226  -0.209  0.00  0.00    -0.010 A 
ATOM     16  C   UNL     1       1.050  -0.993  -0.158  0.00  0.00    +0.007 A 
ATOM     17  C   UNL     1      -0.190  -0.382  -0.174  0.00  0.00    +0.000 A 
ENDBRANCH  11  15
ENDBRANCH  10  11
ENDBRANCH   3  10
ENDBRANCH   1   6
BRANCH   2  18
ATOM     18  C   UNL     1      10.863  -4.254  -3.594  0.00  0.00    +0.259 C 
ATOM     19  O   UNL     1      11.236  -5.069  -2.772  0.00  0.00    -0.269 OA
ATOM     20  N   UNL     1      11.566  -4.071  -4.729  0.00  0.00    -0.279 N 
ATOM     21  H   UNL     1      11.314  -3.367  -5.348  0.00  0.00    +0.155 HD
BRANCH  20  22
ATOM     22  C   UNL     1      12.659  -4.896  -5.016  0.00  0.00    +0.071 A 
ATOM     23  C   UNL     1      12.736  -6.167  -4.462  0.00  0.00    +0.059 A 
ATOM     24  C   UNL     1      13.814  -6.981  -4.750  0.00  0.00    +0.128 A 
ATOM     25  C   UNL     1      14.822  -6.529  -5.582  0.00  0.00    +0.035 A 
ATOM     26  C   UNL     1      14.753  -5.262  -6.133  0.00  0.00    +0.042 A 
ATOM     27  C   UNL     1      13.674  -4.443  -5.852  0.00  0.00    +0.145 A 
ATOM     28  F   UNL     1      13.607  -3.206  -6.390  0.00  0.00    -0.204 F 
BRANCH  24  29
ATOM     29  N   UNL     1      13.893  -8.338  -4.164  0.00  0.00    +0.056 N 
ATOM     30  O   UNL     1      14.846  -9.055  -4.414  0.00  0.00    -0.126 OA
ATOM     31  O   UNL     1      13.006  -8.737  -3.431  0.00  0.00    -0.126 OA
ENDBRANCH  24  29
ENDBRANCH  20  22
ENDBRANCH   2  18
BRANCH   2  32
ATOM     32  C   UNL     1       9.204  -2.508  -4.317  0.00  0.00    +0.104 C 
ATOM     33  N   UNL     1       8.856  -1.747  -5.085  0.00  0.00    -0.191 NA
ENDBRANCH   2  32
TORSDOF 8
