REMARK  Name = ZINC36032683
REMARK  10 active torsions:
REMARK  status: ('A' for Active; 'I' for Inactive)
REMARK    1  A    between atoms: C_1  and  C_2
REMARK    2  A    between atoms: C_2  and  C_3
REMARK    3  A    between atoms: C_3  and  C_5
REMARK    4  A    between atoms: C_3  and  C_6
REMARK    5  A    between atoms: C_6  and  N_7
REMARK    6  A    between atoms: C_10  and  C_30
REMARK    7  A    between atoms: C_19  and  C_21
REMARK    8  A    between atoms: C_30  and  C_31
REMARK    9  A    between atoms: C_31  and  C_32
REMARK   10  A    between atoms: C_31  and  C_33
REMARK                            x       y       z     vdW  Elec       q    Type
REMARK                         _______ _______ _______ _____ _____    ______ ____
ROOT
ATOM      1  N   UNL     1      -3.281  -2.872  -0.733  0.00  0.00    -0.313 N 
ATOM      2  C   UNL     1      -4.273  -3.309   0.071  0.00  0.00    +0.200 C 
ATOM      3  O   UNL     1      -4.271  -3.272   1.283  0.00  0.00    -0.277 OA
ATOM      4  C   UNL     1      -5.388  -3.853  -0.795  0.00  0.00    +0.019 C 
ATOM      5  N   UNL     1      -4.767  -4.058  -2.127  0.00  0.00    +0.401 N 
ATOM      6  C   UNL     1      -3.661  -3.075  -2.133  0.00  0.00    +0.006 C 
ATOM      7  C   UNL     1      -2.480  -3.635  -2.925  0.00  0.00    +0.025 C 
ATOM      8  C   UNL     1      -1.324  -2.630  -2.892  0.00  0.00    +0.108 C 
ATOM      9  N   UNL     1      -1.816  -1.328  -3.363  0.00  0.00    -0.298 N 
ATOM     10  C   UNL     1      -2.995  -0.740  -2.713  0.00  0.00    +0.108 C 
ATOM     11  C   UNL     1      -4.137  -1.760  -2.748  0.00  0.00    +0.025 C 
ATOM     12  C   UNL     1      -1.197  -0.685  -4.374  0.00  0.00    +0.247 C 
ATOM     13  O   UNL     1      -0.286  -1.226  -4.970  0.00  0.00    -0.270 OA
ATOM     14  H   UNL     1      -4.413  -4.999  -2.214  0.00  0.00    -0.082 HD
ATOM     15  H   UNL     1      -5.426  -3.854  -2.862  0.00  0.00    -0.082 HD
ENDROOT
BRANCH  12  16
ATOM     16  C   UNL     1      -1.625   0.674  -4.756  0.00  0.00    +0.041 A 
ATOM     17  C   UNL     1      -2.062   1.572  -3.778  0.00  0.00    +0.017 A 
ATOM     18  C   UNL     1      -2.460   2.841  -4.136  0.00  0.00    +0.050 A 
ATOM     19  C   UNL     1      -2.430   3.233  -5.468  0.00  0.00    +0.166 A 
ATOM     20  C   UNL     1      -1.996   2.341  -6.449  0.00  0.00    +0.167 A 
ATOM     21  C   UNL     1      -1.590   1.069  -6.095  0.00  0.00    +0.062 A 
ATOM     22  O   UNL     1      -2.061   2.964  -7.663  0.00  0.00    -0.453 OA
ATOM     23  C   UNL     1      -2.923   4.100  -7.465  0.00  0.00    +0.466 C 
ATOM     24  O   UNL     1      -2.766   4.411  -6.068  0.00  0.00    -0.453 OA
ENDBRANCH  12  16
BRANCH   1  25
ATOM     25  C   UNL     1      -2.022  -2.279  -0.276  0.00  0.00    +0.109 C 
BRANCH  25  26
ATOM     26  C   UNL     1      -1.099  -3.382   0.248  0.00  0.00    +0.003 C 
ATOM     27  C   UNL     1      -1.000  -4.500  -0.791  0.00  0.00    +0.009 C 
BRANCH  26  29
ATOM     28  C   UNL     1       1.180  -3.872   1.147  0.00  0.00    +0.004 C 
ATOM     29  C   UNL     1       0.293  -2.802   0.507  0.00  0.00    +0.001 C 
ENDBRANCH  26  29
ENDBRANCH  25  26
ENDBRANCH   1  25
BRANCH   4  30
ATOM     30  C   UNL     1      -5.900  -5.181  -0.233  0.00  0.00    -0.004 C 
BRANCH  30  31
ATOM     31  C   UNL     1      -7.083  -5.668  -1.072  0.00  0.00    -0.018 C 
ATOM     32  C   UNL     1      -7.515  -7.053  -0.589  0.00  0.00    +0.007 C 
ATOM     33  C   UNL     1      -8.250  -4.689  -0.924  0.00  0.00    +0.007 C 
ENDBRANCH  30  31
ENDBRANCH   4  30
TORSDOF 6
