REMARK  Name = ZINC01458904
REMARK  6 active torsions:
REMARK  status: ('A' for Active; 'I' for Inactive)
REMARK    1  A    between atoms: C_1  and  C_2
REMARK    2  A    between atoms: C_5  and  C_8
REMARK    3  A    between atoms: C_13  and  C_32
REMARK    4  A    between atoms: C_25  and  C_27
REMARK    5  A    between atoms: C_27  and  C_28
REMARK    6  A    between atoms: C_28  and  C_29
REMARK                            x       y       z     vdW  Elec       q    Type
REMARK                         _______ _______ _______ _____ _____    ______ ____
ROOT
ATOM      1  C   UNL     1      -2.352  -5.941   3.877  0.00  0.00    +0.032 C 
ATOM      2  C   UNL     1      -2.027  -6.863   2.696  0.00  0.00    +0.088 C 
ATOM      3  C   UNL     1      -1.978  -6.037   1.445  0.00  0.00    +0.163 C 
ATOM      4  C   UNL     1      -2.709  -4.914   1.285  0.00  0.00    +0.037 C 
ATOM      5  C   UNL     1      -2.541  -4.177  -0.007  0.00  0.00    +0.148 C 
ATOM      6  N   UNL     1      -2.690  -2.749   0.109  0.00  0.00    -0.258 N 
ATOM      7  C   UNL     1      -3.937  -2.157   0.217  0.00  0.00    +0.058 A 
ATOM      8  C   UNL     1      -4.395  -1.227  -0.693  0.00  0.00    +0.025 A 
ATOM      9  C   UNL     1      -5.661  -0.686  -0.559  0.00  0.00    +0.002 A 
ATOM     10  C   UNL     1      -6.472  -1.081   0.491  0.00  0.00    +0.002 A 
ATOM     11  C   UNL     1      -6.027  -1.999   1.415  0.00  0.00    +0.025 A 
ATOM     12  C   UNL     1      -4.744  -2.551   1.311  0.00  0.00    +0.053 A 
ATOM     13  N   UNL     1      -4.297  -3.390   2.252  0.00  0.00    -0.316 N 
ATOM     14  C   UNL     1      -3.590  -4.461   2.294  0.00  0.00    +0.017 C 
ATOM     15  C   UNL     1      -3.686  -5.257   3.587  0.00  0.00    +0.059 C 
ATOM     16  C   UNL     1      -1.590  -1.970   0.107  0.00  0.00    +0.221 C 
ATOM     17  O   UNL     1      -0.491  -2.473   0.013  0.00  0.00    -0.275 OA
ATOM     18  O   UNL     1      -1.169  -6.432   0.438  0.00  0.00    -0.292 OA
ATOM     19  H   UNL     1      -4.694  -2.956   3.182  0.00  0.00    +0.152 HD
ENDROOT
BRANCH   1  24
ATOM     20  C   UNL     1      -2.766  -9.055   8.728  0.00  0.00    +0.044 C 
ATOM     21  C   UNL     1      -2.658  -8.243   7.463  0.00  0.00    -0.050 A 
ATOM     22  C   UNL     1      -1.735  -7.217   7.377  0.00  0.00    +0.003 A 
ATOM     23  C   UNL     1      -1.636  -6.472   6.216  0.00  0.00    +0.004 A 
ATOM     24  C   UNL     1      -2.460  -6.753   5.142  0.00  0.00    -0.043 A 
ATOM     25  C   UNL     1      -3.386  -7.776   5.230  0.00  0.00    +0.004 A 
ATOM     26  C   UNL     1      -3.482  -8.523   6.389  0.00  0.00    +0.003 A 
ENDBRANCH   1  24
BRANCH   5  27
ATOM     27  C   UNL     1      -3.564  -4.687  -0.989  0.00  0.00    -0.004 A 
ATOM     28  C   UNL     1      -4.697  -5.336  -0.533  0.00  0.00    +0.007 A 
ATOM     29  C   UNL     1      -5.635  -5.803  -1.434  0.00  0.00    +0.000 A 
ATOM     30  C   UNL     1      -5.442  -5.622  -2.791  0.00  0.00    +0.001 A 
ATOM     31  C   UNL     1      -4.310  -4.975  -3.248  0.00  0.00    +0.020 A 
ATOM     32  C   UNL     1      -3.373  -4.502  -2.346  0.00  0.00    +0.046 A 
ATOM     33 CL   UNL     1      -1.954  -3.681  -2.919  0.00  0.00    -0.083 Cl
ENDBRANCH   5  27
BRANCH  16  34
ATOM     34  C   UNL     1      -1.726  -0.473   0.222  0.00  0.00    +0.107 C 
BRANCH  34  35
ATOM     35  C   UNL     1      -0.338   0.169   0.195  0.00  0.00    +0.134 C 
BRANCH  35  36
ATOM     36  C   UNL     1      -0.474   1.665   0.309  0.00  0.00    +0.356 C 
ATOM     37  O   UNL     1      -1.569   2.167   0.398  0.00  0.00    -0.246 OA
ATOM     38  O   UNL     1       0.622   2.441   0.307  0.00  0.00    -0.246 OA
ENDBRANCH  35  36
ENDBRANCH  34  35
ENDBRANCH  16  34
TORSDOF 5
