REMARK  Name = ZINC01862157
REMARK  5 active torsions:
REMARK  status: ('A' for Active; 'I' for Inactive)
REMARK    1  A    between atoms: C_17  and  C_18
REMARK    2  A    between atoms: C_21  and  C_23
REMARK    3  A    between atoms: C_27  and  C_29
REMARK    4  A    between atoms: C_34  and  C_36
REMARK    5  A    between atoms: C_40  and  N_42
REMARK                            x       y       z     vdW  Elec       q    Type
REMARK                         _______ _______ _______ _____ _____    ______ ____
ROOT
ATOM      1  C   UNL     1      -0.017   1.379   0.010  0.00  0.00    +0.000 A 
ATOM      2  C   UNL     1       1.168   2.094   0.002  0.00  0.00    +0.001 A 
ATOM      3  C   UNL     1       2.378   1.429  -0.022  0.00  0.00    +0.010 A 
ATOM      4  C   UNL     1       2.401   0.039  -0.046  0.00  0.00    +0.004 A 
ATOM      5  C   UNL     1       1.206  -0.678  -0.017  0.00  0.00    -0.038 A 
ATOM      6  C   UNL     1       0.002  -0.004   0.002  0.00  0.00    +0.004 A 
ATOM      7  C   UNL     1       1.240  -2.183   0.021  0.00  0.00    +0.040 C 
ATOM      8  C   UNL     1       2.412  -2.703  -0.807  0.00  0.00    +0.040 C 
ATOM      9  C   UNL     1       3.686  -2.001  -0.429  0.00  0.00    -0.016 C 
ATOM     10  C   UNL     1       3.686  -0.703  -0.083  0.00  0.00    +0.076 C 
ATOM     11  N   UNL     1       4.851  -0.074   0.230  0.00  0.00    -0.223 NA
ATOM     12  C   UNL     1       6.016  -0.648   0.233  0.00  0.00    +0.178 A 
ATOM     13  N   UNL     1       6.223  -1.978  -0.079  0.00  0.00    -0.275 N 
ATOM     14  C   UNL     1       7.472  -2.457  -0.038  0.00  0.00    +0.268 A 
ATOM     15  O   UNL     1       7.705  -3.623  -0.303  0.00  0.00    -0.266 OA
ATOM     16  C   UNL     1       8.553  -1.539   0.333  0.00  0.00    +0.084 A 
ATOM     17  C   UNL     1       9.892  -1.777   0.444  0.00  0.00    +0.066 C 
ATOM     18  S   UNL     1       7.644  -0.025   0.601  0.00  0.00    -0.046 S 
ATOM     19  C   UNL     1       4.998  -2.747  -0.436  0.00  0.00    +0.151 C 
ENDROOT
BRANCH  19  20
ATOM     20  C   UNL     1       4.879  -3.901   0.526  0.00  0.00    -0.018 A 
ATOM     21  C   UNL     1       5.019  -3.685   1.885  0.00  0.00    +0.006 A 
ATOM     22  C   UNL     1       4.910  -4.744   2.767  0.00  0.00    +0.003 A 
ATOM     23  C   UNL     1       4.661  -6.018   2.292  0.00  0.00    +0.033 A 
ATOM     24  C   UNL     1       4.520  -6.233   0.934  0.00  0.00    +0.127 A 
ATOM     25  C   UNL     1       4.625  -5.174   0.051  0.00  0.00    +0.038 A 
BRANCH  24  26
ATOM     26  N   UNL     1       4.253  -7.597   0.424  0.00  0.00    +0.056 N 
ATOM     27  O   UNL     1       4.159  -8.523   1.196  0.00  0.00    -0.126 OA
ATOM     28  O   UNL     1       4.130  -7.785  -0.763  0.00  0.00    -0.126 OA
ENDBRANCH  24  26
ENDBRANCH  19  20
BRANCH  17  29
ATOM     29  C   UNL     1      10.766  -0.734   0.821  0.00  0.00    +0.130 A 
ATOM     30  C   UNL     1      12.138  -0.835   0.965  0.00  0.00    +0.050 A 
ATOM     31  C   UNL     1      12.597   0.429   1.346  0.00  0.00    +0.050 A 
ATOM     32  C   UNL     1      11.506   1.248   1.421  0.00  0.00    +0.136 A 
ATOM     33  O   UNL     1      10.409   0.538   1.097  0.00  0.00    -0.455 OA
BRANCH  32  34
ATOM     34  C   UNL     1      11.527   2.676   1.790  0.00  0.00    +0.018 A 
ATOM     35  C   UNL     1      12.738   3.305   2.095  0.00  0.00    +0.011 A 
ATOM     36  C   UNL     1      12.750   4.640   2.439  0.00  0.00    +0.001 A 
ATOM     37  C   UNL     1      11.567   5.358   2.483  0.00  0.00    +0.012 A 
ATOM     38  C   UNL     1      10.365   4.742   2.182  0.00  0.00    +0.055 A 
ATOM     39  C   UNL     1      10.338   3.409   1.830  0.00  0.00    +0.024 A 
BRANCH  38  40
ATOM     40  C   UNL     1       9.083   5.532   2.232  0.00  0.00    +0.417 C 
ATOM     41  F   UNL     1       9.362   6.851   2.604  0.00  0.00    -0.166 F 
ATOM     42  F   UNL     1       8.478   5.521   0.971  0.00  0.00    -0.166 F 
ATOM     43  F   UNL     1       8.217   4.957   3.169  0.00  0.00    -0.166 F 
ENDBRANCH  38  40
ENDBRANCH  32  34
ENDBRANCH  17  29
TORSDOF 5
