REMARK  Name = ZINC14545185
REMARK  9 active torsions:
REMARK  status: ('A' for Active; 'I' for Inactive)
REMARK    1  A    between atoms: C_1  and  C_2
REMARK    2  A    between atoms: C_2  and  N_64
REMARK    3  A    between atoms: C_3  and  C_4
REMARK    4  A    between atoms: C_3  and  N_64
REMARK    5  A    between atoms: C_5  and  C_6
REMARK    6  A    between atoms: C_5  and  N_64
REMARK    7  A    between atoms: C_6  and  N_7
REMARK    8  A    between atoms: C_8  and  C_10
REMARK    9  A    between atoms: C_23  and  C_26
REMARK                            x       y       z     vdW  Elec       q    Type
REMARK                         _______ _______ _______ _____ _____    ______ ____
ROOT
ATOM      1  C   UNL     1      -0.153  -1.515  -0.374  0.00  0.00    +0.037 A 
ATOM      2  C   UNL     1       0.832  -0.522  -0.406  0.00  0.00    +0.015 A 
ATOM      3  C   UNL     1       0.471   0.801  -0.486  0.00  0.00    +0.024 A 
ATOM      4  C   UNL     1      -0.873   1.168  -0.534  0.00  0.00    +0.031 A 
ATOM      5  C   UNL     1      -1.860   0.172  -0.486  0.00  0.00    -0.019 A 
ATOM      6  C   UNL     1      -1.502  -1.152  -0.415  0.00  0.00    +0.019 A 
ATOM      7  C   UNL     1      -3.272   0.612  -0.493  0.00  0.00    +0.049 C 
ATOM      8  C   UNL     1      -4.365  -0.262  -0.991  0.00  0.00    -0.023 C 
ATOM      9  C   UNL     1      -5.317   0.504  -1.511  0.00  0.00    -0.030 C 
ATOM     10  C   UNL     1      -4.907   1.976  -1.428  0.00  0.00    +0.033 C 
ATOM     11  C   UNL     1      -3.376   1.869  -1.407  0.00  0.00    +0.029 C 
ATOM     12  C   UNL     1      -2.615   2.962  -0.680  0.00  0.00    +0.107 C 
ATOM     13  N   UNL     1      -1.205   2.517  -0.650  0.00  0.00    -0.336 N 
ATOM     14  H   UNL     1      -0.497   3.177  -0.713  0.00  0.00    +0.147 HD
ENDROOT
BRANCH  12  15
ATOM     15  C   UNL     1      -2.732   4.267  -1.426  0.00  0.00    -0.002 A 
ATOM     16  C   UNL     1      -1.890   4.729  -2.363  0.00  0.00    +0.089 A 
ATOM     17  N   UNL     1      -2.320   5.946  -2.818  0.00  0.00    -0.360 N 
ATOM     18  H   UNL     1      -1.877   6.475  -3.499  0.00  0.00    +0.165 HD
ATOM     19  C   UNL     1      -3.475   6.309  -2.162  0.00  0.00    +0.047 A 
ATOM     20  C   UNL     1      -3.784   5.273  -1.261  0.00  0.00    +0.005 A 
ATOM     21  C   UNL     1      -4.917   5.369  -0.451  0.00  0.00    +0.010 A 
ATOM     22  C   UNL     1      -5.721   6.470  -0.538  0.00  0.00    +0.001 A 
ATOM     23  C   UNL     1      -5.421   7.495  -1.424  0.00  0.00    +0.002 A 
ATOM     24  C   UNL     1      -4.308   7.420  -2.233  0.00  0.00    +0.026 A 
ENDBRANCH  12  15
BRANCH   1  26
ATOM     25  N   UNL     1       1.532  -3.283  -0.258  0.00  0.00    -0.313 N 
ATOM     26  C   UNL     1       0.230  -2.937  -0.297  0.00  0.00    +0.244 C 
ATOM     27  O   UNL     1      -0.629  -3.797  -0.269  0.00  0.00    -0.270 OA
ATOM     28  H   UNL     1       2.217  -2.597  -0.280  0.00  0.00    +0.149 HD
BRANCH  25  29
ATOM     29  C   UNL     1       1.912  -4.696  -0.181  0.00  0.00    +0.086 C 
BRANCH  29  30
ATOM     30  C   UNL     1       3.438  -4.812  -0.150  0.00  0.00    -0.060 C 
BRANCH  30  31
ATOM     31  N   UNL     1       3.805  -6.243  -0.095  0.00  0.00    +0.380 N 
ATOM     32  H   UNL     1       3.319  -6.742  -0.849  0.00  0.00    -0.082 HD
BRANCH  31  34
ATOM     33  C   UNL     1       5.590  -6.235  -1.765  0.00  0.00    -0.017 C 
ATOM     34  C   UNL     1       5.264  -6.397  -0.279  0.00  0.00    -0.082 C 
ENDBRANCH  31  34
BRANCH  31  35
ATOM     35  C   UNL     1       3.397  -6.820   1.204  0.00  0.00    -0.082 C 
ATOM     36  C   UNL     1       3.441  -8.346   1.099  0.00  0.00    -0.017 C 
ENDBRANCH  31  35
ENDBRANCH  30  31
ENDBRANCH  29  30
ENDBRANCH  25  29
ENDBRANCH   1  26
TORSDOF 7
