REMARK  Name = ZINC39764926
REMARK  6 active torsions:
REMARK  status: ('A' for Active; 'I' for Inactive)
REMARK    1  A    between atoms: C_1  and  C_2
REMARK    2  A    between atoms: C_2  and  C_3
REMARK    3  A    between atoms: C_3  and  S_4
REMARK    4  A    between atoms: S_4  and  C_5
REMARK    5  A    between atoms: C_11  and  C_23
REMARK    6  A    between atoms: C_26  and  C_29
REMARK                            x       y       z     vdW  Elec       q    Type
REMARK                         _______ _______ _______ _____ _____    ______ ____
ROOT
ATOM      1  C   UNL     1       1.589  -2.718  -2.758  0.00  0.00    +0.182 C 
ATOM      2  N   UNL     1       2.024  -1.734  -3.535  0.00  0.00    -0.154 NA
ATOM      3  C   UNL     1       2.746  -1.973  -4.620  0.00  0.00    +0.250 C 
ATOM      4  O   UNL     1       3.083  -1.045  -5.330  0.00  0.00    -0.273 OA
ATOM      5  C   UNL     1       3.153  -3.365  -4.986  0.00  0.00    +0.156 C 
ATOM      6  C   UNL     1       2.882  -3.672  -6.455  0.00  0.00    +0.073 C 
ATOM      7  C   UNL     1       3.144  -5.146  -6.687  0.00  0.00    +0.025 C 
ATOM      8  C   UNL     1       2.877  -6.061  -5.665  0.00  0.00    +0.050 C 
ATOM      9  C   UNL     1       3.099  -7.538  -5.890  0.00  0.00    +0.056 C 
ATOM     10  C   UNL     1       2.924  -7.858  -7.376  0.00  0.00    +0.014 C 
ATOM     11  C   UNL     1       3.899  -6.992  -8.181  0.00  0.00    +0.080 C 
ATOM     12  C   UNL     1       3.630  -5.542  -7.886  0.00  0.00    +0.162 C 
ATOM     13  O   UNL     1       3.878  -4.619  -8.833  0.00  0.00    -0.292 OA
ATOM     14  N   UNL     1       2.456  -5.658  -4.480  0.00  0.00    -0.236 NA
ATOM     15  C   UNL     1       2.443  -4.379  -4.131  0.00  0.00    +0.145 C 
ATOM     16  N   UNL     1       1.774  -4.002  -3.061  0.00  0.00    -0.208 NA
ENDROOT
BRANCH   6  17
ATOM     17  C   UNL     1       3.798  -2.849  -7.323  0.00  0.00    -0.039 A 
ATOM     18  C   UNL     1       5.169  -2.991  -7.206  0.00  0.00    +0.005 A 
ATOM     19  C   UNL     1       6.014  -2.241  -7.998  0.00  0.00    +0.019 A 
ATOM     20  C   UNL     1       5.481  -1.337  -8.920  0.00  0.00    +0.052 A 
ATOM     21  C   UNL     1       4.097  -1.199  -9.033  0.00  0.00    +0.019 A 
ATOM     22  C   UNL     1       3.264  -1.959  -8.238  0.00  0.00    +0.005 A 
BRANCH  20  23
ATOM     23  C   UNL     1       6.352  -0.555  -9.745  0.00  0.00    +0.099 C 
ATOM     24  N   UNL     1       7.043   0.066 -10.399  0.00  0.00    -0.191 NA
ENDBRANCH  20  23
ENDBRANCH   6  17
BRANCH   1  25
ATOM     25  S   UNL     1       0.743  -2.311  -1.267  0.00  0.00    -0.088 S 
BRANCH  25  26
ATOM     26  C   UNL     1       0.718  -0.497  -1.257  0.00  0.00    +0.077 C 
BRANCH  26  28
ATOM     27  C   UNL     1      -0.019   1.526   0.010  0.00  0.00    +0.004 C 
ATOM     28  C   UNL     1       0.002  -0.004   0.002  0.00  0.00    +0.008 C 
ENDBRANCH  26  28
ENDBRANCH  25  26
ENDBRANCH   1  25
TORSDOF 5
