REMARK  Name = ZINC15578792
REMARK  5 active torsions:
REMARK  status: ('A' for Active; 'I' for Inactive)
REMARK    1  A    between atoms: C_1  and  C_2
REMARK    2  A    between atoms: C_2  and  C_4
REMARK    3  A    between atoms: C_2  and  O_19
REMARK    4  A    between atoms: N_6  and  C_7
REMARK    5  A    between atoms: O_19  and  C_20
REMARK                            x       y       z     vdW  Elec       q    Type
REMARK                         _______ _______ _______ _____ _____    ______ ____
ROOT
ATOM      1  C   UNL     1       3.587   3.503   0.124  0.00  0.00    +0.258 C 
ATOM      2  O   UNL     1       2.555   4.114   0.305  0.00  0.00    -0.271 OA
ATOM      3  N   UNL     1       3.608   2.161   0.251  0.00  0.00    -0.282 N 
ATOM      4  H   UNL     1       4.447   1.680   0.178  0.00  0.00    +0.155 HD
ENDROOT
BRANCH   3   5
ATOM      5  C   UNL     1       2.417   1.462   0.490  0.00  0.00    +0.036 A 
ATOM      6  C   UNL     1       2.433   0.313   1.273  0.00  0.00    +0.025 A 
ATOM      7  C   UNL     1       1.263  -0.380   1.512  0.00  0.00    +0.029 A 
ATOM      8  C   UNL     1       0.069   0.070   0.970  0.00  0.00    +0.067 A 
ATOM      9  C   UNL     1       0.050   1.224   0.183  0.00  0.00    +0.069 A 
ATOM     10  C   UNL     1       1.226   1.918  -0.054  0.00  0.00    +0.051 A 
ATOM     11  N   UNL     1      -1.271   1.420  -0.212  0.00  0.00    -0.306 N 
ATOM     12  H   UNL     1      -1.595   2.146  -0.768  0.00  0.00    +0.170 HD
ATOM     13  C   UNL     1      -2.022   0.432   0.309  0.00  0.00    +0.325 A 
ATOM     14  O   UNL     1      -3.223   0.309   0.155  0.00  0.00    -0.247 OA
ATOM     15  N   UNL     1      -1.243  -0.399   1.028  0.00  0.00    -0.306 N 
ATOM     16  H   UNL     1      -1.544  -1.189   1.503  0.00  0.00    +0.170 HD
ENDBRANCH   3   5
BRANCH   1  18
ATOM     17  C   UNL     1       5.917   3.990   0.818  0.00  0.00    +0.062 C 
ATOM     18  C   UNL     1       4.846   4.244  -0.245  0.00  0.00    +0.256 C 
BRANCH  18  19
ATOM     19  O   UNL     1       4.571   5.644  -0.319  0.00  0.00    -0.480 OA
BRANCH  19  20
ATOM     20  C   UNL     1       5.383   6.392  -1.111  0.00  0.00    +0.122 A 
ATOM     21  C   UNL     1       5.101   7.733  -1.326  0.00  0.00    +0.047 A 
ATOM     22  C   UNL     1       5.932   8.493  -2.127  0.00  0.00    +0.019 A 
ATOM     23  C   UNL     1       7.037   7.915  -2.724  0.00  0.00    +0.018 A 
ATOM     24  C   UNL     1       7.317   6.576  -2.516  0.00  0.00    +0.019 A 
ATOM     25  C   UNL     1       6.493   5.814  -1.711  0.00  0.00    +0.047 A 
ATOM     26 BR   UNL     1       8.169   8.956  -3.825  0.00  0.00    -0.050 Br
ENDBRANCH  19  20
ENDBRANCH  18  19
ENDBRANCH   1  18
TORSDOF 4
