REMARK  Name = ZINC20073004
REMARK  6 active torsions:
REMARK  status: ('A' for Active; 'I' for Inactive)
REMARK    1  A    between atoms: C_6  and  N_7
REMARK    2  A    between atoms: C_16  and  C_22
REMARK    3  A    between atoms: C_22  and  N_23
REMARK    4  A    between atoms: C_24  and  C_26
REMARK    5  A    between atoms: C_26  and  O_27
REMARK    6  A    between atoms: O_27  and  C_28
REMARK                            x       y       z     vdW  Elec       q    Type
REMARK                         _______ _______ _______ _____ _____    ______ ____
ROOT
ATOM      1  N   UNL     1       8.042  11.415  -0.252  0.00  0.00    -0.210 N 
ATOM      2  C   UNL     1       6.982  12.235   0.068  0.00  0.00    +0.233 C 
ATOM      3  O   UNL     1       6.824  13.401  -0.223  0.00  0.00    -0.274 OA
ATOM      4  C   UNL     1       6.064  11.342   0.866  0.00  0.00    +0.123 C 
ATOM      5  C   UNL     1       4.543  11.400   0.702  0.00  0.00    +0.155 C 
ATOM      6  C   UNL     1       4.052  11.274  -0.723  0.00  0.00    +0.004 C 
ATOM      7  C   UNL     1       4.224  10.033  -1.153  0.00  0.00    +0.008 C 
ATOM      8  C   UNL     1       5.007   9.337   0.004  0.00  0.00    +0.116 C 
ATOM      9  C   UNL     1       6.273  10.116  -0.118  0.00  0.00    +0.128 C 
ATOM     10  C   UNL     1       7.703  10.075  -0.200  0.00  0.00    +0.233 C 
ATOM     11  O   UNL     1       8.433   9.108  -0.219  0.00  0.00    -0.274 OA
ATOM     12  O   UNL     1       4.300   9.974   1.144  0.00  0.00    -0.359 OA
ENDROOT
BRANCH   1  18
ATOM     13  C   UNL     1      10.332  10.987  -0.896  0.00  0.00    +0.025 A 
ATOM     14  C   UNL     1      11.587  11.453  -1.235  0.00  0.00    +0.022 A 
ATOM     15  C   UNL     1      11.838  12.813  -1.262  0.00  0.00    +0.041 A 
ATOM     16  C   UNL     1      10.830  13.711  -0.955  0.00  0.00    +0.022 A 
ATOM     17  C   UNL     1       9.572  13.250  -0.620  0.00  0.00    +0.025 A 
ATOM     18  C   UNL     1       9.318  11.885  -0.592  0.00  0.00    +0.044 A 
ATOM     19 CL   UNL     1      13.418  13.395  -1.682  0.00  0.00    -0.084 Cl
ENDBRANCH   1  18
BRANCH   8  20
ATOM     20  C   UNL     1       5.111   7.811  -0.004  0.00  0.00    +0.144 C 
BRANCH  20  21
ATOM     21  N   UNL     1       3.765   7.230   0.005  0.00  0.00    -0.309 N 
ATOM     22  C   UNL     1       3.609   5.891  -0.001  0.00  0.00    +0.251 C 
ATOM     23  O   UNL     1       4.582   5.167  -0.013  0.00  0.00    -0.272 OA
ATOM     24  H   UNL     1       2.883   7.887   0.016  0.00  0.00    +0.149 HD
BRANCH  22  25
ATOM     25  C   UNL     1       2.226   5.294   0.009  0.00  0.00    +0.324 C 
BRANCH  25  26
ATOM     26  O   UNL     1       2.322   3.869   0.001  0.00  0.00    -0.481 OA
BRANCH  26  27
ATOM     27  C   UNL     1       1.155   3.171   0.008  0.00  0.00    +0.140 A 
ATOM     28  C   UNL     1      -0.057   3.845   0.022  0.00  0.00    +0.048 A 
ATOM     29  C   UNL     1      -1.241   3.135   0.030  0.00  0.00    +0.023 A 
ATOM     30  C   UNL     1      -1.220   1.751   0.017  0.00  0.00    +0.043 A 
ATOM     31  C   UNL     1      -0.013   1.076   0.008  0.00  0.00    +0.043 A 
ATOM     32  C   UNL     1       1.175   1.783   0.000  0.00  0.00    +0.084 A 
ATOM     33 CL   UNL     1       2.691   0.936  -0.018  0.00  0.00    -0.080 Cl
ATOM     34 CL   UNL     1      -2.711   0.861   0.019  0.00  0.00    -0.083 Cl
ENDBRANCH  26  27
ENDBRANCH  25  26
ENDBRANCH  22  25
ENDBRANCH  20  21
ENDBRANCH   8  20
TORSDOF 6
