REMARK  Name = ZINC12473800
REMARK  14 active torsions:
REMARK  status: ('A' for Active; 'I' for Inactive)
REMARK    1  A    between atoms: C_1  and  C_2
REMARK    2  A    between atoms: C_5  and  N_8
REMARK    3  A    between atoms: N_8  and  C_9
REMARK    4  A    between atoms: C_9  and  C_11
REMARK    5  A    between atoms: C_9  and  C_18
REMARK    6  A    between atoms: C_14  and  O_17
REMARK    7  A    between atoms: N_20  and  C_21
REMARK    8  A    between atoms: C_21  and  C_22
REMARK    9  A    between atoms: C_22  and  C_23
REMARK   10  A    between atoms: C_23  and  C_24
REMARK   11  A    between atoms: C_23  and  C_25
REMARK   12  A    between atoms: C_26  and  C_28
REMARK   13  A    between atoms: C_29  and  N_36
REMARK   14  A    between atoms: C_30  and  C_33
REMARK                            x       y       z     vdW  Elec       q    Type
REMARK                         _______ _______ _______ _____ _____    ______ ____
ROOT
ATOM      1  N   UNL     1       3.280   1.715   0.793  0.00  0.00    -0.251 N 
ATOM      2  C   UNL     1       4.290   1.042   1.379  0.00  0.00    +0.262 C 
ATOM      3  O   UNL     1       4.721   0.025   0.868  0.00  0.00    -0.269 OA
ENDROOT
BRANCH   1   8
ATOM      4  C   UNL     1       0.944   6.170   3.415  0.00  0.00    +0.044 C 
ATOM      5  C   UNL     1       1.565   4.987   2.718  0.00  0.00    -0.050 A 
ATOM      6  C   UNL     1       1.189   3.704   3.072  0.00  0.00    +0.005 A 
ATOM      7  C   UNL     1       1.755   2.616   2.435  0.00  0.00    +0.024 A 
ATOM      8  C   UNL     1       2.704   2.813   1.440  0.00  0.00    +0.038 A 
ATOM      9  C   UNL     1       3.083   4.103   1.091  0.00  0.00    +0.024 A 
ATOM     10  C   UNL     1       2.508   5.186   1.727  0.00  0.00    +0.005 A 
ENDBRANCH   1   8
BRANCH   2  11
ATOM     11  C   UNL     1       4.870   1.535   2.630  0.00  0.00    +0.116 A 
ATOM     12  C   UNL     1       5.854   0.960   3.436  0.00  0.00    +0.076 A 
ATOM     13  C   UNL     1       6.146   1.736   4.558  0.00  0.00    +0.155 A 
ATOM     14  N   UNL     1       5.504   2.869   4.741  0.00  0.00    -0.203 NA
ATOM     15  S   UNL     1       4.513   3.031   3.527  0.00  0.00    +0.019 S 
BRANCH  13  16
ATOM     16  C   UNL     1       7.162   1.290   5.528  0.00  0.00    +0.262 C 
ATOM     17  O   UNL     1       7.752   0.241   5.352  0.00  0.00    -0.269 OA
ATOM     18  N   UNL     1       7.438   2.045   6.610  0.00  0.00    -0.324 N 
ATOM     19  H   UNL     1       6.968   2.882   6.750  0.00  0.00    +0.145 HD
ATOM     20  H   UNL     1       8.107   1.752   7.248  0.00  0.00    +0.145 HD
ENDBRANCH  13  16
BRANCH  12  21
ATOM     21  N   UNL     1       6.475  -0.248   3.151  0.00  0.00    -0.355 N 
ATOM     22  H   UNL     1       6.231  -0.744   2.354  0.00  0.00    +0.142 HD
ATOM     23  H   UNL     1       7.154  -0.598   3.750  0.00  0.00    +0.142 HD
ENDBRANCH  12  21
ENDBRANCH   2  11
BRANCH   1  24
ATOM     24  C   UNL     1       2.784   1.295  -0.520  0.00  0.00    +0.197 C 
BRANCH  24  25
ATOM     25  C   UNL     1       1.292   1.096  -0.454  0.00  0.00    -0.018 A 
ATOM     26  C   UNL     1       0.765  -0.183  -0.464  0.00  0.00    +0.009 A 
ATOM     27  C   UNL     1      -0.603  -0.368  -0.409  0.00  0.00    +0.046 A 
ATOM     28  C   UNL     1      -1.447   0.730  -0.333  0.00  0.00    +0.117 A 
ATOM     29  C   UNL     1      -0.917   2.012  -0.324  0.00  0.00    +0.046 A 
ATOM     30  C   UNL     1       0.452   2.192  -0.384  0.00  0.00    +0.009 A 
BRANCH  28  31
ATOM     31  O   UNL     1      -2.793   0.550  -0.274  0.00  0.00    -0.507 OA
ATOM     32  H   UNL     1      -3.225   0.522  -1.139  0.00  0.00    +0.292 HD
ENDBRANCH  28  31
ENDBRANCH  24  25
BRANCH  24  33
ATOM     33  C   UNL     1       3.105   2.357  -1.540  0.00  0.00    +0.238 C 
ATOM     34  O   UNL     1       3.689   3.365  -1.203  0.00  0.00    -0.273 OA
ATOM     35  N   UNL     1       2.742   2.187  -2.827  0.00  0.00    -0.313 N 
ATOM     36  H   UNL     1       2.274   1.380  -3.096  0.00  0.00    +0.149 HD
BRANCH  35  37
ATOM     37  C   UNL     1       3.053   3.219  -3.819  0.00  0.00    +0.104 C 
BRANCH  37  38
ATOM     38  C   UNL     1       2.536   2.781  -5.191  0.00  0.00    +0.022 C 
BRANCH  38  39
ATOM     39  C   UNL     1       2.861   3.859  -6.226  0.00  0.00    -0.016 C 
ATOM     40  C   UNL     1       4.379   3.973  -6.384  0.00  0.00    +0.007 C 
ATOM     41  C   UNL     1       2.236   3.479  -7.570  0.00  0.00    +0.007 C 
ENDBRANCH  38  39
ENDBRANCH  37  38
ENDBRANCH  35  37
ENDBRANCH  24  33
ENDBRANCH   1  24
TORSDOF 11
