REMARK  Name = ZINC09808572
REMARK  6 active torsions:
REMARK  status: ('A' for Active; 'I' for Inactive)
REMARK    1  A    between atoms: C_3  and  C_6
REMARK    2  A    between atoms: C_11  and  O_31
REMARK    3  A    between atoms: C_12  and  C_14
REMARK    4  A    between atoms: C_14  and  C_16
REMARK    5  A    between atoms: C_14  and  N_24
REMARK    6  A    between atoms: C_27  and  O_30
REMARK                            x       y       z     vdW  Elec       q    Type
REMARK                         _______ _______ _______ _____ _____    ______ ____
ROOT
ATOM      1  C   UNL     1       9.467  -0.321  -0.097  0.00  0.00    +0.007 C 
ENDROOT
BRANCH   1   8
ATOM      2  C   UNL     1       3.574   0.619  -0.029  0.00  0.00    +0.218 A 
ATOM      3  N   UNL     1       4.378   1.692  -0.026  0.00  0.00    -0.197 NA
ATOM      4  C   UNL     1       5.620   1.298  -0.043  0.00  0.00    +0.199 A 
ATOM      5  N   UNL     1       5.672  -0.069  -0.058  0.00  0.00    -0.173 N 
ATOM      6  N   UNL     1       4.311  -0.470  -0.042  0.00  0.00    -0.138 NA
ATOM      7  C   UNL     1       6.918  -0.647  -0.076  0.00  0.00    +0.225 A 
ATOM      8  C   UNL     1       8.022   0.108  -0.079  0.00  0.00    +0.045 A 
ATOM      9  S   UNL     1       7.337   1.758  -0.055  0.00  0.00    -0.050 S 
BRANCH   2  12
ATOM     10  C   UNL     1      -0.016   1.343   0.009  0.00  0.00    +0.042 A 
ATOM     11  C   UNL     1       1.325   1.774  -0.001  0.00  0.00    +0.053 A 
ATOM     12  C   UNL     1       2.096   0.655  -0.014  0.00  0.00    +0.173 A 
ATOM     13  O   UNL     1       1.280  -0.417  -0.012  0.00  0.00    -0.460 OA
ATOM     14  C   UNL     1       0.002  -0.004   0.002  0.00  0.00    +0.196 A 
ENDBRANCH   2  12
BRANCH   7  15
ATOM     15  O   UNL     1       7.030  -2.003  -0.091  0.00  0.00    -0.492 OA
ATOM     16  H   UNL     1       6.182  -2.468  -0.088  0.00  0.00    +0.294 HD
ENDBRANCH   7  15
ENDBRANCH   1   8
BRANCH   1  17
ATOM     17  C   UNL     1      10.132   0.099   1.188  0.00  0.00    -0.038 A 
ATOM     18  C   UNL     1      10.824   1.294   1.250  0.00  0.00    +0.005 A 
ATOM     19  C   UNL     1      11.434   1.680   2.429  0.00  0.00    +0.020 A 
ATOM     20  C   UNL     1      11.351   0.871   3.548  0.00  0.00    +0.042 A 
ATOM     21  C   UNL     1      10.658  -0.325   3.487  0.00  0.00    +0.040 A 
ATOM     22  C   UNL     1      10.044  -0.708   2.308  0.00  0.00    +0.044 A 
ATOM     23 CL   UNL     1       9.168  -2.205   2.232  0.00  0.00    -0.083 Cl
ATOM     24 CL   UNL     1      12.118   1.355   5.028  0.00  0.00    -0.083 Cl
ENDBRANCH   1  17
BRANCH   1  25
ATOM     25  N   UNL     1      10.152   0.313  -1.232  0.00  0.00    +0.388 N 
ATOM     26  C   UNL     1      11.560  -0.099  -1.243  0.00  0.00    -0.075 C 
ATOM     27  C   UNL     1      12.297   0.622  -2.375  0.00  0.00    +0.013 C 
ATOM     28  C   UNL     1      11.647   0.257  -3.713  0.00  0.00    +0.111 C 
ATOM     29  C   UNL     1      10.161   0.623  -3.663  0.00  0.00    +0.013 C 
ATOM     30  C   UNL     1       9.503  -0.097  -2.483  0.00  0.00    -0.075 C 
ATOM     31  H   UNL     1      10.097   1.316  -1.139  0.00  0.00    -0.080 HD
BRANCH  28  32
ATOM     32  O   UNL     1      12.283   0.984  -4.766  0.00  0.00    -0.392 OA
ATOM     33  H   UNL     1      11.920   0.802  -5.644  0.00  0.00    +0.210 HD
ENDBRANCH  28  32
ENDBRANCH   1  25
TORSDOF 6
