REMARK  Name = ZINC14885808
REMARK  7 active torsions:
REMARK  status: ('A' for Active; 'I' for Inactive)
REMARK    1  A    between atoms: C_10  and  C_11
REMARK    2  A    between atoms: C_11  and  N_12
REMARK    3  A    between atoms: N_12  and  C_13
REMARK    4  A    between atoms: C_13  and  C_14
REMARK    5  A    between atoms: C_14  and  C_15
REMARK    6  A    between atoms: C_25  and  C_28
REMARK    7  A    between atoms: C_28  and  O_29
REMARK                            x       y       z     vdW  Elec       q    Type
REMARK                         _______ _______ _______ _____ _____    ______ ____
ROOT
ATOM      1  C   UNL     1       4.808   8.206  -0.926  0.00  0.00    +0.015 A 
ATOM      2  C   UNL     1       6.080   7.616  -1.071  0.00  0.00    +0.004 A 
ATOM      3  C   UNL     1       7.182   8.364  -1.516  0.00  0.00    +0.059 A 
ATOM      4  C   UNL     1       8.401   7.764  -1.647  0.00  0.00    +0.167 A 
ATOM      5  C   UNL     1       8.565   6.403  -1.339  0.00  0.00    +0.168 A 
ATOM      6  C   UNL     1       7.509   5.654  -0.903  0.00  0.00    +0.078 A 
ATOM      7  C   UNL     1       6.243   6.244  -0.758  0.00  0.00    +0.077 A 
ATOM      8  N   UNL     1       5.197   5.530  -0.326  0.00  0.00    -0.232 NA
ATOM      9  C   UNL     1       4.005   6.075  -0.194  0.00  0.00    +0.123 A 
ATOM     10  C   UNL     1       3.780   7.426  -0.488  0.00  0.00    -0.024 A 
ATOM     11  N   UNL     1       2.948   5.293   0.253  0.00  0.00    -0.315 N 
ATOM     12  C   UNL     1       3.258   4.681   1.551  0.00  0.00    +0.106 C 
ATOM     13  C   UNL     1       2.023   3.949   2.080  0.00  0.00    +0.019 C 
ATOM     14  C   UNL     1       1.604   2.873   1.074  0.00  0.00    +0.009 C 
ATOM     15  C   UNL     1       1.334   3.530  -0.282  0.00  0.00    +0.032 C 
ATOM     16  C   UNL     1       2.590   4.275  -0.742  0.00  0.00    +0.112 C 
ATOM     17  O   UNL     1       9.870   6.066  -1.558  0.00  0.00    -0.453 OA
ATOM     18  C   UNL     1      10.588   7.312  -1.600  0.00  0.00    +0.466 C 
ATOM     19  O   UNL     1       9.606   8.262  -2.053  0.00  0.00    -0.453 OA
ENDROOT
BRANCH  10  20
ATOM     20  C   UNL     1       2.404   8.017  -0.320  0.00  0.00    -0.043 C 
BRANCH  20  21
ATOM     21  N   UNL     1       2.156   8.286   1.103  0.00  0.00    +0.382 N 
ATOM     22  H   UNL     1       2.130   7.336   1.656  0.00  0.00    -0.085 HD
ATOM     23  H   UNL     1       2.962   8.920   1.501  0.00  0.00    -0.085 HD
BRANCH  21  24
ATOM     24  C   UNL     1       0.874   8.977   1.292  0.00  0.00    -0.078 C 
BRANCH  24  25
ATOM     25  C   UNL     1       0.652   9.240   2.783  0.00  0.00    +0.011 C 
BRANCH  25  26
ATOM     26  C   UNL     1      -0.663   9.950   2.978  0.00  0.00    -0.075 C 
ATOM     27  C   UNL     1      -1.706   9.232   3.248  0.00  0.00    -0.028 C 
ATOM     28  C   UNL     1      -3.081   9.793   3.462  0.00  0.00    +0.027 C 
ATOM     29  C   UNL     1      -3.001  11.298   3.727  0.00  0.00    +0.004 C 
ATOM     30  C   UNL     1      -2.120  11.935   2.646  0.00  0.00    +0.005 C 
ATOM     31  C   UNL     1      -0.684  11.444   2.840  0.00  0.00    +0.030 C 
ENDBRANCH  25  26
ENDBRANCH  24  25
ENDBRANCH  21  24
ENDBRANCH  20  21
ENDBRANCH  10  20
BRANCH  15  32
ATOM     32  C   UNL     1       0.973   2.455  -1.308  0.00  0.00    +0.160 C 
BRANCH  32  33
ATOM     33  O   UNL     1      -0.262   1.839  -0.939  0.00  0.00    -0.395 OA
ATOM     34  H   UNL     1      -0.685   1.036  -1.561  0.00  0.00    +0.209 HD
ENDBRANCH  32  33
ENDBRANCH  15  32
TORSDOF 7
