REMARK  Name = ZINC10508038
REMARK  7 active torsions:
REMARK  status: ('A' for Active; 'I' for Inactive)
REMARK    1  A    between atoms: C_10  and  C_11
REMARK    2  A    between atoms: C_11  and  C_13
REMARK    3  A    between atoms: C_11  and  N_53
REMARK    4  A    between atoms: C_13  and  N_14
REMARK    5  A    between atoms: N_14  and  S_15
REMARK    6  A    between atoms: S_15  and  C_18
REMARK    7  A    between atoms: C_22  and  N_24
REMARK                            x       y       z     vdW  Elec       q    Type
REMARK                         _______ _______ _______ _____ _____    ______ ____
ROOT
ATOM      1  C   UNL     1       1.352   2.112   0.035  0.00  0.00    -0.021 C 
ENDROOT
BRANCH   1  11
ATOM      2  C   UNL     1       0.719   5.516   3.806  0.00  0.00    +0.001 A 
ATOM      3  C   UNL     1       0.847   4.129   3.748  0.00  0.00    +0.001 A 
ATOM      4  C   UNL     1       1.009   3.489   2.558  0.00  0.00    +0.009 A 
ATOM      5  C   UNL     1       1.047   4.235   1.367  0.00  0.00    -0.016 A 
ATOM      6  C   UNL     1       0.921   5.646   1.426  0.00  0.00    -0.018 A 
ATOM      7  C   UNL     1       0.761   6.271   2.675  0.00  0.00    +0.008 A 
ATOM      8  C   UNL     1       0.954   6.391   0.235  0.00  0.00    +0.008 A 
ATOM      9  C   UNL     1       1.110   5.750  -0.956  0.00  0.00    +0.001 A 
ATOM     10  C   UNL     1       1.238   4.364  -1.014  0.00  0.00    +0.002 A 
ATOM     11  C   UNL     1       1.212   3.610   0.119  0.00  0.00    -0.052 A 
ENDBRANCH   1  11
BRANCH   1  16
ATOM     12  C   UNL     1       3.449   2.319  -1.184  0.00  0.00    -0.078 C 
ATOM     13  C   UNL     1       4.197   1.446  -2.222  0.00  0.00    -0.020 C 
ATOM     14  C   UNL     1       3.599   0.040  -1.986  0.00  0.00    -0.020 C 
ATOM     15  C   UNL     1       2.241   0.290  -1.304  0.00  0.00    -0.078 C 
ATOM     16  N   UNL     1       2.096   1.744  -1.207  0.00  0.00    +0.385 N 
ATOM     17  H   UNL     1       1.582   2.096  -2.023  0.00  0.00    -0.081 HD
ENDBRANCH   1  16
BRANCH   1  18
ATOM     18  C   UNL     1      -0.036   1.470   0.014  0.00  0.00    +0.095 C 
BRANCH  18  19
ATOM     19  N   UNL     1      -0.732   1.851  -1.218  0.00  0.00    -0.191 NA
ATOM     20  H   UNL     1      -0.398   2.586  -1.756  0.00  0.00    +0.148 HD
BRANCH  19  21
ATOM     21  S   UNL     1      -2.088   1.028  -1.692  0.00  0.00    +0.058 S 
ATOM     22  O   UNL     1      -2.539   1.644  -2.891  0.00  0.00    -0.153 OA
ATOM     23  O   UNL     1      -1.770  -0.355  -1.619  0.00  0.00    -0.153 OA
BRANCH  21  24
ATOM     24  C   UNL     1      -3.329   1.324  -0.476  0.00  0.00    +0.107 A 
ATOM     25  C   UNL     1      -3.450   0.477   0.609  0.00  0.00    +0.028 A 
ATOM     26  C   UNL     1      -4.421   0.711   1.564  0.00  0.00    +0.004 A 
ATOM     27  C   UNL     1      -5.277   1.789   1.430  0.00  0.00    +0.033 A 
ATOM     28  C   UNL     1      -5.159   2.634   0.343  0.00  0.00    +0.128 A 
ATOM     29  C   UNL     1      -4.185   2.401  -0.611  0.00  0.00    +0.061 A 
BRANCH  28  30
ATOM     30  N   UNL     1      -6.075   3.787   0.199  0.00  0.00    +0.056 N 
ATOM     31  O   UNL     1      -5.972   4.531  -0.760  0.00  0.00    -0.126 OA
ATOM     32  O   UNL     1      -6.933   3.992   1.039  0.00  0.00    -0.126 OA
ENDBRANCH  28  30
ENDBRANCH  21  24
ENDBRANCH  19  21
ENDBRANCH  18  19
ENDBRANCH   1  18
TORSDOF 7
