REMARK  Name = ZINC30514108
REMARK  8 active torsions:
REMARK  status: ('A' for Active; 'I' for Inactive)
REMARK    1  A    between atoms: C_1  and  C_2
REMARK    2  A    between atoms: C_2  and  C_4
REMARK    3  A    between atoms: C_2  and  N_16
REMARK    4  A    between atoms: N_6  and  C_7
REMARK    5  A    between atoms: C_10  and  N_13
REMARK    6  A    between atoms: N_16  and  C_17
REMARK    7  A    between atoms: C_17  and  C_18
REMARK    8  A    between atoms: C_18  and  N_23
REMARK                            x       y       z     vdW  Elec       q    Type
REMARK                         _______ _______ _______ _____ _____    ______ ____
ROOT
ATOM      1  C   UNL     1      -0.755   1.609  -1.230  0.00  0.00    -0.004 C 
ATOM      2  C   UNL     1      -0.015   1.091   0.004  0.00  0.00    +0.013 C 
ENDROOT
BRANCH   2   3
ATOM      3  C   UNL     1      -0.718   1.570   1.249  0.00  0.00    +0.203 C 
ATOM      4  O   UNL     1      -0.127   2.264   2.049  0.00  0.00    -0.277 OA
ATOM      5  N   UNL     1      -2.002   1.228   1.472  0.00  0.00    -0.287 N 
ATOM      6  H   UNL     1      -2.560   0.662   0.711  0.00  0.00    +0.155 HD
BRANCH   5   7
ATOM      7  C   UNL     1      -2.625   1.590   2.671  0.00  0.00    +0.033 A 
ATOM      8  C   UNL     1      -3.560   0.745   3.253  0.00  0.00    +0.025 A 
ATOM      9  C   UNL     1      -4.168   1.103   4.440  0.00  0.00    +0.034 A 
ATOM     10  C   UNL     1      -3.856   2.308   5.043  0.00  0.00    +0.126 A 
ATOM     11  C   UNL     1      -2.930   3.155   4.463  0.00  0.00    +0.034 A 
ATOM     12  C   UNL     1      -2.313   2.800   3.279  0.00  0.00    +0.025 A 
BRANCH  10  13
ATOM     13  N   UNL     1      -4.515   2.691   6.311  0.00  0.00    +0.056 N 
ATOM     14  O   UNL     1      -4.241   3.752   6.843  0.00  0.00    -0.126 OA
ATOM     15  O   UNL     1      -5.331   1.946   6.823  0.00  0.00    -0.126 OA
ENDBRANCH  10  13
ENDBRANCH   5   7
ENDBRANCH   2   3
BRANCH   2  16
ATOM     16  N   UNL     1       1.364   1.597  -0.004  0.00  0.00    +0.388 N 
ATOM     17  H   UNL     1       1.381   2.611  -0.430  0.00  0.00    -0.085 HD
ATOM     18  H   UNL     1       1.751   1.625   1.025  0.00  0.00    -0.085 HD
BRANCH  16  19
ATOM     19  C   UNL     1       2.236   0.733  -0.811  0.00  0.00    -0.059 C 
BRANCH  19  20
ATOM     20  C   UNL     1       3.661   1.290  -0.796  0.00  0.00    +0.007 C 
ATOM     21  C   UNL     1       3.686   2.695  -1.432  0.00  0.00    +0.020 C 
ATOM     22  C   UNL     1       5.025   2.737  -2.209  0.00  0.00    +0.002 C 
ATOM     23  C   UNL     1       5.135   1.301  -2.779  0.00  0.00    +0.002 C 
ATOM     24  C   UNL     1       4.583   0.404  -1.653  0.00  0.00    +0.020 C 
BRANCH  20  25
ATOM     25  N   UNL     1       4.163   1.352   0.583  0.00  0.00    -0.297 NA
ATOM     26  C   UNL     1       4.332   0.008   1.141  0.00  0.00    +0.095 C 
ATOM     27  C   UNL     1       5.260   0.064   2.359  0.00  0.00    +0.084 C 
ATOM     28  S   UNL     1       4.488   1.126   3.619  0.00  0.00    -0.158 S 
ATOM     29  C   UNL     1       4.068   2.625   2.678  0.00  0.00    +0.084 C 
ATOM     30  C   UNL     1       3.309   2.204   1.414  0.00  0.00    +0.095 C 
ENDBRANCH  20  25
ENDBRANCH  19  20
ENDBRANCH  16  19
ENDBRANCH   2  16
TORSDOF 7
