REMARK  Name = ZINC39684610
REMARK  13 active torsions:
REMARK  status: ('A' for Active; 'I' for Inactive)
REMARK    1  A    between atoms: C_1  and  C_2
REMARK    2  A    between atoms: C_4  and  C_11
REMARK    3  A    between atoms: N_5  and  C_7
REMARK    4  A    between atoms: C_7  and  C_8
REMARK    5  A    between atoms: C_7  and  C_9
REMARK    6  A    between atoms: C_7  and  C_10
REMARK    7  A    between atoms: C_15  and  C_24
REMARK    8  A    between atoms: N_26  and  C_27
REMARK    9  A    between atoms: C_27  and  C_29
REMARK   10  A    between atoms: C_27  and  C_30
REMARK   11  A    between atoms: C_30  and  C_31
REMARK   12  A    between atoms: C_30  and  C_32
REMARK   13  A    between atoms: C_30  and  C_33
REMARK                            x       y       z     vdW  Elec       q    Type
REMARK                         _______ _______ _______ _____ _____    ______ ____
ROOT
ATOM      1  C   UNL     1      -0.530  -3.730  -1.462  0.00  0.00    +0.265 C 
ATOM      2  O   UNL     1      -0.730  -3.785  -2.661  0.00  0.00    -0.268 OA
ATOM      3  N   UNL     1      -0.437  -4.865  -0.741  0.00  0.00    -0.295 N 
ATOM      4  C   UNL     1      -0.331  -5.000   0.731  0.00  0.00    +0.121 C 
ATOM      5  C   UNL     1      -1.210  -6.223   1.075  0.00  0.00    +0.100 C 
ATOM      6  C   UNL     1      -1.261  -7.047  -0.223  0.00  0.00    -0.004 C 
ATOM      7  C   UNL     1      -0.423  -6.261  -1.242  0.00  0.00    +0.115 C 
ATOM      8  C   UNL     1      -2.700  -7.170  -0.715  0.00  0.00    -0.010 C 
ATOM      9  C   UNL     1      -2.732  -8.041  -1.974  0.00  0.00    -0.082 C 
ATOM     10  N   UNL     1      -2.183  -9.367  -1.667  0.00  0.00    +0.379 N 
ATOM     11  C   UNL     1      -0.771  -9.249  -1.284  0.00  0.00    -0.082 C 
ATOM     12  C   UNL     1      -0.657  -8.430   0.004  0.00  0.00    -0.010 C 
ATOM     13  H   UNL     1      -2.704  -9.777  -0.906  0.00  0.00    -0.086 HD
ATOM     14  H   UNL     1      -2.261  -9.958  -2.481  0.00  0.00    -0.086 HD
ENDROOT
BRANCH   1  18
ATOM     15  C   UNL     1       0.313  -0.046   1.920  0.00  0.00    +0.067 C 
ATOM     16  C   UNL     1      -0.027  -0.805   0.663  0.00  0.00    +0.061 A 
ATOM     17  C   UNL     1      -0.012  -2.194   0.512  0.00  0.00    +0.057 A 
ATOM     18  C   UNL     1      -0.391  -2.424  -0.799  0.00  0.00    +0.124 A 
ATOM     19  N   UNL     1      -0.609  -1.195  -1.355  0.00  0.00    -0.254 N 
ATOM     20  N   UNL     1      -0.393  -0.281  -0.478  0.00  0.00    -0.175 NA
BRANCH  19  21
ATOM     21  C   UNL     1      -1.029  -0.956  -2.737  0.00  0.00    +0.056 C 
ATOM     22  C   UNL     1      -2.314  -1.737  -3.022  0.00  0.00    +0.036 C 
ATOM     23  C   UNL     1      -1.285   0.539  -2.942  0.00  0.00    +0.036 C 
ATOM     24  C   UNL     1       0.072  -1.420  -3.693  0.00  0.00    +0.036 C 
ENDBRANCH  19  21
ENDBRANCH   1  18
BRANCH   5  25
ATOM     25  C   UNL     1      -2.594  -5.780   1.472  0.00  0.00    +0.218 C 
ATOM     26  O   UNL     1      -3.070  -4.774   0.991  0.00  0.00    -0.275 OA
ATOM     27  N   UNL     1      -3.303  -6.501   2.363  0.00  0.00    -0.312 N 
ATOM     28  H   UNL     1      -2.895  -7.261   2.806  0.00  0.00    +0.149 HD
BRANCH  27  29
ATOM     29  C   UNL     1      -4.690  -6.137   2.663  0.00  0.00    +0.075 C 
ATOM     30  C   UNL     1      -4.710  -5.054   3.744  0.00  0.00    +0.028 C 
BRANCH  29  31
ATOM     31  C   UNL     1      -5.445  -7.370   3.162  0.00  0.00    -0.020 C 
ATOM     32  C   UNL     1      -4.772  -7.902   4.429  0.00  0.00    +0.012 C 
ATOM     33  C   UNL     1      -6.893  -6.989   3.475  0.00  0.00    +0.012 C 
ATOM     34  C   UNL     1      -5.424  -8.453   2.081  0.00  0.00    +0.012 C 
ENDBRANCH  29  31
ENDBRANCH  27  29
ENDBRANCH   5  25
TORSDOF 5
