REMARK  Name = ZINC09546581
REMARK  14 active torsions:
REMARK  status: ('A' for Active; 'I' for Inactive)
REMARK    1  A    between atoms: C_1  and  C_2
REMARK    2  A    between atoms: C_2  and  O_3
REMARK    3  A    between atoms: O_3  and  C_4
REMARK    4  A    between atoms: C_4  and  C_6
REMARK    5  A    between atoms: C_7  and  C_35
REMARK    6  A    between atoms: N_8  and  C_28
REMARK    7  A    between atoms: C_12  and  O_15
REMARK    8  A    between atoms: O_15  and  C_16
REMARK    9  A    between atoms: C_16  and  C_17
REMARK   10  A    between atoms: C_17  and  C_19
REMARK   11  A    between atoms: C_17  and  O_27
REMARK   12  A    between atoms: C_19  and  N_70
REMARK   13  A    between atoms: C_24  and  C_26
REMARK   14  A    between atoms: C_31  and  C_34
REMARK                            x       y       z     vdW  Elec       q    Type
REMARK                         _______ _______ _______ _____ _____    ______ ____
ROOT
ATOM      1  C   UNL     1      -0.266   1.728   0.993  0.00  0.00    +0.088 A 
ATOM      2  C   UNL     1      -0.296   2.331  -0.231  0.00  0.00    +0.036 A 
ATOM      3  N   UNL     1      -0.075   3.662  -0.091  0.00  0.00    -0.312 N 
ATOM      4  C   UNL     1       0.110   3.982   1.242  0.00  0.00    +0.055 A 
ATOM      5  C   UNL     1      -0.006   2.793   1.980  0.00  0.00    +0.018 A 
ATOM      6  C   UNL     1       0.143   2.811   3.364  0.00  0.00    +0.056 A 
ATOM      7  C   UNL     1       0.395   4.008   4.008  0.00  0.00    +0.121 A 
ATOM      8  C   UNL     1       0.504   5.187   3.277  0.00  0.00    +0.048 A 
ATOM      9  C   UNL     1       0.363   5.177   1.906  0.00  0.00    +0.030 A 
ATOM     10  C   UNL     1      -0.539   1.626  -1.540  0.00  0.00    +0.065 C 
ENDROOT
BRANCH   3  11
ATOM     11  C   UNL     1      -0.039   4.582  -1.146  0.00  0.00    +0.047 A 
ATOM     12  C   UNL     1       1.139   5.252  -1.446  0.00  0.00    +0.026 A 
ATOM     13  C   UNL     1       1.172   6.155  -2.490  0.00  0.00    +0.005 A 
ATOM     14  C   UNL     1       0.030   6.400  -3.231  0.00  0.00    -0.050 A 
ATOM     15  C   UNL     1      -1.146   5.738  -2.931  0.00  0.00    +0.005 A 
ATOM     16  C   UNL     1      -1.184   4.830  -1.892  0.00  0.00    +0.026 A 
ATOM     17  C   UNL     1       0.068   7.390  -4.366  0.00  0.00    +0.044 C 
ENDBRANCH   3  11
BRANCH   1  18
ATOM     18  C   UNL     1      -0.460   0.300   1.272  0.00  0.00    +0.342 C 
ATOM     19  O   UNL     1       0.495  -0.452   1.283  0.00  0.00    -0.245 OA
BRANCH  18  20
ATOM     20  O   UNL     1      -1.697  -0.177   1.517  0.00  0.00    -0.461 OA
BRANCH  20  22
ATOM     21  C   UNL     1      -3.281  -1.952   2.038  0.00  0.00    +0.048 C 
ATOM     22  C   UNL     1      -1.814  -1.599   1.786  0.00  0.00    +0.229 C 
ENDBRANCH  20  22
ENDBRANCH  18  20
ENDBRANCH   1  18
BRANCH   7  23
ATOM     23  O   UNL     1       0.536   4.034   5.360  0.00  0.00    -0.489 OA
BRANCH  23  24
ATOM     24  C   UNL     1       0.796   5.304   5.962  0.00  0.00    +0.258 C 
BRANCH  24  25
ATOM     25  C   UNL     1       0.923   5.135   7.477  0.00  0.00    +0.135 C 
BRANCH  25  26
ATOM     26  O   UNL     1       2.071   4.336   7.771  0.00  0.00    -0.390 OA
ATOM     27  H   UNL     1       2.904   4.712   7.455  0.00  0.00    +0.210 HD
ENDBRANCH  25  26
BRANCH  25  28
ATOM     28  C   UNL     1       1.077   6.509   8.132  0.00  0.00    -0.043 C 
BRANCH  28  35
ATOM     29  C   UNL     1       2.314   5.846  10.104  0.00  0.00    -0.078 C 
ATOM     30  C   UNL     1       2.190   5.568  11.604  0.00  0.00    -0.019 C 
ATOM     31  C   UNL     1       1.814   6.863  12.329  0.00  0.00    -0.003 C 
ATOM     32  C   UNL     1       0.506   7.404  11.745  0.00  0.00    -0.016 C 
ATOM     33  C   UNL     1       0.679   7.629  10.241  0.00  0.00    -0.072 C 
ATOM     34  C   UNL     1      -0.631   8.151   9.650  0.00  0.00    -0.013 C 
ATOM     35  N   UNL     1       1.016   6.341   9.599  0.00  0.00    +0.383 N 
ATOM     36  H   UNL     1       0.287   5.655   9.826  0.00  0.00    -0.081 HD
ENDBRANCH  28  35
ENDBRANCH  25  28
ENDBRANCH  24  25
ENDBRANCH  23  24
ENDBRANCH   7  23
TORSDOF 10
