REMARK  Name = ZINC32964496
REMARK  6 active torsions:
REMARK  status: ('A' for Active; 'I' for Inactive)
REMARK    1  A    between atoms: C_1  and  C_2
REMARK    2  A    between atoms: C_2  and  C_3
REMARK    3  A    between atoms: C_2  and  C_4
REMARK    4  A    between atoms: C_7  and  N_10
REMARK    5  A    between atoms: C_14  and  C_15
REMARK    6  A    between atoms: C_25  and  C_27
REMARK                            x       y       z     vdW  Elec       q    Type
REMARK                         _______ _______ _______ _____ _____    ______ ____
ROOT
ATOM      1  C   UNL     1      -6.015  -1.731  -1.844  0.00  0.00    +0.042 C 
ATOM      2  C   UNL     1      -7.000  -1.965  -2.789  0.00  0.00    +0.080 C 
ATOM      3  C   UNL     1      -8.335  -2.503  -2.412  0.00  0.00    +0.132 C 
ATOM      4  N   UNL     1      -8.925  -2.229  -1.277  0.00  0.00    -0.385 N 
ATOM      5  N   UNL     1      -8.903  -3.337  -3.399  0.00  0.00    -0.153 N 
ATOM      6  C   UNL     1      -8.469  -3.173  -4.697  0.00  0.00    +0.181 C 
ATOM      7  N   UNL     1      -7.511  -2.390  -5.124  0.00  0.00    -0.152 NA
ATOM      8  C   UNL     1      -6.783  -1.689  -4.228  0.00  0.00    +0.273 C 
ATOM      9  O   UNL     1      -5.968  -0.856  -4.591  0.00  0.00    -0.268 OA
ATOM     10  S   UNL     1      -9.518  -4.294  -5.584  0.00  0.00    -0.029 S 
ATOM     11  C   UNL     1     -10.383  -4.971  -4.173  0.00  0.00    +0.202 C 
ATOM     12  N   UNL     1      -9.867  -4.299  -3.184  0.00  0.00    -0.160 NA
ATOM     13  H   UNL     1      -8.532  -1.584  -0.669  0.00  0.00    +0.157 HD
ATOM     14  H   UNL     1      -9.757  -2.671  -1.043  0.00  0.00    +0.157 HD
ENDROOT
BRANCH   1  19
ATOM     15  N   UNL     1      -5.267  -2.106   0.499  0.00  0.00    -0.316 N 
ATOM     16  C   UNL     1      -5.650  -2.910   1.524  0.00  0.00    +0.092 A 
ATOM     17  C   UNL     1      -6.691  -3.680   1.115  0.00  0.00    +0.020 A 
ATOM     18  C   UNL     1      -6.977  -3.352  -0.210  0.00  0.00    +0.027 A 
ATOM     19  C   UNL     1      -6.082  -2.360  -0.587  0.00  0.00    +0.047 A 
BRANCH  15  23
ATOM     20  C   UNL     1      -2.166   0.676   0.618  0.00  0.00    -0.045 A 
ATOM     21  C   UNL     1      -3.136   0.682   1.603  0.00  0.00    +0.006 A 
ATOM     22  C   UNL     1      -4.166  -0.239   1.567  0.00  0.00    +0.026 A 
ATOM     23  C   UNL     1      -4.225  -1.171   0.539  0.00  0.00    +0.047 A 
ATOM     24  C   UNL     1      -3.249  -1.174  -0.449  0.00  0.00    +0.026 A 
ATOM     25  C   UNL     1      -2.226  -0.248  -0.409  0.00  0.00    +0.006 A 
BRANCH  20  27
ATOM     26  C   UNL     1      -1.629   3.094   0.726  0.00  0.00    +0.012 C 
ATOM     27  C   UNL     1      -1.044   1.681   0.661  0.00  0.00    +0.013 C 
ATOM     28  C   UNL     1      -0.181   1.429   1.899  0.00  0.00    +0.012 C 
ENDBRANCH  20  27
ENDBRANCH  15  23
ENDBRANCH   1  19
BRANCH  11  29
ATOM     29  C   UNL     1     -11.438  -6.046  -4.138  0.00  0.00    +0.442 C 
ATOM     30  F   UNL     1     -11.921  -6.182  -2.832  0.00  0.00    -0.164 F 
ATOM     31  F   UNL     1     -12.491  -5.694  -4.990  0.00  0.00    -0.164 F 
ATOM     32  F   UNL     1     -10.884  -7.259  -4.559  0.00  0.00    -0.164 F 
ENDBRANCH  11  29
TORSDOF 4
