REMARK  Name = ZINC35574507
REMARK  6 active torsions:
REMARK  status: ('A' for Active; 'I' for Inactive)
REMARK    1  A    between atoms: C_2  and  C_24
REMARK    2  A    between atoms: C_15  and  C_17
REMARK    3  A    between atoms: C_17  and  C_18
REMARK    4  A    between atoms: C_18  and  C_19
REMARK    5  A    between atoms: C_24  and  N_25
REMARK    6  A    between atoms: N_28  and  C_31
REMARK                            x       y       z     vdW  Elec       q    Type
REMARK                         _______ _______ _______ _____ _____    ______ ____
ROOT
ATOM      1  C   UNL     1      -0.017   1.401   0.003  0.00  0.00    +0.094 A 
ATOM      2  C   UNL     1       1.157   2.061  -0.217  0.00  0.00    +0.064 A 
ATOM      3  N   UNL     1       2.307   1.392  -0.224  0.00  0.00    -0.219 NA
ATOM      4  C   UNL     1       2.345   0.090  -0.020  0.00  0.00    +0.199 A 
ATOM      5  N   UNL     1       1.206  -0.620   0.205  0.00  0.00    -0.295 N 
ATOM      6  H   UNL     1       1.251  -1.578   0.353  0.00  0.00    +0.172 HD
ATOM      7  C   UNL     1       0.014   0.013   0.222  0.00  0.00    +0.253 A 
ATOM      8  O   UNL     1      -1.017  -0.608   0.422  0.00  0.00    -0.268 OA
ATOM      9  N   UNL     1       3.550  -0.559  -0.035  0.00  0.00    -0.298 N 
ATOM     10  C   UNL     1       3.612  -2.024   0.061  0.00  0.00    +0.127 C 
ATOM     11  C   UNL     1       4.402  -2.561  -1.140  0.00  0.00    +0.126 C 
ATOM     12  N   UNL     1       5.657  -1.804  -1.252  0.00  0.00    -0.298 N 
ATOM     13  C   UNL     1       5.595  -0.339  -1.348  0.00  0.00    +0.126 C 
ATOM     14  C   UNL     1       4.805   0.197  -0.153  0.00  0.00    +0.127 C 
ATOM     15  C   UNL     1       6.844  -2.443  -1.267  0.00  0.00    +0.216 C 
ATOM     16  O   UNL     1       6.882  -3.653  -1.187  0.00  0.00    -0.276 OA
ENDROOT
BRANCH  15  17
ATOM     17  C   UNL     1       8.122  -1.655  -1.383  0.00  0.00    +0.096 C 
BRANCH  17  18
ATOM     18  C   UNL     1       9.315  -2.613  -1.376  0.00  0.00    +0.013 C 
BRANCH  18  19
ATOM     19  C   UNL     1      10.613  -1.812  -1.494  0.00  0.00    -0.011 C 
ATOM     20  C   UNL     1      10.709  -1.162  -2.890  0.00  0.00    +0.003 C 
ATOM     21  C   UNL     1      12.212  -1.254  -3.250  0.00  0.00    +0.000 C 
ATOM     22  C   UNL     1      12.615  -2.638  -2.684  0.00  0.00    +0.000 C 
ATOM     23  C   UNL     1      11.825  -2.751  -1.363  0.00  0.00    +0.003 C 
ENDBRANCH  18  19
ENDBRANCH  17  18
ENDBRANCH  15  17
BRANCH   2  24
ATOM     24  C   UNL     1       1.151   3.549  -0.455  0.00  0.00    +0.140 C 
BRANCH  24  25
ATOM     25  N   UNL     1       1.853   4.223   0.646  0.00  0.00    -0.300 NA
ATOM     26  C   UNL     1       1.117   4.073   1.910  0.00  0.00    +0.066 C 
ATOM     27  C   UNL     1       1.909   4.736   3.039  0.00  0.00    -0.063 C 
ATOM     28  N   UNL     1       2.103   6.159   2.731  0.00  0.00    +0.383 N 
ATOM     29  C   UNL     1       2.859   6.293   1.479  0.00  0.00    -0.063 C 
ATOM     30  C   UNL     1       2.075   5.643   0.337  0.00  0.00    +0.066 C 
ATOM     31  H   UNL     1       1.204   6.606   2.630  0.00  0.00    -0.081 HD
BRANCH  28  32
ATOM     32  C   UNL     1       2.847   6.800   3.824  0.00  0.00    -0.068 C 
ATOM     33  C   UNL     1       2.030   6.731   5.131  0.00  0.00    -0.015 C 
ATOM     34  C   UNL     1       2.318   8.082   5.830  0.00  0.00    -0.002 C 
ATOM     35  C   UNL     1       2.361   9.078   4.645  0.00  0.00    -0.002 C 
ATOM     36  C   UNL     1       3.057   8.292   3.515  0.00  0.00    -0.015 C 
ENDBRANCH  28  32
ENDBRANCH  24  25
ENDBRANCH   2  24
TORSDOF 6
