REMARK  Name = ZINC44960388
REMARK  10 active torsions:
REMARK  status: ('A' for Active; 'I' for Inactive)
REMARK    1  A    between atoms: C_1  and  C_2
REMARK    2  A    between atoms: C_2  and  C_3
REMARK    3  A    between atoms: C_2  and  C_4
REMARK    4  A    between atoms: C_7  and  O_34
REMARK    5  A    between atoms: C_8  and  C_10
REMARK    6  A    between atoms: C_10  and  N_11
REMARK    7  A    between atoms: C_16  and  C_18
REMARK    8  A    between atoms: C_23  and  C_26
REMARK    9  A    between atoms: C_23  and  O_33
REMARK   10  A    between atoms: O_34  and  C_35
REMARK                            x       y       z     vdW  Elec       q    Type
REMARK                         _______ _______ _______ _____ _____    ______ ____
ROOT
ATOM      1  N   UNL     1      -3.646  -4.038  -1.754  0.00  0.00    +0.390 N 
ATOM      2  C   UNL     1      -4.678  -4.277  -0.738  0.00  0.00    -0.077 C 
ATOM      3  C   UNL     1      -4.542  -5.700  -0.192  0.00  0.00    -0.019 C 
ATOM      4  C   UNL     1      -4.712  -6.700  -1.339  0.00  0.00    -0.003 C 
ATOM      5  C   UNL     1      -3.678  -6.394  -2.427  0.00  0.00    -0.006 C 
ATOM      6  C   UNL     1      -3.846  -4.945  -2.890  0.00  0.00    +0.020 C 
ATOM      7  H   UNL     1      -2.736  -4.201  -1.351  0.00  0.00    -0.080 HD
ENDROOT
BRANCH   6   8
ATOM      8  C   UNL     1      -2.831  -4.639  -3.961  0.00  0.00    +0.202 C 
ATOM      9  O   UNL     1      -1.757  -4.163  -3.660  0.00  0.00    -0.277 OA
ATOM     10  N   UNL     1      -3.117  -4.895  -5.253  0.00  0.00    -0.303 N 
ATOM     11  C   UNL     1      -4.371  -5.566  -5.624  0.00  0.00    +0.111 C 
ATOM     12  C   UNL     1      -4.040  -6.784  -6.491  0.00  0.00    +0.058 C 
ATOM     13  C   UNL     1      -3.187  -6.341  -7.683  0.00  0.00    +0.094 C 
ATOM     14  C   UNL     1      -1.875  -5.737  -7.177  0.00  0.00    +0.058 C 
ATOM     15  C   UNL     1      -2.184  -4.502  -6.318  0.00  0.00    +0.111 C 
BRANCH  13  16
ATOM     16  C   UNL     1      -2.888  -7.532  -8.556  0.00  0.00    -0.016 A 
ATOM     17  C   UNL     1      -2.799  -8.794  -7.998  0.00  0.00    +0.008 A 
ATOM     18  C   UNL     1      -2.525  -9.886  -8.799  0.00  0.00    +0.020 A 
ATOM     19  C   UNL     1      -2.339  -9.717 -10.160  0.00  0.00    +0.041 A 
ATOM     20  C   UNL     1      -2.428  -8.454 -10.718  0.00  0.00    +0.020 A 
ATOM     21  C   UNL     1      -2.708  -7.363  -9.917  0.00  0.00    +0.008 A 
ATOM     22 CL   UNL     1      -1.994 -11.089 -11.166  0.00  0.00    -0.084 Cl
ENDBRANCH  13  16
BRANCH  13  23
ATOM     23  O   UNL     1      -3.901  -5.362  -8.441  0.00  0.00    -0.384 OA
ATOM     24  H   UNL     1      -3.420  -5.035  -9.213  0.00  0.00    +0.211 HD
ENDBRANCH  13  23
ENDBRANCH   6   8
BRANCH   1  25
ATOM     25  C   UNL     1      -3.732  -2.647  -2.218  0.00  0.00    -0.038 C 
BRANCH  25  30
ATOM     26  C   UNL     1      -1.792  -0.391   0.106  0.00  0.00    -0.044 A 
ATOM     27  C   UNL     1      -2.771  -0.007   1.004  0.00  0.00    +0.007 A 
ATOM     28  C   UNL     1      -4.062  -0.476   0.862  0.00  0.00    +0.046 A 
ATOM     29  C   UNL     1      -4.377  -1.333  -0.183  0.00  0.00    +0.121 A 
ATOM     30  C   UNL     1      -3.393  -1.716  -1.082  0.00  0.00    -0.022 A 
ATOM     31  C   UNL     1      -2.104  -1.240  -0.939  0.00  0.00    +0.009 A 
BRANCH  26  33
ATOM     32  C   UNL     1      -0.386   1.650   0.186  0.00  0.00    +0.012 C 
ATOM     33  C   UNL     1      -0.384   0.122   0.264  0.00  0.00    +0.013 C 
ATOM     34  C   UNL     1       0.171  -0.319   1.619  0.00  0.00    +0.012 C 
ENDBRANCH  26  33
BRANCH  29  35
ATOM     35  O   UNL     1      -5.647  -1.796  -0.324  0.00  0.00    -0.495 OA
ATOM     36  C   UNL     1      -6.608  -1.360   0.640  0.00  0.00    +0.277 C 
ENDBRANCH  29  35
ENDBRANCH  25  30
ENDBRANCH   1  25
TORSDOF 7
