REMARK  Name = ZINC58183097
REMARK  4 active torsions:
REMARK  status: ('A' for Active; 'I' for Inactive)
REMARK    1  A    between atoms: C_4  and  C_7
REMARK    2  A    between atoms: C_15  and  C_17
REMARK    3  A    between atoms: N_20  and  S_23
REMARK    4  A    between atoms: S_23  and  C_26
REMARK                            x       y       z     vdW  Elec       q    Type
REMARK                         _______ _______ _______ _____ _____    ______ ____
ROOT
ATOM      1  C   UNL     1       3.511  -0.574  -0.175  0.00  0.00    +0.192 C 
ATOM      2  C   UNL     1       3.597  -0.911   1.288  0.00  0.00    +0.238 C 
ATOM      3  O   UNL     1       3.947  -0.045   2.062  0.00  0.00    -0.273 OA
ATOM      4  N   UNL     1       3.306  -2.119   1.774  0.00  0.00    -0.312 N 
ATOM      5  C   UNL     1       2.961  -3.277   0.961  0.00  0.00    +0.123 C 
ATOM      6  C   UNL     1       2.452  -2.841  -0.414  0.00  0.00    +0.127 C 
ATOM      7  N   UNL     1       3.374  -1.819  -0.946  0.00  0.00    -0.284 N 
ATOM      8  C   UNL     1       4.062  -2.018  -2.087  0.00  0.00    +0.220 C 
ATOM      9  O   UNL     1       4.885  -1.203  -2.448  0.00  0.00    -0.275 OA
ATOM     10  H   UNL     1       3.326  -2.234   2.737  0.00  0.00    +0.149 HD
ENDROOT
BRANCH   1  14
ATOM     11  C   UNL     1       0.115   1.920  -0.874  0.00  0.00    +0.000 A 
ATOM     12  C   UNL     1       1.374   2.346  -1.252  0.00  0.00    +0.000 A 
ATOM     13  C   UNL     1       2.473   1.539  -1.026  0.00  0.00    +0.006 A 
ATOM     14  C   UNL     1       2.313   0.306  -0.421  0.00  0.00    -0.018 A 
ATOM     15  C   UNL     1       1.053  -0.119  -0.042  0.00  0.00    +0.006 A 
ATOM     16  C   UNL     1      -0.046   0.687  -0.269  0.00  0.00    +0.000 A 
ENDBRANCH   1  14
BRANCH   8  17
ATOM     17  C   UNL     1       3.810  -3.251  -2.915  0.00  0.00    +0.078 C 
ATOM     18  C   UNL     1       4.295  -4.486  -2.151  0.00  0.00    +0.030 C 
ATOM     19  C   UNL     1       4.005  -5.741  -2.980  0.00  0.00    +0.110 C 
ATOM     20  N   UNL     1       4.609  -5.579  -4.310  0.00  0.00    -0.176 NA
ATOM     21  C   UNL     1       4.281  -4.380  -5.093  0.00  0.00    +0.110 C 
ATOM     22  C   UNL     1       4.567  -3.140  -4.240  0.00  0.00    +0.030 C 
BRANCH  20  23
ATOM     23  S   UNL     1       5.640  -6.725  -4.914  0.00  0.00    +0.064 S 
ATOM     24  O   UNL     1       6.455  -6.071  -5.877  0.00  0.00    -0.153 OA
ATOM     25  O   UNL     1       6.184  -7.412  -3.795  0.00  0.00    -0.153 OA
BRANCH  23  26
ATOM     26  C   UNL     1       4.660  -7.895  -5.795  0.00  0.00    +0.142 A 
ATOM     27  C   UNL     1       4.808  -8.044  -7.165  0.00  0.00    +0.033 A 
ATOM     28  C   UNL     1       4.015  -8.977  -7.817  0.00  0.00    +0.022 A 
ATOM     29  C   UNL     1       3.111  -9.722  -7.085  0.00  0.00    +0.112 A 
ATOM     30  N   UNL     1       2.996  -9.554  -5.782  0.00  0.00    -0.242 NA
ATOM     31  C   UNL     1       3.737  -8.680  -5.127  0.00  0.00    +0.155 A 
ATOM     32 CL   UNL     1       3.547  -8.508  -3.410  0.00  0.00    -0.060 Cl
ENDBRANCH  23  26
ENDBRANCH  20  23
ENDBRANCH   8  17
TORSDOF 4
