REMARK  Name = ZINC09765216
REMARK  9 active torsions:
REMARK  status: ('A' for Active; 'I' for Inactive)
REMARK    1  A    between atoms: C_1  and  C_2
REMARK    2  A    between atoms: C_2  and  O_3
REMARK    3  A    between atoms: O_3  and  C_4
REMARK    4  A    between atoms: C_4  and  C_5
REMARK    5  A    between atoms: C_5  and  N_6
REMARK    6  A    between atoms: C_9  and  C_26
REMARK    7  A    between atoms: C_11  and  C_25
REMARK    8  A    between atoms: N_15  and  C_16
REMARK    9  A    between atoms: C_16  and  C_18
REMARK                            x       y       z     vdW  Elec       q    Type
REMARK                         _______ _______ _______ _____ _____    ______ ____
ROOT
ATOM      1  N   UNL     1      -0.046   2.531   4.790  0.00  0.00    -0.319 N 
ATOM      2  C   UNL     1      -0.619   2.253   3.563  0.00  0.00    +0.058 A 
ATOM      3  C   UNL     1       0.009   1.800   2.392  0.00  0.00    +0.030 A 
ATOM      4  C   UNL     1      -0.718   1.572   1.248  0.00  0.00    -0.048 A 
ATOM      5  C   UNL     1      -2.086   1.785   1.212  0.00  0.00    +0.008 A 
ATOM      6  C   UNL     1      -2.731   2.227   2.353  0.00  0.00    -0.034 A 
ATOM      7  C   UNL     1      -2.005   2.455   3.498  0.00  0.00    +0.042 A 
ATOM      8  S   UNL     1      -2.412   3.013   5.133  0.00  0.00    -0.052 S 
ATOM      9  C   UNL     1      -0.821   2.966   5.821  0.00  0.00    +0.167 A 
ATOM     10  N   UNL     1      -0.447   3.279   7.057  0.00  0.00    -0.152 NA
ATOM     11  C   UNL     1      -4.220   2.462   2.340  0.00  0.00    +0.045 C 
ATOM     12  C   UNL     1      -0.013   1.086   0.008  0.00  0.00    +0.044 C 
ENDROOT
BRANCH  10  13
ATOM     13  C   UNL     1      -1.356   3.693   7.945  0.00  0.00    +0.269 C 
ATOM     14  O   UNL     1      -2.528   3.784   7.621  0.00  0.00    -0.268 OA
BRANCH  13  15
ATOM     15  C   UNL     1      -0.940   4.042   9.323  0.00  0.00    +0.040 A 
ATOM     16  C   UNL     1       0.399   3.934   9.699  0.00  0.00    +0.013 A 
ATOM     17  C   UNL     1       0.782   4.265  10.982  0.00  0.00    +0.002 A 
ATOM     18  C   UNL     1      -0.161   4.694  11.900  0.00  0.00    +0.015 A 
ATOM     19  C   UNL     1      -1.492   4.798  11.535  0.00  0.00    +0.019 A 
ATOM     20  C   UNL     1      -1.886   4.475  10.252  0.00  0.00    +0.028 A 
ATOM     21 BR   UNL     1      -2.773   5.384  12.797  0.00  0.00    -0.050 Br
ENDBRANCH  13  15
ENDBRANCH  10  13
BRANCH   1  22
ATOM     22  C   UNL     1       1.396   2.358   4.981  0.00  0.00    +0.152 C 
BRANCH  22  23
ATOM     23  C   UNL     1       2.116   3.663   4.636  0.00  0.00    +0.181 C 
BRANCH  23  24
ATOM     24  O   UNL     1       3.523   3.494   4.822  0.00  0.00    -0.378 OA
BRANCH  24  26
ATOM     25  C   UNL     1       5.776   4.366   4.759  0.00  0.00    +0.034 C 
ATOM     26  C   UNL     1       4.293   4.661   4.526  0.00  0.00    +0.156 C 
ENDBRANCH  24  26
ENDBRANCH  23  24
ENDBRANCH  22  23
ENDBRANCH   1  22
TORSDOF 6
