REMARK  Name = ZINC36043335
REMARK  11 active torsions:
REMARK  status: ('A' for Active; 'I' for Inactive)
REMARK    1  A    between atoms: C_1  and  C_2
REMARK    2  A    between atoms: C_2  and  C_4
REMARK    3  A    between atoms: C_2  and  N_27
REMARK    4  A    between atoms: C_8  and  O_25
REMARK    5  A    between atoms: C_9  and  O_23
REMARK    6  A    between atoms: N_14  and  C_15
REMARK    7  A    between atoms: C_15  and  C_16
REMARK    8  A    between atoms: O_23  and  C_24
REMARK    9  A    between atoms: O_25  and  C_26
REMARK   10  A    between atoms: N_27  and  S_28
REMARK   11  A    between atoms: S_28  and  C_31
REMARK                            x       y       z     vdW  Elec       q    Type
REMARK                         _______ _______ _______ _____ _____    ______ ____
ROOT
ATOM      1  C   UNL     1      -0.947  -1.150  -0.364  0.00  0.00    +0.106 C 
ATOM      2  C   UNL     1      -0.129  -1.436  -1.597  0.00  0.00    -0.022 A 
ATOM      3  C   UNL     1      -0.689  -1.165  -2.837  0.00  0.00    +0.055 A 
ATOM      4  C   UNL     1       0.022  -1.415  -3.996  0.00  0.00    +0.162 A 
ATOM      5  C   UNL     1       1.308  -1.942  -3.917  0.00  0.00    +0.162 A 
ATOM      6  C   UNL     1       1.863  -2.210  -2.679  0.00  0.00    +0.053 A 
ATOM      7  C   UNL     1       1.146  -1.955  -1.518  0.00  0.00    -0.038 A 
ATOM      8  C   UNL     1       1.800  -2.252  -0.193  0.00  0.00    +0.051 C 
ATOM      9  C   UNL     1       0.743  -2.303   0.910  0.00  0.00    +0.090 C 
ATOM     10  N   UNL     1      -0.085  -1.089   0.821  0.00  0.00    -0.289 NA
ENDROOT
BRANCH   1  12
ATOM     11  C   UNL     1      -2.514   0.156  -1.808  0.00  0.00    +0.027 C 
ATOM     12  C   UNL     1      -1.665   0.190  -0.535  0.00  0.00    +0.095 C 
BRANCH  12  13
ATOM     13  N   UNL     1      -0.675   1.265  -0.638  0.00  0.00    -0.185 NA
ATOM     14  H   UNL     1       0.064   1.306  -0.010  0.00  0.00    +0.148 HD
BRANCH  13  15
ATOM     15  S   UNL     1      -0.816   2.410  -1.826  0.00  0.00    +0.059 S 
ATOM     16  O   UNL     1      -0.660   3.673  -1.193  0.00  0.00    -0.153 OA
ATOM     17  O   UNL     1       0.015   1.988  -2.898  0.00  0.00    -0.153 OA
BRANCH  15  18
ATOM     18  C   UNL     1      -2.474   2.345  -2.418  0.00  0.00    +0.105 A 
ATOM     19  C   UNL     1      -2.745   1.786  -3.653  0.00  0.00    +0.030 A 
ATOM     20  C   UNL     1      -4.046   1.735  -4.118  0.00  0.00    +0.022 A 
ATOM     21  C   UNL     1      -5.076   2.243  -3.347  0.00  0.00    +0.041 A 
ATOM     22  C   UNL     1      -4.804   2.802  -2.111  0.00  0.00    +0.022 A 
ATOM     23  C   UNL     1      -3.504   2.848  -1.645  0.00  0.00    +0.030 A 
ATOM     24 CL   UNL     1      -6.710   2.179  -3.931  0.00  0.00    -0.084 Cl
ENDBRANCH  15  18
ENDBRANCH  13  15
ENDBRANCH  12  13
ENDBRANCH   1  12
BRANCH   5  25
ATOM     25  O   UNL     1       2.014  -2.194  -5.051  0.00  0.00    -0.491 OA
ATOM     26  C   UNL     1       3.327  -2.735  -4.891  0.00  0.00    +0.277 C 
ENDBRANCH   5  25
BRANCH   4  27
ATOM     27  O   UNL     1      -0.533  -1.146  -5.209  0.00  0.00    -0.491 OA
ATOM     28  C   UNL     1      -1.895  -0.716  -5.218  0.00  0.00    +0.277 C 
ENDBRANCH   4  27
BRANCH  10  29
ATOM     29  C   UNL     1      -0.881  -0.904   2.041  0.00  0.00    +0.123 C 
BRANCH  29  30
ATOM     30  C   UNL     1      -0.377  -1.834   3.115  0.00  0.00    +0.002 A 
ATOM     31  C   UNL     1      -1.188  -2.849   3.587  0.00  0.00    +0.008 A 
ATOM     32  C   UNL     1      -0.726  -3.701   4.572  0.00  0.00    +0.000 A 
ATOM     33  C   UNL     1       0.548  -3.540   5.087  0.00  0.00    +0.003 A 
ATOM     34  C   UNL     1       1.360  -2.526   4.616  0.00  0.00    +0.038 A 
ATOM     35  C   UNL     1       0.900  -1.674   3.626  0.00  0.00    +0.128 A 
ATOM     36  F   UNL     1       1.695  -0.686   3.161  0.00  0.00    -0.205 F 
ENDBRANCH  29  30
ENDBRANCH  10  29
TORSDOF 8
