REMARK  Name = ZINC06177772
REMARK  7 active torsions:
REMARK  status: ('A' for Active; 'I' for Inactive)
REMARK    1  A    between atoms: C_1  and  C_2
REMARK    2  A    between atoms: C_4  and  C_16
REMARK    3  A    between atoms: C_5  and  C_15
REMARK    4  A    between atoms: N_6  and  C_7
REMARK    5  A    between atoms: N_17  and  N_18
REMARK    6  A    between atoms: C_19  and  C_21
REMARK    7  A    between atoms: C_21  and  N_22
REMARK                            x       y       z     vdW  Elec       q    Type
REMARK                         _______ _______ _______ _____ _____    ______ ____
ROOT
ATOM      1  N   UNL     1      -5.218   2.032   1.731  0.00  0.00    -0.206 N 
ATOM      2  C   UNL     1      -4.100   2.742   1.477  0.00  0.00    +0.252 C 
ATOM      3  O   UNL     1      -3.425   3.158   2.395  0.00  0.00    -0.272 OA
ATOM      4  H   UNL     1      -5.758   1.699   0.997  0.00  0.00    +0.177 HD
ENDROOT
BRANCH   1   6
ATOM      5  C   UNL     1      -6.675   1.092   3.298  0.00  0.00    +0.140 C 
ATOM      6  N   UNL     1      -5.599   1.775   3.054  0.00  0.00    -0.188 NA
BRANCH   5  10
ATOM      7  C   UNL     1      -9.241  -0.582   7.382  0.00  0.00    +0.064 C 
ATOM      8  C   UNL     1      -8.225   0.073   6.482  0.00  0.00    +0.022 A 
ATOM      9  C   UNL     1      -8.254   0.071   5.137  0.00  0.00    +0.032 A 
ATOM     10  C   UNL     1      -7.077   0.822   4.691  0.00  0.00    +0.016 A 
ATOM     11  C   UNL     1      -6.422   1.216   5.823  0.00  0.00    +0.030 A 
ATOM     12  N   UNL     1      -7.123   0.765   6.899  0.00  0.00    -0.317 N 
ATOM     13  C   UNL     1      -5.146   2.015   5.873  0.00  0.00    +0.064 C 
BRANCH  12  14
ATOM     14  C   UNL     1      -6.765   0.975   8.237  0.00  0.00    +0.048 A 
ATOM     15  C   UNL     1      -6.414  -0.102   9.041  0.00  0.00    +0.027 A 
ATOM     16  C   UNL     1      -6.061   0.108  10.360  0.00  0.00    +0.023 A 
ATOM     17  C   UNL     1      -6.056   1.389  10.881  0.00  0.00    +0.059 A 
ATOM     18  C   UNL     1      -6.406   2.465  10.082  0.00  0.00    +0.061 A 
ATOM     19  C   UNL     1      -6.754   2.261   8.760  0.00  0.00    +0.047 A 
ATOM     20 CL   UNL     1      -6.399   4.072  10.740  0.00  0.00    -0.082 Cl
ATOM     21 CL   UNL     1      -5.613   1.649  12.539  0.00  0.00    -0.082 Cl
ENDBRANCH  12  14
ENDBRANCH   5  10
ENDBRANCH   1   6
BRANCH   2  22
ATOM     22  C   UNL     1      -3.690   3.018   0.054  0.00  0.00    +0.219 C 
BRANCH  22  23
ATOM     23  N   UNL     1      -2.452   3.801   0.045  0.00  0.00    -0.331 N 
ATOM     24  C   UNL     1      -1.246   3.134   0.030  0.00  0.00    +0.054 A 
ATOM     25  C   UNL     1      -1.219   1.741   0.017  0.00  0.00    +0.026 A 
ATOM     26  C   UNL     1      -0.013   1.076   0.008  0.00  0.00    +0.002 A 
ATOM     27  C   UNL     1       1.184   1.779   0.000  0.00  0.00    +0.001 A 
ATOM     28  C   UNL     1       1.182   3.150   0.007  0.00  0.00    +0.014 A 
ATOM     29  C   UNL     1      -0.032   3.841   0.022  0.00  0.00    +0.046 A 
ATOM     30  C   UNL     1      -0.059   5.315   0.029  0.00  0.00    +0.197 A 
ATOM     31  O   UNL     1       0.970   5.966   0.023  0.00  0.00    -0.287 OA
ATOM     32  C   UNL     1      -1.379   5.971   0.046  0.00  0.00    +0.046 A 
ATOM     33  C   UNL     1      -2.538   5.177   0.053  0.00  0.00    +0.054 A 
ATOM     34  C   UNL     1      -3.785   5.798   0.069  0.00  0.00    +0.026 A 
ATOM     35  C   UNL     1      -3.869   7.173   0.078  0.00  0.00    +0.002 A 
ATOM     36  C   UNL     1      -2.722   7.953   0.071  0.00  0.00    +0.001 A 
ATOM     37  C   UNL     1      -1.483   7.363   0.055  0.00  0.00    +0.014 A 
ENDBRANCH  22  23
ENDBRANCH   2  22
TORSDOF 5
