REMARK  Name = ZINC02416158
REMARK  10 active torsions:
REMARK  status: ('A' for Active; 'I' for Inactive)
REMARK    1  A    between atoms: C_1  and  O_2
REMARK    2  A    between atoms: O_2  and  C_3
REMARK    3  A    between atoms: C_6  and  C_11
REMARK    4  A    between atoms: C_7  and  O_9
REMARK    5  A    between atoms: O_9  and  C_10
REMARK    6  A    between atoms: C_28  and  C_30
REMARK    7  A    between atoms: C_33  and  O_38
REMARK    8  A    between atoms: C_34  and  O_36
REMARK    9  A    between atoms: O_36  and  C_37
REMARK   10  A    between atoms: O_38  and  C_39
REMARK                            x       y       z     vdW  Elec       q    Type
REMARK                         _______ _______ _______ _____ _____    ______ ____
ROOT
ATOM      1  C   UNL     1      -4.989  -2.621   0.037  0.00  0.00    +0.238 C 
ATOM      2  C   UNL     1      -5.436  -2.858  -1.376  0.00  0.00    +0.028 C 
ATOM      3  C   UNL     1      -6.178  -1.937  -2.026  0.00  0.00    +0.083 C 
ATOM      4  C   UNL     1      -6.537  -0.701  -1.288  0.00  0.00    +0.042 A 
ATOM      5  C   UNL     1      -7.004   0.429  -1.946  0.00  0.00    +0.013 A 
ATOM      6  C   UNL     1      -7.325   1.559  -1.218  0.00  0.00    +0.001 A 
ATOM      7  C   UNL     1      -7.180   1.566   0.159  0.00  0.00    +0.004 A 
ATOM      8  C   UNL     1      -6.716   0.445   0.822  0.00  0.00    +0.046 A 
ATOM      9  C   UNL     1      -6.392  -0.695   0.106  0.00  0.00    +0.131 A 
ATOM     10  O   UNL     1      -5.942  -1.810   0.728  0.00  0.00    -0.479 OA
ATOM     11  N   UNL     1      -6.582  -2.134  -3.305  0.00  0.00    -0.216 NA
ATOM     12  C   UNL     1      -6.307  -3.210  -4.008  0.00  0.00    +0.209 C 
ATOM     13  N   UNL     1      -6.630  -3.574  -5.290  0.00  0.00    -0.275 N 
ATOM     14  C   UNL     1      -6.091  -4.814  -5.532  0.00  0.00    +0.208 C 
ATOM     15  N   UNL     1      -5.461  -5.220  -4.477  0.00  0.00    -0.169 NA
ATOM     16  N   UNL     1      -5.571  -4.237  -3.493  0.00  0.00    -0.182 N 
ATOM     17  C   UNL     1      -5.074  -4.127  -2.113  0.00  0.00    +0.163 C 
ATOM     18  H   UNL     1      -7.151  -3.047  -5.916  0.00  0.00    +0.156 HD
ENDROOT
BRANCH   1  22
ATOM     19  C   UNL     1      -1.200  -0.638   0.010  0.00  0.00    +0.124 A 
ATOM     20  C   UNL     1      -2.370   0.095   0.160  0.00  0.00    +0.046 A 
ATOM     21  C   UNL     1      -3.592  -0.549   0.168  0.00  0.00    +0.015 A 
ATOM     22  C   UNL     1      -3.654  -1.922   0.027  0.00  0.00    +0.039 A 
ATOM     23  C   UNL     1      -2.488  -2.658  -0.123  0.00  0.00    +0.131 A 
ATOM     24  C   UNL     1      -1.260  -2.015  -0.137  0.00  0.00    +0.091 A 
BRANCH  19  26
ATOM     25  C   UNL     1      -0.012   1.416   0.159  0.00  0.00    +0.277 C 
ATOM     26  O   UNL     1       0.002  -0.004   0.003  0.00  0.00    -0.495 OA
ENDBRANCH  19  26
BRANCH  23  27
ATOM     27  O   UNL     1      -2.549  -4.009  -0.261  0.00  0.00    -0.495 OA
ATOM     28  C   UNL     1      -1.309  -4.703  -0.411  0.00  0.00    +0.277 C 
ENDBRANCH  23  27
ENDBRANCH   1  22
BRANCH  17  29
ATOM     29  C   UNL     1      -5.607  -5.297  -1.327  0.00  0.00    -0.017 A 
ATOM     30  C   UNL     1      -6.941  -5.645  -1.429  0.00  0.00    +0.009 A 
ATOM     31  C   UNL     1      -7.436  -6.717  -0.710  0.00  0.00    +0.050 A 
ATOM     32  C   UNL     1      -6.594  -7.445   0.116  0.00  0.00    +0.162 A 
ATOM     33  C   UNL     1      -5.251  -7.095   0.218  0.00  0.00    +0.162 A 
ATOM     34  C   UNL     1      -4.761  -6.022  -0.509  0.00  0.00    +0.055 A 
BRANCH  33  35
ATOM     35  O   UNL     1      -4.421  -7.806   1.027  0.00  0.00    -0.491 OA
ATOM     36  C   UNL     1      -3.055  -7.389   1.083  0.00  0.00    +0.277 C 
ENDBRANCH  33  35
BRANCH  32  37
ATOM     37  O   UNL     1      -7.079  -8.499   0.825  0.00  0.00    -0.491 OA
ATOM     38  C   UNL     1      -8.467  -8.801   0.671  0.00  0.00    +0.277 C 
ENDBRANCH  32  37
ENDBRANCH  17  29
TORSDOF 6
