REMARK  Name = ZINC16225937
REMARK  8 active torsions:
REMARK  status: ('A' for Active; 'I' for Inactive)
REMARK    1  A    between atoms: C_4  and  O_25
REMARK    2  A    between atoms: C_5  and  C_7
REMARK    3  A    between atoms: C_10  and  O_24
REMARK    4  A    between atoms: C_11  and  O_23
REMARK    5  A    between atoms: C_19  and  O_22
REMARK    6  A    between atoms: O_25  and  C_26
REMARK    7  A    between atoms: C_26  and  C_27
REMARK    8  A    between atoms: C_30  and  N_33
REMARK                            x       y       z     vdW  Elec       q    Type
REMARK                         _______ _______ _______ _____ _____    ______ ____
ROOT
ATOM      1  C   UNL     1      -2.599   2.811   4.024  0.00  0.00    +0.007 A 
ATOM      2  C   UNL     1      -1.579   3.676   4.625  0.00  0.00    +0.029 A 
ATOM      3  C   UNL     1      -1.320   4.950   4.103  0.00  0.00    +0.061 A 
ATOM      4  C   UNL     1      -0.364   5.739   4.680  0.00  0.00    +0.159 A 
ATOM      5  C   UNL     1       0.355   5.278   5.789  0.00  0.00    +0.162 A 
ATOM      6  C   UNL     1       0.101   4.026   6.322  0.00  0.00    +0.096 A 
ATOM      7  C   UNL     1      -0.862   3.209   5.745  0.00  0.00    +0.140 A 
ATOM      8  O   UNL     1      -1.103   1.982   6.248  0.00  0.00    -0.455 OA
ATOM      9  C   UNL     1      -2.028   1.152   5.722  0.00  0.00    +0.140 A 
ATOM     10  C   UNL     1      -2.228  -0.095   6.285  0.00  0.00    +0.101 A 
ATOM     11  C   UNL     1      -3.184  -0.960   5.746  0.00  0.00    +0.224 A 
ATOM     12  O   UNL     1      -3.360  -2.065   6.247  0.00  0.00    -0.284 OA
ATOM     13  C   UNL     1      -3.951  -0.566   4.625  0.00  0.00    +0.164 A 
ATOM     14  C   UNL     1      -3.762   0.658   4.065  0.00  0.00    +0.061 A 
ATOM     15  C   UNL     1      -2.800   1.537   4.601  0.00  0.00    +0.029 A 
ENDROOT
BRANCH   1  20
ATOM     16  C   UNL     1      -5.316   4.338   1.939  0.00  0.00    +0.001 A 
ATOM     17  C   UNL     1      -4.852   4.082   0.658  0.00  0.00    +0.004 A 
ATOM     18  C   UNL     1      -3.656   3.419   0.466  0.00  0.00    +0.046 A 
ATOM     19  C   UNL     1      -2.914   2.995   1.557  0.00  0.00    +0.129 A 
ATOM     20  C   UNL     1      -3.380   3.251   2.857  0.00  0.00    +0.025 A 
ATOM     21  C   UNL     1      -4.591   3.929   3.035  0.00  0.00    +0.012 A 
BRANCH  19  22
ATOM     22  O   UNL     1      -1.741   2.339   1.370  0.00  0.00    -0.487 OA
BRANCH  22  23
ATOM     23  C   UNL     1      -1.332   2.114   0.020  0.00  0.00    +0.264 C 
BRANCH  23  24
ATOM     24  C   UNL     1      -0.017   1.378   0.010  0.00  0.00    -0.010 A 
ATOM     25  C   UNL     1       1.171   2.086   0.002  0.00  0.00    +0.009 A 
ATOM     26  C   UNL     1       2.377   1.411  -0.015  0.00  0.00    +0.033 A 
ATOM     27  C   UNL     1       2.396   0.029  -0.022  0.00  0.00    +0.126 A 
ATOM     28  C   UNL     1       1.208  -0.679  -0.013  0.00  0.00    +0.033 A 
ATOM     29  C   UNL     1       0.002  -0.004   0.002  0.00  0.00    +0.009 A 
BRANCH  27  30
ATOM     30  N   UNL     1       3.688  -0.694  -0.038  0.00  0.00    +0.056 N 
ATOM     31  O   UNL     1       3.704  -1.912  -0.044  0.00  0.00    -0.126 OA
ATOM     32  O   UNL     1       4.734  -0.071  -0.045  0.00  0.00    -0.126 OA
ENDBRANCH  27  30
ENDBRANCH  23  24
ENDBRANCH  22  23
ENDBRANCH  19  22
ENDBRANCH   1  20
BRANCH  13  33
ATOM     33  O   UNL     1      -4.880  -1.414   4.106  0.00  0.00    -0.503 OA
ATOM     34  H   UNL     1      -4.536  -2.000   3.418  0.00  0.00    +0.292 HD
ENDBRANCH  13  33
BRANCH   5  35
ATOM     35  O   UNL     1       1.302   6.070   6.353  0.00  0.00    -0.503 OA
ATOM     36  H   UNL     1       0.967   6.644   7.055  0.00  0.00    +0.292 HD
ENDBRANCH   5  35
BRANCH   4  37
ATOM     37  O   UNL     1      -0.111   6.976   4.175  0.00  0.00    -0.503 OA
ATOM     38  H   UNL     1      -0.647   7.678   4.567  0.00  0.00    +0.292 HD
ENDBRANCH   4  37
TORSDOF 8
