REMARK  Name = ZINC44870253
REMARK  7 active torsions:
REMARK  status: ('A' for Active; 'I' for Inactive)
REMARK    1  A    between atoms: C_1  and  C_2
REMARK    2  A    between atoms: C_2  and  C_3
REMARK    3  A    between atoms: C_3  and  C_5
REMARK    4  A    between atoms: C_3  and  C_9
REMARK    5  A    between atoms: N_6  and  O_7
REMARK    6  A    between atoms: N_11  and  C_12
REMARK    7  A    between atoms: C_17  and  C_18
REMARK                            x       y       z     vdW  Elec       q    Type
REMARK                         _______ _______ _______ _____ _____    ______ ____
ROOT
ATOM      1  C   UNL     1       0.632  -2.000  -1.331  0.00  0.00    +0.228 C 
ATOM      2  O   UNL     1       1.645  -2.666  -1.334  0.00  0.00    -0.275 OA
ATOM      3  N   UNL     1      -0.572  -2.604  -1.380  0.00  0.00    -0.285 N 
ATOM      4  H   UNL     1      -1.383  -2.078  -1.297  0.00  0.00    +0.155 HD
ENDROOT
BRANCH   3   5
ATOM      5  C   UNL     1      -0.652  -3.991  -1.551  0.00  0.00    +0.037 A 
ATOM      6  C   UNL     1       0.386  -4.677  -2.168  0.00  0.00    +0.038 A 
ATOM      7  C   UNL     1       0.303  -6.046  -2.335  0.00  0.00    +0.020 A 
ATOM      8  C   UNL     1      -0.812  -6.733  -1.888  0.00  0.00    +0.015 A 
ATOM      9  C   UNL     1      -1.847  -6.052  -1.274  0.00  0.00    +0.006 A 
ATOM     10  C   UNL     1      -1.767  -4.684  -1.099  0.00  0.00    -0.029 A 
ATOM     11  C   UNL     1      -2.893  -3.944  -0.424  0.00  0.00    +0.045 C 
ATOM     12 BR   UNL     1       1.716  -6.982  -3.175  0.00  0.00    -0.050 Br
ENDBRANCH   3   5
BRANCH   1  13
ATOM     13  C   UNL     1       0.718  -0.497  -1.272  0.00  0.00    +0.141 C 
BRANCH  13  14
ATOM     14  C   UNL     1       2.165  -0.078  -1.224  0.00  0.00    +0.144 C 
ATOM     15  N   UNL     1       2.734   0.153  -0.088  0.00  0.00    -0.076 NA
ATOM     16  N   UNL     1       2.881   0.058  -2.393  0.00  0.00    -0.343 N 
ATOM     17  H   UNL     1       2.454  -0.115  -3.247  0.00  0.00    +0.144 HD
ATOM     18  H   UNL     1       3.812   0.328  -2.363  0.00  0.00    +0.144 HD
BRANCH  15  19
ATOM     19  O   UNL     1       4.093   0.546  -0.043  0.00  0.00    -0.408 OA
ATOM     20  H   UNL     1       4.431   0.696   0.851  0.00  0.00    +0.328 HD
ENDBRANCH  15  19
ENDBRANCH  13  14
BRANCH  13  22
ATOM     21  C   UNL     1      -0.020   1.537  -0.022  0.00  0.00    +0.005 C 
ATOM     22  C   UNL     1       0.000   0.007  -0.018  0.00  0.00    +0.017 C 
ENDBRANCH  13  22
ENDBRANCH   1  13
TORSDOF 5
