REMARK  Name = ZINC22240714
REMARK  5 active torsions:
REMARK  status: ('A' for Active; 'I' for Inactive)
REMARK    1  A    between atoms: C_11  and  C_33
REMARK    2  A    between atoms: C_14  and  C_16
REMARK    3  A    between atoms: C_16  and  N_17
REMARK    4  A    between atoms: N_20  and  C_23
REMARK    5  A    between atoms: C_23  and  C_24
REMARK                            x       y       z     vdW  Elec       q    Type
REMARK                         _______ _______ _______ _____ _____    ______ ____
ROOT
ATOM      1  C   UNL     1       2.414   8.143   0.836  0.00  0.00    +0.002 A 
ATOM      2  C   UNL     1       1.217   7.528   1.155  0.00  0.00    +0.002 A 
ATOM      3  C   UNL     1       0.684   6.563   0.320  0.00  0.00    +0.025 A 
ATOM      4  C   UNL     1       1.353   6.209  -0.840  0.00  0.00    +0.058 A 
ATOM      5  C   UNL     1       2.578   6.809  -1.156  0.00  0.00    +0.055 A 
ATOM      6  C   UNL     1       3.104   7.783  -0.325  0.00  0.00    +0.025 A 
ATOM      7  N   UNL     1       3.256   6.407  -2.313  0.00  0.00    -0.284 N 
ATOM      8  C   UNL     1       2.609   6.327  -3.497  0.00  0.00    +0.219 C 
ATOM      9  O   UNL     1       3.191   5.903  -4.473  0.00  0.00    -0.275 OA
ATOM     10  C   UNL     1       1.172   6.761  -3.613  0.00  0.00    +0.128 C 
ATOM     11  C   UNL     1       0.253   5.710  -2.987  0.00  0.00    +0.194 C 
ATOM     12  N   UNL     1       0.812   5.257  -1.714  0.00  0.00    -0.259 N 
ATOM     13  C   UNL     1       0.802   3.950  -1.385  0.00  0.00    +0.204 C 
ATOM     14  O   UNL     1       0.326   3.136  -2.147  0.00  0.00    -0.277 OA
ATOM     15  H   UNL     1       4.325   6.151  -2.263  0.00  0.00    +0.155 HD
ENDROOT
BRANCH  11  16
ATOM     16  C   UNL     1      -1.129   6.322  -2.747  0.00  0.00    +0.409 C 
ATOM     17  F   UNL     1      -1.012   7.409  -1.875  0.00  0.00    -0.169 F 
ATOM     18  F   UNL     1      -1.665   6.755  -3.964  0.00  0.00    -0.169 F 
ATOM     19  F   UNL     1      -1.973   5.359  -2.182  0.00  0.00    -0.169 F 
ENDBRANCH  11  16
BRANCH  13  20
ATOM     20  C   UNL     1       1.383   3.500  -0.069  0.00  0.00    +0.019 C 
BRANCH  20  21
ATOM     21  N   UNL     1       1.122   2.066   0.117  0.00  0.00    +0.387 N 
ATOM     22  C   UNL     1      -0.317   1.808   0.270  0.00  0.00    -0.063 C 
ATOM     23  C   UNL     1      -0.553   0.300   0.381  0.00  0.00    +0.066 C 
ATOM     24  N   UNL     1       0.199  -0.228   1.528  0.00  0.00    -0.302 NA
ATOM     25  C   UNL     1       1.637   0.030   1.375  0.00  0.00    +0.066 C 
ATOM     26  C   UNL     1       1.874   1.538   1.264  0.00  0.00    -0.063 C 
ATOM     27  H   UNL     1       1.467   1.541  -0.786  0.00  0.00    -0.081 HD
BRANCH  24  28
ATOM     28  C   UNL     1      -0.062  -1.662   1.714  0.00  0.00    +0.119 C 
BRANCH  28  29
ATOM     29  C   UNL     1       0.900  -2.220   2.730  0.00  0.00    -0.030 A 
ATOM     30  C   UNL     1       0.563  -2.221   4.071  0.00  0.00    +0.009 A 
ATOM     31  C   UNL     1       1.442  -2.732   5.007  0.00  0.00    +0.050 A 
ATOM     32  C   UNL     1       2.664  -3.245   4.603  0.00  0.00    +0.166 A 
ATOM     33  C   UNL     1       3.003  -3.245   3.252  0.00  0.00    +0.167 A 
ATOM     34  C   UNL     1       2.115  -2.736   2.319  0.00  0.00    +0.054 A 
ATOM     35  O   UNL     1       4.244  -3.798   3.114  0.00  0.00    -0.453 OA
ATOM     36  C   UNL     1       4.488  -4.508   4.342  0.00  0.00    +0.466 C 
ATOM     37  O   UNL     1       3.692  -3.799   5.311  0.00  0.00    -0.453 OA
ENDBRANCH  28  29
ENDBRANCH  24  28
ENDBRANCH  20  21
ENDBRANCH  13  20
TORSDOF 5
