REMARK  Name = ZINC39711532
REMARK  11 active torsions:
REMARK  status: ('A' for Active; 'I' for Inactive)
REMARK    1  A    between atoms: C_1  and  C_2
REMARK    2  A    between atoms: C_2  and  O_3
REMARK    3  A    between atoms: O_3  and  C_4
REMARK    4  A    between atoms: C_11  and  C_16
REMARK    5  A    between atoms: C_16  and  C_18
REMARK    6  A    between atoms: C_16  and  N_29
REMARK    7  A    between atoms: N_23  and  C_24
REMARK    8  A    between atoms: N_29  and  C_30
REMARK    9  A    between atoms: N_29  and  C_37
REMARK   10  A    between atoms: C_30  and  C_31
REMARK   11  A    between atoms: C_37  and  C_38
REMARK                            x       y       z     vdW  Elec       q    Type
REMARK                         _______ _______ _______ _____ _____    ______ ____
ROOT
ATOM      1  C   UNL     1       1.569  -6.268   4.830  0.00  0.00    -0.008 C 
ENDROOT
BRANCH   1   9
ATOM      2  C   UNL     1       1.038  -2.056   0.822  0.00  0.00    +0.121 A 
ATOM      3  C   UNL     1       0.565  -2.962  -0.135  0.00  0.00    +0.047 A 
ATOM      4  C   UNL     1       0.634  -4.307   0.035  0.00  0.00    +0.027 A 
ATOM      5  C   UNL     1       1.196  -4.854   1.204  0.00  0.00    +0.041 A 
ATOM      6  N   UNL     1       1.258  -6.176   1.357  0.00  0.00    -0.285 N 
ATOM      7  C   UNL     1       1.773  -6.756   2.428  0.00  0.00    +0.223 C 
ATOM      8  O   UNL     1       1.802  -7.970   2.511  0.00  0.00    -0.275 OA
ATOM      9  C   UNL     1       2.325  -5.905   3.550  0.00  0.00    +0.088 C 
ATOM     10  C   UNL     1       2.257  -4.400   3.381  0.00  0.00    -0.006 C 
ATOM     11  C   UNL     1       1.703  -3.925   2.229  0.00  0.00    -0.004 A 
ATOM     12  C   UNL     1       1.604  -2.486   1.984  0.00  0.00    +0.055 A 
ATOM     13  H   UNL     1       0.909  -6.740   0.649  0.00  0.00    +0.155 HD
BRANCH   2  14
ATOM     14  O   UNL     1       0.935  -0.721   0.584  0.00  0.00    -0.492 OA
BRANCH  14  16
ATOM     15  C   UNL     1       0.305   1.200  -0.739  0.00  0.00    +0.048 C 
ATOM     16  C   UNL     1       0.333  -0.327  -0.650  0.00  0.00    +0.225 C 
ENDBRANCH  14  16
ENDBRANCH   2  14
ENDBRANCH   1   9
BRANCH   1  17
ATOM     17  C   UNL     1       0.075  -6.002   4.632  0.00  0.00    +0.205 C 
ATOM     18  N   UNL     1      -0.432  -6.755   3.477  0.00  0.00    -0.152 NA
ATOM     19  N   UNL     1      -0.861  -5.958   2.639  0.00  0.00    -0.070 NA
ATOM     20  N   UNL     1      -0.734  -4.629   3.039  0.00  0.00    -0.179 N 
ATOM     21  N   UNL     1      -0.155  -4.584   4.284  0.00  0.00    -0.185 NA
ATOM     22  H   UNL     1      -1.012  -3.857   2.521  0.00  0.00    +0.191 HD
BRANCH  21  23
ATOM     23  C   UNL     1      -1.045  -3.940   5.258  0.00  0.00    +0.080 C 
ATOM     24  C   UNL     1      -2.432  -4.617   5.236  0.00  0.00    +0.021 C 
ATOM     25  C   UNL     1      -3.428  -3.449   5.446  0.00  0.00    +0.002 C 
ATOM     26  C   UNL     1      -2.784  -2.300   4.632  0.00  0.00    +0.002 C 
ATOM     27  C   UNL     1      -1.269  -2.467   4.875  0.00  0.00    +0.021 C 
ENDBRANCH  21  23
ENDBRANCH   1  17
BRANCH   1  28
ATOM     28  N   UNL     1       1.777  -7.690   5.135  0.00  0.00    +0.392 N 
ATOM     29  H   UNL     1       1.383  -8.253   4.396  0.00  0.00    -0.080 HD
BRANCH  28  30
ATOM     30  C   UNL     1       1.118  -8.019   6.406  0.00  0.00    -0.040 C 
BRANCH  30  31
ATOM     31  C   UNL     1       1.629  -7.104   7.489  0.00  0.00    -0.046 A 
ATOM     32  C   UNL     1       2.782  -7.422   8.191  0.00  0.00    +0.005 A 
ATOM     33  C   UNL     1       3.215  -6.551   9.178  0.00  0.00    +0.020 A 
ATOM     34  C   UNL     1       2.489  -5.402   9.428  0.00  0.00    +0.111 A 
ATOM     35  N   UNL     1       1.397  -5.131   8.741  0.00  0.00    -0.263 NA
ATOM     36  C   UNL     1       0.959  -5.934   7.790  0.00  0.00    +0.112 A 
ENDBRANCH  30  31
ENDBRANCH  28  30
BRANCH  28  37
ATOM     37  C   UNL     1       3.216  -7.961   5.245  0.00  0.00    -0.002 C 
BRANCH  37  38
ATOM     38  C   UNL     1       3.437  -9.444   5.404  0.00  0.00    +0.089 A 
ATOM     39  C   UNL     1       3.705 -10.310   4.411  0.00  0.00    +0.042 A 
ATOM     40  C   UNL     1       3.837 -11.586   5.005  0.00  0.00    +0.041 A 
ATOM     41  C   UNL     1       3.640 -11.423   6.326  0.00  0.00    +0.195 A 
ATOM     42  O   UNL     1       3.404 -10.122   6.562  0.00  0.00    -0.470 OA
ENDBRANCH  37  38
ENDBRANCH  28  37
ENDBRANCH   1  28
TORSDOF 10
