REMARK  Name = ZINC13500988
REMARK  12 active torsions:
REMARK  status: ('A' for Active; 'I' for Inactive)
REMARK    1  A    between atoms: C_1  and  C_2
REMARK    2  A    between atoms: C_2  and  C_3
REMARK    3  A    between atoms: C_3  and  C_4
REMARK    4  A    between atoms: C_4  and  C_6
REMARK    5  A    between atoms: C_4  and  N_72
REMARK    6  A    between atoms: N_10  and  C_11
REMARK    7  A    between atoms: C_16  and  C_17
REMARK    8  A    between atoms: C_16  and  N_72
REMARK    9  A    between atoms: C_17  and  C_18
REMARK   10  A    between atoms: C_24  and  C_25
REMARK   11  A    between atoms: C_24  and  N_72
REMARK   12  A    between atoms: C_29  and  C_37
REMARK                            x       y       z     vdW  Elec       q    Type
REMARK                         _______ _______ _______ _____ _____    ______ ____
ROOT
ATOM      1  N   UNL     1      -3.296   4.821   1.683  0.00  0.00    +0.389 N 
ATOM      2  H   UNL     1      -2.758   5.342   2.385  0.00  0.00    -0.080 HD
ENDROOT
BRANCH   1   3
ATOM      3  C   UNL     1      -4.469   5.626   1.283  0.00  0.00    +0.003 C 
BRANCH   3   4
ATOM      4  C   UNL     1      -4.093   7.084   1.340  0.00  0.00    +0.138 A 
ATOM      5  N   UNL     1      -3.018   7.635   0.833  0.00  0.00    -0.115 NA
ATOM      6  N   UNL     1      -3.059   8.897   1.089  0.00  0.00    -0.023 NA
ATOM      7  N   UNL     1      -4.133   9.166   1.746  0.00  0.00    -0.044 NA
ATOM      8  N   UNL     1      -4.800   8.074   1.916  0.00  0.00    -0.228 N 
BRANCH   8   9
ATOM      9  C   UNL     1      -6.083   7.938   2.610  0.00  0.00    +0.111 C 
ATOM     10  C   UNL     1      -7.143   8.839   1.943  0.00  0.00    +0.027 C 
ATOM     11  C   UNL     1      -7.992   9.367   3.127  0.00  0.00    +0.002 C 
ATOM     12  C   UNL     1      -6.932   9.596   4.233  0.00  0.00    +0.002 C 
ATOM     13  C   UNL     1      -5.949   8.419   4.066  0.00  0.00    +0.027 C 
ENDBRANCH   8   9
ENDBRANCH   3   4
BRANCH   3  14
ATOM     14  C   UNL     1      -4.904   5.266  -0.139  0.00  0.00    -0.008 C 
BRANCH  14  16
ATOM     15  C   UNL     1      -6.010   3.523  -1.546  0.00  0.00    +0.004 C 
ATOM     16  C   UNL     1      -5.436   3.832  -0.162  0.00  0.00    -0.005 C 
ENDBRANCH  14  16
ENDBRANCH   3  14
ENDBRANCH   1   3
BRANCH   1  17
ATOM     17  C   UNL     1      -3.739   3.540   2.272  0.00  0.00    -0.073 C 
BRANCH  17  18
ATOM     18  C   UNL     1      -4.279   3.807   3.679  0.00  0.00    +0.016 C 
BRANCH  18  19
ATOM     19  C   UNL     1      -4.592   2.496   4.354  0.00  0.00    -0.049 A 
ATOM     20  C   UNL     1      -5.852   1.940   4.233  0.00  0.00    +0.003 A 
ATOM     21  C   UNL     1      -6.137   0.735   4.847  0.00  0.00    +0.000 A 
ATOM     22  C   UNL     1      -5.166   0.092   5.593  0.00  0.00    +0.000 A 
ATOM     23  C   UNL     1      -3.908   0.651   5.718  0.00  0.00    +0.000 A 
ATOM     24  C   UNL     1      -3.621   1.853   5.099  0.00  0.00    +0.003 A 
ENDBRANCH  18  19
ENDBRANCH  17  18
ENDBRANCH   1  17
BRANCH   1  25
ATOM     25  C   UNL     1      -2.434   4.566   0.510  0.00  0.00    -0.037 C 
BRANCH  25  26
ATOM     26  C   UNL     1      -1.090   4.084   0.992  0.00  0.00    +0.001 A 
ATOM     27  C   UNL     1      -0.835   2.755   1.061  0.00  0.00    +0.017 A 
ATOM     28  C   UNL     1       0.484   2.319   1.526  0.00  0.00    -0.001 A 
ATOM     29  C   UNL     1       0.809   0.962   1.612  0.00  0.00    +0.013 A 
ATOM     30  C   UNL     1       2.046   0.588   2.055  0.00  0.00    -0.050 A 
ATOM     31  C   UNL     1       2.983   1.544   2.422  0.00  0.00    +0.005 A 
ATOM     32  C   UNL     1       2.685   2.887   2.345  0.00  0.00    +0.026 A 
ATOM     33  C   UNL     1       1.432   3.292   1.897  0.00  0.00    +0.049 A 
ATOM     34  N   UNL     1       1.106   4.628   1.810  0.00  0.00    -0.322 N 
ATOM     35  H   UNL     1       1.761   5.297   2.066  0.00  0.00    +0.169 HD
ATOM     36  C   UNL     1      -0.105   5.019   1.375  0.00  0.00    +0.251 A 
ATOM     37  O   UNL     1      -0.358   6.209   1.311  0.00  0.00    -0.268 OA
ATOM     38  C   UNL     1       2.396  -0.875   2.148  0.00  0.00    +0.044 C 
ENDBRANCH  25  26
ENDBRANCH   1  25
TORSDOF 10
