REMARK  Name = ZINC08456602
REMARK  5 active torsions:
REMARK  status: ('A' for Active; 'I' for Inactive)
REMARK    1  A    between atoms: C_1  and  C_2
REMARK    2  A    between atoms: C_5  and  N_9
REMARK    3  A    between atoms: C_10  and  C_12
REMARK    4  A    between atoms: C_12  and  S_13
REMARK    5  A    between atoms: S_13  and  C_14
REMARK                            x       y       z     vdW  Elec       q    Type
REMARK                         _______ _______ _______ _____ _____    ______ ____
ROOT
ATOM      1  C   UNL     1      -0.016   1.080   0.008  0.00  0.00    +0.173 C 
ENDROOT
BRANCH   1   3
ATOM      2  N   UNL     1      -0.242   1.246   2.466  0.00  0.00    -0.285 N 
ATOM      3  C   UNL     1      -0.717   1.573   1.248  0.00  0.00    +0.227 C 
ATOM      4  O   UNL     1      -1.709   2.265   1.150  0.00  0.00    -0.275 OA
ATOM      5  H   UNL     1       0.511   0.639   2.546  0.00  0.00    +0.155 HD
BRANCH   2  10
ATOM      6  C   UNL     1      -2.636   3.421   7.128  0.00  0.00    +0.047 C 
ATOM      7  C   UNL     1      -2.001   2.843   5.890  0.00  0.00    -0.015 A 
ATOM      8  C   UNL     1      -0.637   2.621   5.854  0.00  0.00    +0.008 A 
ATOM      9  C   UNL     1      -0.052   2.086   4.723  0.00  0.00    +0.024 A 
ATOM     10  C   UNL     1      -0.833   1.782   3.615  0.00  0.00    +0.036 A 
ATOM     11  C   UNL     1      -2.203   2.006   3.652  0.00  0.00    +0.062 A 
ATOM     12  C   UNL     1      -2.784   2.536   4.790  0.00  0.00    +0.128 A 
ATOM     13  F   UNL     1      -4.117   2.754   4.828  0.00  0.00    -0.205 F 
ENDBRANCH   2  10
ENDBRANCH   1   3
BRANCH   1  14
ATOM     14  S   UNL     1      -0.889   1.683  -1.458  0.00  0.00    -0.078 S 
BRANCH  14  15
ATOM     15  C   UNL     1       0.115   0.979  -2.723  0.00  0.00    +0.170 A 
ATOM     16  N   UNL     1      -0.205   1.190  -4.033  0.00  0.00    -0.301 N 
ATOM     17  H   UNL     1      -1.009   1.741  -4.259  0.00  0.00    +0.171 HD
ATOM     18  C   UNL     1       0.541   0.672  -5.026  0.00  0.00    +0.260 A 
ATOM     19  O   UNL     1       0.244   0.875  -6.191  0.00  0.00    -0.267 OA
ATOM     20  C   UNL     1       1.683  -0.123  -4.698  0.00  0.00    +0.072 A 
ATOM     21  C   UNL     1       2.627  -0.786  -5.581  0.00  0.00    +0.023 A 
ATOM     22  C   UNL     1       3.638  -1.490  -5.050  0.00  0.00    +0.048 A 
ATOM     23  S   UNL     1       3.390  -1.310  -3.294  0.00  0.00    -0.077 S 
ATOM     24  C   UNL     1       1.935  -0.294  -3.323  0.00  0.00    +0.116 A 
ATOM     25  N   UNL     1       1.161   0.250  -2.392  0.00  0.00    -0.216 NA
ENDBRANCH  14  15
ENDBRANCH   1  14
TORSDOF 4
