REMARK  Name = ZINC45091486
REMARK  4 active torsions:
REMARK  status: ('A' for Active; 'I' for Inactive)
REMARK    1  A    between atoms: C_4  and  C_6
REMARK    2  A    between atoms: C_12  and  C_14
REMARK    3  A    between atoms: C_14  and  C_19
REMARK    4  A    between atoms: N_20  and  O_21
REMARK                            x       y       z     vdW  Elec       q    Type
REMARK                         _______ _______ _______ _____ _____    ______ ____
ROOT
ATOM      1  C   UNL     1       1.144  -1.171  -1.432  0.00  0.00    +0.079 C 
ATOM      2  C   UNL     1       2.638  -1.399  -1.747  0.00  0.00    +0.024 C 
ATOM      3  C   UNL     1       2.673  -2.878  -2.215  0.00  0.00    +0.021 C 
ATOM      4  C   UNL     1       1.595  -3.518  -1.305  0.00  0.00    +0.108 C 
ATOM      5  N   UNL     1       0.541  -2.489  -1.186  0.00  0.00    -0.297 N 
ATOM      6  C   UNL     1      -0.756  -2.718  -0.898  0.00  0.00    +0.229 C 
ATOM      7  O   UNL     1      -1.553  -1.804  -0.922  0.00  0.00    -0.275 OA
ENDROOT
BRANCH   1  11
ATOM      8  C   UNL     1      -0.300   1.805  -0.147  0.00  0.00    +0.000 C 
ATOM      9  C   UNL     1       1.142   2.083   0.344  0.00  0.00    +0.000 C 
ATOM     10  C   UNL     1       1.948   0.922  -0.287  0.00  0.00    +0.005 C 
ATOM     11  C   UNL     1       1.003  -0.293  -0.187  0.00  0.00    +0.010 C 
ATOM     12  C   UNL     1      -0.427   0.269  -0.098  0.00  0.00    +0.005 C 
ENDBRANCH   1  11
BRANCH   6  13
ATOM     13  C   UNL     1      -1.215  -4.109  -0.546  0.00  0.00    +0.105 C 
ATOM     14  C   UNL     1      -0.409  -4.644   0.656  0.00  0.00    +0.024 C 
ATOM     15  C   UNL     1      -1.301  -4.331   1.882  0.00  0.00    +0.001 C 
ATOM     16  C   UNL     1      -2.728  -4.602   1.344  0.00  0.00    +0.001 C 
ATOM     17  C   UNL     1      -2.690  -4.082  -0.108  0.00  0.00    +0.024 C 
BRANCH  13  18
ATOM     18  C   UNL     1      -1.045  -5.024  -1.731  0.00  0.00    +0.147 C 
ATOM     19  N   UNL     1      -1.743  -4.831  -2.801  0.00  0.00    -0.076 NA
ATOM     20  N   UNL     1      -0.146  -6.066  -1.674  0.00  0.00    -0.343 N 
ATOM     21  H   UNL     1       0.358  -6.227  -0.861  0.00  0.00    +0.144 HD
ATOM     22  H   UNL     1      -0.016  -6.637  -2.447  0.00  0.00    +0.144 HD
BRANCH  19  23
ATOM     23  O   UNL     1      -2.589  -3.700  -2.901  0.00  0.00    -0.408 OA
ATOM     24  H   UNL     1      -3.070  -3.641  -3.737  0.00  0.00    +0.328 HD
ENDBRANCH  19  23
ENDBRANCH  13  18
ENDBRANCH   6  13
TORSDOF 4
