REMARK  Name = ZINC63570107
REMARK  7 active torsions:
REMARK  status: ('A' for Active; 'I' for Inactive)
REMARK    1  A    between atoms: C_1  and  S_2
REMARK    2  A    between atoms: S_2  and  C_3
REMARK    3  A    between atoms: C_6  and  C_9
REMARK    4  A    between atoms: C_12  and  C_15
REMARK    5  A    between atoms: C_15  and  C_16
REMARK    6  A    between atoms: C_16  and  C_17
REMARK    7  A    between atoms: C_17  and  N_18
REMARK                            x       y       z     vdW  Elec       q    Type
REMARK                         _______ _______ _______ _____ _____    ______ ____
ROOT
ATOM      1  C   UNL     1       3.256  -3.935  10.240  0.00  0.00    +0.130 C 
ENDROOT
BRANCH   1   2
ATOM      2  N   UNL     1       4.031  -3.860  11.481  0.00  0.00    -0.261 N 
ATOM      3  C   UNL     1       4.905  -4.846  11.776  0.00  0.00    +0.264 A 
ATOM      4  O   UNL     1       5.055  -5.792  11.026  0.00  0.00    -0.267 OA
ATOM      5  C   UNL     1       5.672  -4.749  13.028  0.00  0.00    +0.067 A 
ATOM      6  C   UNL     1       6.592  -5.729  13.401  0.00  0.00    +0.065 A 
ATOM      7  C   UNL     1       7.288  -5.596  14.585  0.00  0.00    +0.167 A 
ATOM      8  C   UNL     1       7.074  -4.485  15.407  0.00  0.00    +0.168 A 
ATOM      9  C   UNL     1       6.162  -3.508  15.041  0.00  0.00    +0.076 A 
ATOM     10  C   UNL     1       5.457  -3.632  13.856  0.00  0.00    +0.059 A 
ATOM     11  N   UNL     1       4.534  -2.674  13.457  0.00  0.00    -0.307 N 
ATOM     12  H   UNL     1       4.374  -1.897  14.016  0.00  0.00    +0.170 HD
ATOM     13  C   UNL     1       3.863  -2.810  12.300  0.00  0.00    +0.330 A 
ATOM     14  O   UNL     1       3.066  -1.947  11.983  0.00  0.00    -0.246 OA
ATOM     15  O   UNL     1       7.879  -4.595  16.503  0.00  0.00    -0.453 OA
ATOM     16  C   UNL     1       8.282  -5.976  16.548  0.00  0.00    +0.466 C 
ATOM     17  O   UNL     1       8.227  -6.396  15.172  0.00  0.00    -0.453 OA
ENDBRANCH   1   2
BRANCH   1  18
ATOM     18  C   UNL     1       4.032  -3.251   9.113  0.00  0.00    +0.027 C 
BRANCH  18  19
ATOM     19  C   UNL     1       3.223  -3.329   7.816  0.00  0.00    +0.069 C 
BRANCH  19  23
ATOM     20  C   UNL     1       2.986  -1.446   5.018  0.00  0.00    +0.168 C 
ATOM     21  N   UNL     1       3.457  -0.585   5.862  0.00  0.00    -0.067 NA
ATOM     22  O   UNL     1       4.106  -1.235   6.938  0.00  0.00    -0.369 OA
ATOM     23  C   UNL     1       3.998  -2.645   6.689  0.00  0.00    +0.292 C 
ATOM     24  N   UNL     1       3.252  -2.741   5.424  0.00  0.00    -0.289 N 
ATOM     25  H   UNL     1       2.998  -3.555   4.963  0.00  0.00    +0.151 HD
BRANCH  20  29
ATOM     26  C   UNL     1       0.877  -0.427   1.472  0.00  0.00    +0.008 A 
ATOM     27  C   UNL     1       1.349   0.577   2.312  0.00  0.00    +0.015 A 
ATOM     28  C   UNL     1       2.032   0.250   3.462  0.00  0.00    +0.012 A 
ATOM     29  C   UNL     1       2.252  -1.091   3.785  0.00  0.00    +0.018 A 
ATOM     30  C   UNL     1       1.777  -2.096   2.940  0.00  0.00    +0.012 A 
ATOM     31  C   UNL     1       1.089  -1.764   1.794  0.00  0.00    +0.015 A 
BRANCH  26  33
ATOM     32  C   UNL     1      -0.022   1.810   0.012  0.00  0.00    +0.090 C 
ATOM     33  S   UNL     1       0.002  -0.004   0.002  0.00  0.00    -0.129 S 
ENDBRANCH  26  33
ENDBRANCH  20  29
ENDBRANCH  19  23
ENDBRANCH  18  19
ENDBRANCH   1  18
TORSDOF 6
