REMARK  Name = ZINC01224425
REMARK  8 active torsions:
REMARK  status: ('A' for Active; 'I' for Inactive)
REMARK    1  A    between atoms: C_1  and  C_2
REMARK    2  A    between atoms: C_5  and  C_8
REMARK    3  A    between atoms: C_11  and  S_13
REMARK    4  A    between atoms: S_13  and  C_14
REMARK    5  A    between atoms: C_14  and  C_16
REMARK    6  A    between atoms: C_14  and  C_17
REMARK    7  A    between atoms: N_19  and  C_20
REMARK    8  A    between atoms: C_23  and  C_26
REMARK                            x       y       z     vdW  Elec       q    Type
REMARK                         _______ _______ _______ _____ _____    ______ ____
ROOT
ATOM      1  S   UNL     1       0.002  -0.006   0.006  0.00  0.00    -0.053 S 
ENDROOT
BRANCH   1   5
ATOM      2  C   UNL     1       2.108  -1.248  -3.006  0.00  0.00    +0.249 A 
ATOM      3  N   UNL     1       2.191   0.053  -3.138  0.00  0.00    -0.106 NA
ATOM      4  N   UNL     1       1.529   0.623  -2.194  0.00  0.00    -0.101 NA
ATOM      5  C   UNL     1       0.996  -0.294  -1.420  0.00  0.00    +0.278 A 
ATOM      6  O   UNL     1       1.353  -1.496  -1.912  0.00  0.00    -0.411 OA
BRANCH   2  11
ATOM      7  C   UNL     1       4.526  -5.183  -6.438  0.00  0.00    +0.044 C 
ATOM      8  C   UNL     1       3.892  -4.152  -5.540  0.00  0.00    -0.050 A 
ATOM      9  C   UNL     1       4.067  -2.806  -5.805  0.00  0.00    +0.004 A 
ATOM     10  C   UNL     1       3.490  -1.857  -4.986  0.00  0.00    +0.013 A 
ATOM     11  C   UNL     1       2.728  -2.258  -3.888  0.00  0.00    +0.039 A 
ATOM     12  C   UNL     1       2.559  -3.619  -3.623  0.00  0.00    +0.013 A 
ATOM     13  C   UNL     1       3.137  -4.557  -4.453  0.00  0.00    +0.004 A 
ENDBRANCH   2  11
ENDBRANCH   1   5
BRANCH   1  14
ATOM     14  C   UNL     1      -0.017   1.804   0.016  0.00  0.00    +0.139 C 
ATOM     15  C   UNL     1      -0.747   2.313  -1.229  0.00  0.00    +0.029 C 
BRANCH  14  16
ATOM     16  C   UNL     1      -0.729   2.292   1.251  0.00  0.00    +0.230 C 
ATOM     17  O   UNL     1      -1.481   1.553   1.849  0.00  0.00    -0.274 OA
ATOM     18  N   UNL     1      -0.530   3.551   1.690  0.00  0.00    -0.285 N 
ATOM     19  H   UNL     1       0.121   4.120   1.251  0.00  0.00    +0.155 HD
BRANCH  18  20
ATOM     20  C   UNL     1      -1.263   4.036   2.779  0.00  0.00    +0.033 A 
ATOM     21  C   UNL     1      -1.647   5.370   2.820  0.00  0.00    +0.023 A 
ATOM     22  C   UNL     1      -2.374   5.845   3.894  0.00  0.00    +0.005 A 
ATOM     23  C   UNL     1      -2.711   4.996   4.932  0.00  0.00    -0.050 A 
ATOM     24  C   UNL     1      -2.326   3.668   4.896  0.00  0.00    +0.005 A 
ATOM     25  C   UNL     1      -1.603   3.186   3.823  0.00  0.00    +0.023 A 
ATOM     26  C   UNL     1      -3.500   5.519   6.104  0.00  0.00    +0.044 C 
ENDBRANCH  18  20
ENDBRANCH  14  16
ENDBRANCH   1  14
TORSDOF 5
