REMARK  Name = ZINC63479685
REMARK  7 active torsions:
REMARK  status: ('A' for Active; 'I' for Inactive)
REMARK    1  A    between atoms: C_1  and  C_2
REMARK    2  A    between atoms: C_2  and  N_3
REMARK    3  A    between atoms: C_16  and  C_18
REMARK    4  A    between atoms: N_24  and  C_27
REMARK    5  A    between atoms: C_28  and  C_35
REMARK    6  A    between atoms: C_30  and  C_34
REMARK    7  A    between atoms: C_32  and  C_33
REMARK                            x       y       z     vdW  Elec       q    Type
REMARK                         _______ _______ _______ _____ _____    ______ ____
ROOT
ATOM      1  C   UNL     1      -0.838  -2.371  -1.107  0.00  0.00    +0.071 A 
ATOM      2  C   UNL     1      -1.831  -1.865  -1.966  0.00  0.00    +0.259 A 
ATOM      3  N   UNL     1      -3.110  -2.258  -1.809  0.00  0.00    -0.274 N 
ATOM      4  H   UNL     1      -3.796  -1.910  -2.399  0.00  0.00    +0.173 HD
ATOM      5  C   UNL     1      -3.442  -3.130  -0.839  0.00  0.00    +0.337 A 
ATOM      6  O   UNL     1      -4.602  -3.473  -0.714  0.00  0.00    -0.246 OA
ATOM      7  N   UNL     1      -2.510  -3.628  -0.006  0.00  0.00    -0.228 N 
ATOM      8  C   UNL     1      -1.194  -3.257  -0.134  0.00  0.00    +0.266 A 
ATOM      9  O   UNL     1      -0.260  -3.763   0.699  0.00  0.00    -0.267 OA
ATOM     10  O   UNL     1      -1.535  -1.075  -2.846  0.00  0.00    -0.267 OA
ENDROOT
BRANCH   1  23
ATOM     11  N   UNL     1       0.690  -0.478  -1.207  0.00  0.00    +0.386 N 
ATOM     12  C   UNL     1       2.079  -0.015  -1.177  0.00  0.00    -0.073 C 
ATOM     13  C   UNL     1       2.784  -0.350  -2.504  0.00  0.00    +0.015 C 
ATOM     14  C   UNL     1       2.528  -1.815  -2.754  0.00  0.00    -0.041 C 
ATOM     15  C   UNL     1       3.327  -2.822  -3.076  0.00  0.00    -0.001 A 
ATOM     16  C   UNL     1       4.750  -2.866  -3.451  0.00  0.00    +0.010 A 
ATOM     17  C   UNL     1       5.267  -4.098  -3.696  0.00  0.00    +0.001 A 
ATOM     18  C   UNL     1       4.522  -5.278  -3.607  0.00  0.00    +0.002 A 
ATOM     19  C   UNL     1       3.206  -5.330  -3.280  0.00  0.00    +0.026 A 
ATOM     20  C   UNL     1       2.547  -4.096  -3.010  0.00  0.00    +0.043 A 
ATOM     21  N   UNL     1       1.304  -3.854  -2.708  0.00  0.00    -0.379 N 
ATOM     22  C   UNL     1       1.127  -2.406  -2.624  0.00  0.00    +0.097 C 
ATOM     23  C   UNL     1       0.599  -1.945  -1.265  0.00  0.00    -0.000 C 
ATOM     24  H   UNL     1       0.614  -4.520  -2.565  0.00  0.00    +0.160 HD
ATOM     25  H   UNL     1       0.233  -0.088  -2.018  0.00  0.00    -0.081 HD
BRANCH  11  27
ATOM     26  C   UNL     1      -0.019   1.526   0.010  0.00  0.00    -0.017 C 
ATOM     27  C   UNL     1       0.002  -0.004   0.002  0.00  0.00    -0.081 C 
ENDBRANCH  11  27
ENDBRANCH   1  23
BRANCH   7  28
ATOM     28  C   UNL     1      -2.884  -4.534   0.995  0.00  0.00    +0.060 A 
ATOM     29  C   UNL     1      -3.264  -4.070   2.247  0.00  0.00    -0.026 A 
ATOM     30  C   UNL     1      -3.632  -4.966   3.232  0.00  0.00    +0.008 A 
ATOM     31  C   UNL     1      -3.622  -6.324   2.972  0.00  0.00    -0.050 A 
ATOM     32  C   UNL     1      -3.244  -6.789   1.726  0.00  0.00    +0.008 A 
ATOM     33  C   UNL     1      -2.881  -5.898   0.735  0.00  0.00    -0.026 A 
ATOM     34  C   UNL     1      -2.477  -6.406  -0.625  0.00  0.00    +0.046 C 
ATOM     35  C   UNL     1      -4.024  -7.299   4.048  0.00  0.00    +0.044 C 
ATOM     36  C   UNL     1      -3.274  -2.590   2.532  0.00  0.00    +0.046 C 
ENDBRANCH   7  28
TORSDOF 3
