REMARK  Name = ZINC12112683
REMARK  2 active torsions:
REMARK  status: ('A' for Active; 'I' for Inactive)
REMARK    1  A    between atoms: C_8  and  O_9
REMARK    2  A    between atoms: C_10  and  N_12
REMARK                            x       y       z     vdW  Elec       q    Type
REMARK                         _______ _______ _______ _____ _____    ______ ____
ROOT
ATOM      1  C   UNL     1      -3.643   5.641  -0.144  0.00  0.00    +0.003 A 
ATOM      2  C   UNL     1      -3.700   6.998  -0.240  0.00  0.00    +0.012 A 
ATOM      3  C   UNL     1      -2.514   7.751  -0.249  0.00  0.00    +0.025 A 
ATOM      4  C   UNL     1      -1.266   7.088  -0.159  0.00  0.00    +0.007 A 
ATOM      5  C   UNL     1      -0.082   7.842  -0.169  0.00  0.00    +0.010 A 
ATOM      6  C   UNL     1      -0.145   9.199  -0.266  0.00  0.00    +0.004 A 
ATOM      7  C   UNL     1      -1.369   9.856  -0.355  0.00  0.00    +0.046 A 
ATOM      8  C   UNL     1      -2.543   9.157  -0.348  0.00  0.00    +0.125 A 
ATOM      9  C   UNL     1      -1.237   5.680  -0.060  0.00  0.00    +0.040 A 
ATOM     10  C   UNL     1      -2.423   4.977  -0.060  0.00  0.00    +0.024 A 
ENDROOT
BRANCH   9  11
ATOM     11  N   UNL     1      -0.019   5.006   0.030  0.00  0.00    -0.298 N 
ATOM     12  C   UNL     1       0.052   3.668  -0.285  0.00  0.00    +0.146 A 
ATOM     13  C   UNL     1       1.244   2.936  -0.065  0.00  0.00    +0.176 A 
ATOM     14  N   UNL     1       1.283   1.667  -0.367  0.00  0.00    -0.177 NA
ATOM     15  N   UNL     1       0.257   1.077  -0.871  0.00  0.00    -0.254 N 
ATOM     16  H   UNL     1       0.313   0.134  -1.091  0.00  0.00    +0.191 HD
ATOM     17  C   UNL     1      -0.893   1.738  -1.095  0.00  0.00    +0.195 A 
ATOM     18  S   UNL     1      -2.234   0.908  -1.760  0.00  0.00    -0.010 S 
ATOM     19  N   UNL     1      -0.997   3.037  -0.801  0.00  0.00    -0.205 NA
ATOM     20  H   UNL     1       0.778   5.480   0.314  0.00  0.00    +0.154 HD
ENDBRANCH   9  11
BRANCH   8  21
ATOM     21  O   UNL     1      -3.729   9.812  -0.436  0.00  0.00    -0.506 OA
ATOM     22  H   UNL     1      -4.041   9.941  -1.342  0.00  0.00    +0.292 HD
ENDBRANCH   8  21
TORSDOF 2
