REMARK  Name = ZINC62947300
REMARK  4 active torsions:
REMARK  status: ('A' for Active; 'I' for Inactive)
REMARK    1  A    between atoms: C_6  and  C_7
REMARK    2  A    between atoms: C_7  and  C_8
REMARK    3  A    between atoms: C_10  and  C_13
REMARK    4  A    between atoms: C_15  and  N_19
REMARK                            x       y       z     vdW  Elec       q    Type
REMARK                         _______ _______ _______ _____ _____    ______ ____
ROOT
ATOM      1  C   UNL     1      -1.738  -1.024  -1.408  0.00  0.00    +0.176 A 
ATOM      2  N   UNL     1      -2.519  -0.215  -2.127  0.00  0.00    -0.191 NA
ATOM      3  C   UNL     1      -2.715  -0.726  -3.322  0.00  0.00    +0.260 A 
ATOM      4  O   UNL     1      -2.051  -1.893  -3.389  0.00  0.00    -0.333 OA
ATOM      5  N   UNL     1      -1.418  -2.061  -2.129  0.00  0.00    -0.061 NA
ENDROOT
BRANCH   3   6
ATOM      6  C   UNL     1      -3.525  -0.124  -4.402  0.00  0.00    +0.059 A 
ATOM      7  C   UNL     1      -3.662  -0.774  -5.634  0.00  0.00    +0.039 A 
ATOM      8  C   UNL     1      -4.434  -0.164  -6.616  0.00  0.00    +0.044 A 
ATOM      9  C   UNL     1      -5.037   1.058  -6.342  0.00  0.00    +0.133 A 
ATOM     10  N   UNL     1      -4.886   1.641  -5.170  0.00  0.00    -0.261 NA
ATOM     11  C   UNL     1      -4.168   1.099  -4.208  0.00  0.00    +0.124 A 
BRANCH   8  12
ATOM     12  N   UNL     1      -4.602  -0.773  -7.863  0.00  0.00    -0.357 N 
ATOM     13  H   UNL     1      -4.178  -1.625  -8.048  0.00  0.00    +0.142 HD
ATOM     14  H   UNL     1      -5.142  -0.342  -8.544  0.00  0.00    +0.142 HD
ENDBRANCH   8  12
ENDBRANCH   3   6
BRANCH   1  15
ATOM     15  C   UNL     1      -1.293  -0.775   0.010  0.00  0.00    +0.114 C 
BRANCH  15  21
ATOM     16  C   UNL     1      -0.017   1.378   0.010  0.00  0.00    +0.007 A 
ATOM     17  C   UNL     1       1.170   2.086   0.002  0.00  0.00    +0.038 A 
ATOM     18  C   UNL     1       2.379   1.410  -0.013  0.00  0.00    +0.123 A 
ATOM     19  C   UNL     1       2.396   0.026  -0.021  0.00  0.00    +0.038 A 
ATOM     20  C   UNL     1       1.208  -0.680  -0.013  0.00  0.00    +0.007 A 
ATOM     21  C   UNL     1       0.002  -0.004   0.002  0.00  0.00    -0.040 A 
ATOM     22  F   UNL     1       3.540   2.101  -0.021  0.00  0.00    -0.205 F 
ENDBRANCH  15  21
ENDBRANCH   1  15
TORSDOF 4
