REMARK  Name = ZINC15009674
REMARK  5 active torsions:
REMARK  status: ('A' for Active; 'I' for Inactive)
REMARK    1  A    between atoms: C_1  and  C_2
REMARK    2  A    between atoms: C_7  and  C_36
REMARK    3  A    between atoms: C_10  and  C_12
REMARK    4  A    between atoms: C_14  and  C_29
REMARK    5  A    between atoms: C_18  and  C_23
REMARK                            x       y       z     vdW  Elec       q    Type
REMARK                         _______ _______ _______ _____ _____    ______ ____
ROOT
ATOM      1  C   UNL     1       2.834  -0.700   0.762  0.00  0.00    +0.166 C 
ATOM      2  C   UNL     1       4.038   0.067   0.192  0.00  0.00    +0.140 C 
ATOM      3  N   UNL     1       4.145   1.394   0.795  0.00  0.00    -0.272 N 
ATOM      4  N   UNL     1       4.345   1.396   2.136  0.00  0.00    -0.221 N 
ATOM      5  C   UNL     1       4.924   2.371   2.909  0.00  0.00    +0.182 A 
ATOM      6  N   UNL     1       4.880   1.954   4.156  0.00  0.00    -0.127 NA
ATOM      7  N   UNL     1       4.324   0.792   4.215  0.00  0.00    -0.121 NA
ATOM      8  C   UNL     1       3.992   0.408   3.017  0.00  0.00    +0.210 A 
ATOM      9  S   UNL     1       3.229  -1.104   2.499  0.00  0.00    -0.069 S 
ATOM     10  H   UNL     1       4.844   1.950   0.325  0.00  0.00    +0.167 HD
ENDROOT
BRANCH   1  18
ATOM     11  C   UNL     1       1.357  -2.504   0.931  0.00  0.00    +0.028 C 
ATOM     12  C   UNL     1       0.142  -1.773   0.356  0.00  0.00    +0.073 C 
ATOM     13  C   UNL     1      -0.193  -2.342  -1.026  0.00  0.00    +0.022 C 
ATOM     14  C   UNL     1      -1.319  -1.516  -1.653  0.00  0.00    +0.004 C 
ATOM     15  C   UNL     1      -0.856  -0.068  -1.827  0.00  0.00    +0.022 C 
ATOM     16  C   UNL     1      -0.528   0.527  -0.453  0.00  0.00    +0.073 C 
ATOM     17  N   UNL     1       0.447  -0.342   0.221  0.00  0.00    -0.295 N 
ATOM     18  C   UNL     1       1.600   0.163   0.702  0.00  0.00    +0.232 C 
ATOM     19  O   UNL     1       1.644   1.312   1.088  0.00  0.00    -0.274 OA
ATOM     20  C   UNL     1       0.063   1.927  -0.629  0.00  0.00    +0.028 C 
ENDBRANCH   1  18
BRANCH   2  21
ATOM     21  C   UNL     1       3.871   0.213  -1.299  0.00  0.00    -0.024 A 
ATOM     22  C   UNL     1       3.047   1.200  -1.808  0.00  0.00    +0.007 A 
ATOM     23  C   UNL     1       2.894   1.334  -3.175  0.00  0.00    +0.020 A 
ATOM     24  C   UNL     1       3.565   0.482  -4.034  0.00  0.00    +0.041 A 
ATOM     25  C   UNL     1       4.389  -0.505  -3.523  0.00  0.00    +0.020 A 
ATOM     26  C   UNL     1       4.546  -0.635  -2.156  0.00  0.00    +0.007 A 
ATOM     27 CL   UNL     1       3.372   0.650  -5.751  0.00  0.00    -0.084 Cl
ENDBRANCH   2  21
BRANCH   5  28
ATOM     28  C   UNL     1       5.491   3.650   2.431  0.00  0.00    +0.021 A 
ATOM     29  C   UNL     1       5.221   4.095   1.136  0.00  0.00    +0.011 A 
ATOM     30  C   UNL     1       5.753   5.289   0.695  0.00  0.00    +0.001 A 
ATOM     31  C   UNL     1       6.553   6.045   1.534  0.00  0.00    +0.000 A 
ATOM     32  C   UNL     1       6.824   5.609   2.819  0.00  0.00    +0.001 A 
ATOM     33  C   UNL     1       6.293   4.420   3.274  0.00  0.00    +0.011 A 
ENDBRANCH   5  28
TORSDOF 3
