REMARK  Name = ZINC39665669
REMARK  12 active torsions:
REMARK  status: ('A' for Active; 'I' for Inactive)
REMARK    1  A    between atoms: C_1  and  C_2
REMARK    2  A    between atoms: C_2  and  C_4
REMARK    3  A    between atoms: C_2  and  O_31
REMARK    4  A    between atoms: C_4  and  N_5
REMARK    5  A    between atoms: C_6  and  C_8
REMARK    6  A    between atoms: C_19  and  C_21
REMARK    7  A    between atoms: C_21  and  C_23
REMARK    8  A    between atoms: C_21  and  O_24
REMARK    9  A    between atoms: O_24  and  C_25
REMARK   10  A    between atoms: O_31  and  C_32
REMARK   11  A    between atoms: C_35  and  O_38
REMARK   12  A    between atoms: O_38  and  C_39
REMARK                            x       y       z     vdW  Elec       q    Type
REMARK                         _______ _______ _______ _____ _____    ______ ____
ROOT
ATOM      1  C   UNL     1       2.296  -3.893  -2.337  0.00  0.00    +0.100 C 
ATOM      2  C   UNL     1       0.974  -4.616  -2.679  0.00  0.00    +0.121 C 
ATOM      3  N   UNL     1       0.984  -4.738  -4.155  0.00  0.00    -0.297 N 
ATOM      4  C   UNL     1       2.393  -5.058  -4.489  0.00  0.00    +0.115 C 
ATOM      5  C   UNL     1       3.226  -4.188  -3.526  0.00  0.00    -0.004 C 
ATOM      6  C   UNL     1       4.458  -4.954  -3.054  0.00  0.00    -0.010 C 
ATOM      7  C   UNL     1       5.396  -5.185  -4.243  0.00  0.00    -0.082 C 
ATOM      8  N   UNL     1       5.788  -3.892  -4.818  0.00  0.00    +0.379 N 
ATOM      9  C   UNL     1       4.607  -3.204  -5.353  0.00  0.00    -0.082 C 
ATOM     10  C   UNL     1       3.637  -2.889  -4.211  0.00  0.00    -0.010 C 
ATOM     11  C   UNL     1      -0.052  -4.592  -5.004  0.00  0.00    +0.256 C 
ATOM     12  O   UNL     1      -1.136  -4.244  -4.584  0.00  0.00    -0.272 OA
ATOM     13  H   UNL     1       6.213  -3.322  -4.102  0.00  0.00    -0.086 HD
ATOM     14  H   UNL     1       6.453  -4.044  -5.561  0.00  0.00    -0.086 HD
ENDROOT
BRANCH   1  16
ATOM     15  N   UNL     1       2.924  -1.652  -1.498  0.00  0.00    -0.312 N 
ATOM     16  C   UNL     1       2.064  -2.409  -2.208  0.00  0.00    +0.218 C 
ATOM     17  O   UNL     1       1.104  -1.896  -2.744  0.00  0.00    -0.275 OA
ATOM     18  H   UNL     1       3.691  -2.062  -1.070  0.00  0.00    +0.149 HD
BRANCH  15  19
ATOM     19  C   UNL     1       2.699  -0.210  -1.373  0.00  0.00    +0.148 C 
BRANCH  19  21
ATOM     20  C   UNL     1       3.509   1.889  -0.287  0.00  0.00    +0.053 C 
ATOM     21  C   UNL     1       3.810   0.408  -0.522  0.00  0.00    +0.187 C 
BRANCH  21  22
ATOM     22  O   UNL     1       5.060   0.278  -1.204  0.00  0.00    -0.488 OA
BRANCH  22  23
ATOM     23  C   UNL     1       6.185   0.298  -0.441  0.00  0.00    +0.121 A 
ATOM     24  C   UNL     1       7.433   0.237  -1.043  0.00  0.00    +0.049 A 
ATOM     25  C   UNL     1       8.575   0.258  -0.268  0.00  0.00    +0.049 A 
ATOM     26  C   UNL     1       8.475   0.341   1.113  0.00  0.00    +0.120 A 
ATOM     27  C   UNL     1       7.227   0.403   1.716  0.00  0.00    +0.049 A 
ATOM     28  C   UNL     1       6.084   0.386   0.940  0.00  0.00    +0.049 A 
BRANCH  26  29
ATOM     29  O   UNL     1       9.600   0.360   1.877  0.00  0.00    -0.495 OA
ATOM     30  C   UNL     1       9.422   0.446   3.292  0.00  0.00    +0.277 C 
ENDBRANCH  26  29
ENDBRANCH  22  23
ENDBRANCH  21  22
ENDBRANCH  19  21
ENDBRANCH  15  19
ENDBRANCH   1  16
BRANCH  11  31
ATOM     31  C   UNL     1       0.134  -4.862  -6.475  0.00  0.00    +0.256 C 
ATOM     32  C   UNL     1       0.394  -6.354  -6.691  0.00  0.00    +0.062 C 
BRANCH  31  33
ATOM     33  O   UNL     1      -1.046  -4.477  -7.183  0.00  0.00    -0.480 OA
BRANCH  33  34
ATOM     34  C   UNL     1      -0.900  -4.152  -8.495  0.00  0.00    +0.122 A 
ATOM     35  C   UNL     1      -1.984  -3.674  -9.217  0.00  0.00    +0.045 A 
ATOM     36  C   UNL     1      -1.833  -3.344 -10.550  0.00  0.00    +0.004 A 
ATOM     37  C   UNL     1      -0.602  -3.490 -11.164  0.00  0.00    +0.000 A 
ATOM     38  C   UNL     1       0.479  -3.966 -10.447  0.00  0.00    +0.004 A 
ATOM     39  C   UNL     1       0.335  -4.292  -9.112  0.00  0.00    +0.045 A 
ENDBRANCH  33  34
ENDBRANCH  31  33
ENDBRANCH  11  31
TORSDOF 9
