REMARK  Name = ZINC05399309
REMARK  10 active torsions:
REMARK  status: ('A' for Active; 'I' for Inactive)
REMARK    1  A    between atoms: C_1  and  C_2
REMARK    2  A    between atoms: N_4  and  C_5
REMARK    3  A    between atoms: C_8  and  C_11
REMARK    4  A    between atoms: C_11  and  C_13
REMARK    5  A    between atoms: C_11  and  O_34
REMARK    6  A    between atoms: C_13  and  C_20
REMARK    7  A    between atoms: N_14  and  N_15
REMARK    8  A    between atoms: C_16  and  O_18
REMARK    9  A    between atoms: O_18  and  C_19
REMARK   10  A    between atoms: C_25  and  N_30
REMARK                            x       y       z     vdW  Elec       q    Type
REMARK                         _______ _______ _______ _____ _____    ______ ____
ROOT
ATOM      1  C   UNL     1      -4.841   1.320   0.704  0.00  0.00    +0.123 C 
ATOM      2  N   UNL     1      -5.896   2.023   0.989  0.00  0.00    -0.177 NA
ENDROOT
BRANCH   1   3
ATOM      3  C   UNL     1      -3.515   1.959   0.681  0.00  0.00    +0.156 A 
ATOM      4  C   UNL     1      -3.403   3.358   0.873  0.00  0.00    +0.298 A 
ATOM      5  N   UNL     1      -2.223   3.940   0.854  0.00  0.00    -0.206 NA
ATOM      6  C   UNL     1      -1.120   3.206   0.652  0.00  0.00    +0.095 A 
ATOM      7  C   UNL     1       0.149   3.805   0.628  0.00  0.00    +0.062 A 
ATOM      8  C   UNL     1       1.256   3.039   0.421  0.00  0.00    +0.128 A 
ATOM      9  C   UNL     1       1.149   1.662   0.233  0.00  0.00    +0.035 A 
ATOM     10  C   UNL     1      -0.065   1.046   0.249  0.00  0.00    +0.032 A 
ATOM     11  C   UNL     1      -1.230   1.806   0.455  0.00  0.00    +0.090 A 
ATOM     12  N   UNL     1      -2.434   1.224   0.480  0.00  0.00    -0.238 NA
ATOM     13  O   UNL     1      -4.517   4.102   1.078  0.00  0.00    -0.263 OA
BRANCH   8  14
ATOM     14  N   UNL     1       2.591   3.677   0.396  0.00  0.00    +0.056 N 
ATOM     15  O   UNL     1       3.586   2.999   0.212  0.00  0.00    -0.126 OA
ATOM     16  O   UNL     1       2.695   4.879   0.560  0.00  0.00    -0.126 OA
ENDBRANCH   8  14
ENDBRANCH   1   3
BRANCH   2  17
ATOM     17  N   UNL     1      -7.143   1.397   1.111  0.00  0.00    -0.172 N 
ATOM     18  C   UNL     1      -8.252   2.137   1.304  0.00  0.00    +0.420 C 
ATOM     19  O   UNL     1      -9.334   1.594   1.410  0.00  0.00    -0.225 OA
ATOM     20  H   UNL     1      -7.217   0.301   1.049  0.00  0.00    +0.181 HD
BRANCH  18  21
ATOM     21  O   UNL     1      -8.162   3.479   1.380  0.00  0.00    -0.453 OA
ATOM     22  C   UNL     1      -9.398   4.212   1.589  0.00  0.00    +0.282 C 
ENDBRANCH  18  21
ENDBRANCH   2  17
BRANCH   1  23
ATOM     23  C   UNL     1      -4.975  -0.149   0.398  0.00  0.00    +0.197 C 
BRANCH  23  27
ATOM     24  C   UNL     1      -5.197  -0.706  -3.834  0.00  0.00    +0.033 A 
ATOM     25  C   UNL     1      -6.360  -0.547  -3.091  0.00  0.00    +0.023 A 
ATOM     26  C   UNL     1      -6.285  -0.368  -1.724  0.00  0.00    +0.008 A 
ATOM     27  C   UNL     1      -5.054  -0.346  -1.094  0.00  0.00    -0.013 A 
ATOM     28  C   UNL     1      -3.894  -0.499  -1.832  0.00  0.00    +0.008 A 
ATOM     29  C   UNL     1      -3.962  -0.684  -3.199  0.00  0.00    +0.023 A 
BRANCH  24  33
ATOM     30  C   UNL     1      -6.377  -0.547  -7.405  0.00  0.00    +0.109 C 
ATOM     31  C   UNL     1      -6.235  -0.272  -5.930  0.00  0.00    +0.214 C 
ATOM     32  O   UNL     1      -6.989   0.504  -5.383  0.00  0.00    -0.276 OA
ATOM     33  N   UNL     1      -5.270  -0.888  -5.219  0.00  0.00    -0.286 N 
ATOM     34  H   UNL     1      -4.539  -1.534  -5.728  0.00  0.00    +0.155 HD
ENDBRANCH  24  33
ENDBRANCH  23  27
BRANCH  23  35
ATOM     35  O   UNL     1      -3.840  -0.848   0.911  0.00  0.00    -0.381 OA
ATOM     36  H   UNL     1      -3.618  -0.821   1.988  0.00  0.00    +0.211 HD
ENDBRANCH  23  35
ENDBRANCH   1  23
TORSDOF 8
