REMARK  Name = ZINC64215592
REMARK  11 active torsions:
REMARK  status: ('A' for Active; 'I' for Inactive)
REMARK    1  A    between atoms: C_1  and  C_2
REMARK    2  A    between atoms: C_2  and  N_3
REMARK    3  A    between atoms: N_3  and  C_4
REMARK    4  A    between atoms: N_3  and  S_6
REMARK    5  A    between atoms: C_4  and  C_5
REMARK    6  A    between atoms: S_6  and  C_9
REMARK    7  A    between atoms: C_13  and  C_15
REMARK    8  A    between atoms: N_17  and  C_18
REMARK    9  A    between atoms: C_18  and  C_19
REMARK   10  A    between atoms: C_19  and  C_21
REMARK   11  A    between atoms: C_19  and  C_27
REMARK                            x       y       z     vdW  Elec       q    Type
REMARK                         _______ _______ _______ _____ _____    ______ ____
ROOT
ATOM      1  C   UNL     1       4.658   2.330   4.494  0.00  0.00    +0.244 C 
ATOM      2  O   UNL     1       4.352   1.558   5.381  0.00  0.00    -0.270 OA
ATOM      3  N   UNL     1       5.343   3.454   4.784  0.00  0.00    -0.310 N 
ATOM      4  H   UNL     1       5.588   4.070   4.076  0.00  0.00    +0.149 HD
ENDROOT
BRANCH   1   9
ATOM      5  C   UNL     1       3.218   0.606   1.484  0.00  0.00    +0.106 A 
ATOM      6  C   UNL     1       3.567   1.487   0.476  0.00  0.00    +0.028 A 
ATOM      7  C   UNL     1       4.270   2.642   0.771  0.00  0.00    +0.003 A 
ATOM      8  C   UNL     1       4.628   2.921   2.074  0.00  0.00    +0.013 A 
ATOM      9  C   UNL     1       4.278   2.037   3.095  0.00  0.00    +0.039 A 
ATOM     10  C   UNL     1       3.564   0.877   2.791  0.00  0.00    +0.041 A 
BRANCH   5  11
ATOM     11  S   UNL     1       2.322  -0.861   1.097  0.00  0.00    +0.061 S 
ATOM     12  O   UNL     1       2.586  -1.786   2.143  0.00  0.00    -0.153 OA
ATOM     13  O   UNL     1       2.594  -1.155  -0.266  0.00  0.00    -0.153 OA
BRANCH  11  14
ATOM     14  N   UNL     1       0.711  -0.489   1.189  0.00  0.00    -0.177 NA
BRANCH  14  16
ATOM     15  C   UNL     1      -0.019   1.526   0.010  0.00  0.00    +0.022 C 
ATOM     16  C   UNL     1       0.002  -0.004   0.002  0.00  0.00    +0.106 C 
ENDBRANCH  14  16
BRANCH  14  17
ATOM     17  C   UNL     1      -0.006  -0.646   2.457  0.00  0.00    +0.106 C 
ATOM     18  C   UNL     1      -0.694  -2.013   2.489  0.00  0.00    +0.022 C 
ENDBRANCH  14  17
ENDBRANCH  11  14
ENDBRANCH   5  11
ENDBRANCH   1   9
BRANCH   3  19
ATOM     19  C   UNL     1       5.720   3.744   6.170  0.00  0.00    +0.117 C 
BRANCH  19  20
ATOM     20  C   UNL     1       6.484   5.069   6.224  0.00  0.00    +0.064 C 
BRANCH  20  21
ATOM     21  C   UNL     1       6.977   5.307   7.628  0.00  0.00    -0.033 C 
ATOM     22  C   UNL     1       8.262   5.457   8.024  0.00  0.00    -0.000 A 
ATOM     23  C   UNL     1       9.536   5.441   7.295  0.00  0.00    +0.010 A 
ATOM     24  C   UNL     1      10.687   5.622   7.981  0.00  0.00    +0.001 A 
ATOM     25  C   UNL     1      10.694   5.824   9.368  0.00  0.00    +0.002 A 
ATOM     26  C   UNL     1       9.564   5.851  10.107  0.00  0.00    +0.026 A 
ATOM     27  C   UNL     1       8.296   5.671   9.488  0.00  0.00    +0.043 A 
ATOM     28  N   UNL     1       7.081   5.655   9.978  0.00  0.00    -0.380 N 
ATOM     29  C   UNL     1       6.136   5.434   8.878  0.00  0.00    +0.145 C 
ATOM     30  H   UNL     1       6.845   5.774  10.912  0.00  0.00    +0.160 HD
ENDBRANCH  20  21
BRANCH  20  31
ATOM     31  C   UNL     1       5.569   6.194   5.815  0.00  0.00    -0.039 A 
ATOM     32  C   UNL     1       4.419   6.447   6.540  0.00  0.00    +0.004 A 
ATOM     33  C   UNL     1       3.579   7.480   6.165  0.00  0.00    +0.000 A 
ATOM     34  C   UNL     1       3.890   8.258   5.066  0.00  0.00    +0.000 A 
ATOM     35  C   UNL     1       5.040   8.005   4.342  0.00  0.00    +0.000 A 
ATOM     36  C   UNL     1       5.882   6.976   4.719  0.00  0.00    +0.004 A 
ENDBRANCH  20  31
ENDBRANCH  19  20
ENDBRANCH   3  19
TORSDOF 9
