REMARK  Name = ZINC27369601
REMARK  9 active torsions:
REMARK  status: ('A' for Active; 'I' for Inactive)
REMARK    1  A    between atoms: C_1  and  C_2
REMARK    2  A    between atoms: C_2  and  C_3
REMARK    3  A    between atoms: C_2  and  C_4
REMARK    4  A    between atoms: C_4  and  C_6
REMARK    5  A    between atoms: C_4  and  N_13
REMARK    6  A    between atoms: N_13  and  C_14
REMARK    7  A    between atoms: C_14  and  C_15
REMARK    8  A    between atoms: C_24  and  S_26
REMARK    9  A    between atoms: S_26  and  N_29
REMARK                            x       y       z     vdW  Elec       q    Type
REMARK                         _______ _______ _______ _____ _____    ______ ____
ROOT
ATOM      1  C   UNL     1       3.032   4.678  -0.136  0.00  0.00    +0.203 C 
ATOM      2  O   UNL     1       2.077   5.421  -0.046  0.00  0.00    -0.277 OA
ATOM      3  N   UNL     1       2.844   3.347  -0.228  0.00  0.00    -0.272 N 
ATOM      4  C   UNL     1       3.915   2.353  -0.340  0.00  0.00    +0.118 C 
ATOM      5  C   UNL     1       3.199   0.995  -0.415  0.00  0.00    +0.056 C 
ATOM      6  C   UNL     1       1.728   1.335  -0.337  0.00  0.00    -0.023 A 
ATOM      7  C   UNL     1       1.599   2.711  -0.231  0.00  0.00    +0.040 A 
ATOM      8  C   UNL     1       0.321   3.267  -0.143  0.00  0.00    +0.026 A 
ATOM      9  C   UNL     1      -0.793   2.456  -0.162  0.00  0.00    +0.030 A 
ATOM     10  C   UNL     1      -0.654   1.085  -0.275  0.00  0.00    +0.105 A 
ATOM     11  C   UNL     1       0.608   0.526  -0.357  0.00  0.00    +0.034 A 
ENDROOT
BRANCH  10  12
ATOM     12  S   UNL     1      -2.081   0.052  -0.308  0.00  0.00    +0.056 S 
ATOM     13  O   UNL     1      -3.156   0.859  -0.766  0.00  0.00    -0.153 OA
ATOM     14  O   UNL     1      -1.697  -1.150  -0.963  0.00  0.00    -0.153 OA
BRANCH  12  15
ATOM     15  N   UNL     1      -2.428  -0.354   1.260  0.00  0.00    -0.204 NA
ATOM     16  H   UNL     1      -3.317  -1.001   1.283  0.00  0.00    +0.144 HD
ATOM     17  H   UNL     1      -2.625   0.560   1.840  0.00  0.00    +0.144 HD
ENDBRANCH  12  15
ENDBRANCH  10  12
BRANCH   1  18
ATOM     18  C   UNL     1       4.428   5.245  -0.144  0.00  0.00    +0.016 C 
BRANCH  18  19
ATOM     19  N   UNL     1       4.364   6.708  -0.033  0.00  0.00    +0.389 N 
ATOM     20  H   UNL     1       3.766   6.968   0.853  0.00  0.00    -0.084 HD
ATOM     21  H   UNL     1       3.877   7.109  -0.934  0.00  0.00    -0.084 HD
BRANCH  19  22
ATOM     22  C   UNL     1       5.708   7.286   0.097  0.00  0.00    -0.038 C 
BRANCH  22  23
ATOM     23  C   UNL     1       5.700   8.699  -0.426  0.00  0.00    -0.061 A 
ATOM     24  C   UNL     1       4.623   9.526  -0.165  0.00  0.00    +0.005 A 
ATOM     25  C   UNL     1       4.616  10.824  -0.639  0.00  0.00    +0.038 A 
ATOM     26  C   UNL     1       5.684  11.293  -1.385  0.00  0.00    +0.123 A 
ATOM     27  C   UNL     1       6.760  10.463  -1.650  0.00  0.00    +0.038 A 
ATOM     28  C   UNL     1       6.767   9.167  -1.170  0.00  0.00    +0.005 A 
ATOM     29  F   UNL     1       5.676  12.560  -1.854  0.00  0.00    -0.205 F 
ENDBRANCH  22  23
BRANCH  22  31
ATOM     30  C   UNL     1       7.525   7.887   1.703  0.00  0.00    +0.006 C 
ATOM     31  C   UNL     1       6.123   7.289   1.569  0.00  0.00    -0.027 C 
ATOM     32  C   UNL     1       5.131   8.129   2.377  0.00  0.00    +0.006 C 
ENDBRANCH  22  31
ENDBRANCH  19  22
ENDBRANCH  18  19
ENDBRANCH   1  18
TORSDOF 7
