REMARK  Name = ZINC33306521
REMARK  9 active torsions:
REMARK  status: ('A' for Active; 'I' for Inactive)
REMARK    1  A    between atoms: C_1  and  C_2
REMARK    2  A    between atoms: C_2  and  C_3
REMARK    3  A    between atoms: N_5  and  C_6
REMARK    4  A    between atoms: C_7  and  C_33
REMARK    5  A    between atoms: C_10  and  C_11
REMARK    6  A    between atoms: C_12  and  C_13
REMARK    7  A    between atoms: C_16  and  S_18
REMARK    8  A    between atoms: S_18  and  N_21
REMARK    9  A    between atoms: N_24  and  C_27
REMARK                            x       y       z     vdW  Elec       q    Type
REMARK                         _______ _______ _______ _____ _____    ______ ____
ROOT
ATOM      1  C   UNL     1      -5.689   4.846   0.541  0.00  0.00    +0.014 A 
ATOM      2  C   UNL     1      -6.928   5.404   0.817  0.00  0.00    +0.017 A 
ATOM      3  C   UNL     1      -7.017   6.772   0.925  0.00  0.00    +0.037 A 
ATOM      4  C   UNL     1      -5.901   7.528   0.747  0.00  0.00    +0.143 A 
ATOM      5  S   UNL     1      -4.652   6.295   0.422  0.00  0.00    -0.069 S 
ENDROOT
BRANCH   4   6
ATOM      6  S   UNL     1      -5.731   9.280   0.819  0.00  0.00    +0.067 S 
ATOM      7  O   UNL     1      -4.585   9.609   0.046  0.00  0.00    -0.152 OA
ATOM      8  O   UNL     1      -7.015   9.825   0.547  0.00  0.00    -0.152 OA
BRANCH   6   9
ATOM      9  N   UNL     1      -5.373   9.673   2.388  0.00  0.00    -0.180 NA
ATOM     10  C   UNL     1      -6.441   9.968   3.355  0.00  0.00    +0.091 C 
ATOM     11  C   UNL     1      -6.209   9.107   4.607  0.00  0.00    -0.061 C 
ATOM     12  N   UNL     1      -4.844   9.331   5.102  0.00  0.00    +0.383 N 
ATOM     13  C   UNL     1      -3.842   8.897   4.119  0.00  0.00    -0.061 C 
ATOM     14  C   UNL     1      -3.978   9.743   2.849  0.00  0.00    +0.091 C 
ATOM     15  H   UNL     1      -4.717  10.413   5.254  0.00  0.00    -0.081 HD
BRANCH  12  16
ATOM     16  C   UNL     1      -4.637   8.664   6.394  0.00  0.00    -0.068 C 
ATOM     17  C   UNL     1      -4.876   7.161   6.237  0.00  0.00    -0.015 C 
ATOM     18  C   UNL     1      -4.661   6.466   7.582  0.00  0.00    -0.002 C 
ATOM     19  C   UNL     1      -5.640   7.033   8.612  0.00  0.00    -0.000 C 
ATOM     20  C   UNL     1      -5.401   8.536   8.770  0.00  0.00    -0.002 C 
ATOM     21  C   UNL     1      -5.617   9.231   7.424  0.00  0.00    -0.015 C 
ENDBRANCH  12  16
ENDBRANCH   6   9
ENDBRANCH   4   6
BRANCH   1  23
ATOM     22  C   UNL     1      -4.048   3.094   0.105  0.00  0.00    +0.052 C 
ATOM     23  C   UNL     1      -5.327   3.437   0.382  0.00  0.00    +0.019 C 
BRANCH  22  28
ATOM     24  C   UNL     1      -2.426   1.192  -0.336  0.00  0.00    +0.103 A 
ATOM     25  C   UNL     1      -2.527  -0.208  -0.406  0.00  0.00    +0.102 A 
ATOM     26  N   UNL     1      -3.765  -0.545  -0.173  0.00  0.00    -0.081 NA
ATOM     27  O   UNL     1      -4.520   0.631   0.050  0.00  0.00    -0.353 OA
ATOM     28  C   UNL     1      -3.686   1.688  -0.053  0.00  0.00    +0.182 A 
ATOM     29  C   UNL     1      -1.395  -1.159  -0.698  0.00  0.00    +0.071 C 
BRANCH  24  32
ATOM     30  C   UNL     1      -0.186   1.739   0.262  0.00  0.00    +0.217 C 
ATOM     31  O   UNL     1      -0.256   0.959   1.189  0.00  0.00    -0.275 OA
ATOM     32  N   UNL     1      -1.261   1.949  -0.523  0.00  0.00    -0.281 N 
ATOM     33  H   UNL     1      -1.224   2.715  -1.312  0.00  0.00    +0.155 HD
BRANCH  30  35
ATOM     34  C   UNL     1       2.157   2.046   1.012  0.00  0.00    +0.013 C 
ATOM     35  C   UNL     1       1.104   2.467  -0.014  0.00  0.00    +0.093 C 
ENDBRANCH  30  35
ENDBRANCH  24  32
ENDBRANCH  22  28
ENDBRANCH   1  23
TORSDOF 7
