REMARK  Name = ZINC11881726
REMARK  9 active torsions:
REMARK  status: ('A' for Active; 'I' for Inactive)
REMARK    1  A    between atoms: C_1  and  S_2
REMARK    2  A    between atoms: S_2  and  C_3
REMARK    3  A    between atoms: C_8  and  N_9
REMARK    4  A    between atoms: C_10  and  C_12
REMARK    5  A    between atoms: C_12  and  O_13
REMARK    6  A    between atoms: O_13  and  C_14
REMARK    7  A    between atoms: C_17  and  C_30
REMARK    8  A    between atoms: C_19  and  C_20
REMARK    9  A    between atoms: C_20  and  N_64
REMARK                            x       y       z     vdW  Elec       q    Type
REMARK                         _______ _______ _______ _____ _____    ______ ____
ROOT
ATOM      1  C   UNL     1       3.627   1.600   0.011  0.00  0.00    +0.123 A 
ATOM      2  C   UNL     1       3.789   2.980   0.016  0.00  0.00    +0.046 A 
ATOM      3  C   UNL     1       5.054   3.526   0.024  0.00  0.00    +0.015 A 
ATOM      4  C   UNL     1       6.172   2.693   0.015  0.00  0.00    +0.020 A 
ATOM      5  C   UNL     1       6.006   1.308   0.003  0.00  0.00    +0.017 A 
ATOM      6  C   UNL     1       4.738   0.768   0.002  0.00  0.00    -0.022 A 
ENDROOT
BRANCH   4   7
ATOM      7  C   UNL     1       7.534   3.277   0.016  0.00  0.00    +0.160 A 
ATOM      8  N   UNL     1       8.586   2.469   0.012  0.00  0.00    -0.236 NA
ATOM      9  C   UNL     1       9.814   2.958   0.009  0.00  0.00    +0.114 A 
ATOM     10  C   UNL     1       9.995   4.333   0.020  0.00  0.00    +0.039 A 
ATOM     11  C   UNL     1       8.874   5.149   0.029  0.00  0.00    +0.114 A 
ATOM     12  N   UNL     1       7.673   4.596   0.027  0.00  0.00    -0.236 NA
ENDBRANCH   4   7
BRANCH   1  13
ATOM     13  O   UNL     1       2.379   1.065   0.009  0.00  0.00    -0.483 OA
BRANCH  13  14
ATOM     14  C   UNL     1       1.280   1.979   0.019  0.00  0.00    +0.324 C 
BRANCH  14  16
ATOM     15  N   UNL     1      -1.191   1.867   0.018  0.00  0.00    -0.282 N 
ATOM     16  C   UNL     1      -0.015   1.208   0.015  0.00  0.00    +0.255 C 
ATOM     17  O   UNL     1       0.001  -0.005   0.005  0.00  0.00    -0.272 OA
ATOM     18  H   UNL     1      -1.205   2.834   0.092  0.00  0.00    +0.155 HD
BRANCH  15  24
ATOM     19  C   UNL     1      -3.472   1.700  -0.782  0.00  0.00    +0.029 A 
ATOM     20  C   UNL     1      -4.659   0.989  -0.881  0.00  0.00    +0.016 A 
ATOM     21  C   UNL     1      -4.770  -0.256  -0.291  0.00  0.00    +0.001 A 
ATOM     22  C   UNL     1      -3.701  -0.797   0.399  0.00  0.00    +0.002 A 
ATOM     23  C   UNL     1      -2.512  -0.098   0.498  0.00  0.00    +0.024 A 
ATOM     24  C   UNL     1      -2.393   1.154  -0.086  0.00  0.00    +0.047 A 
BRANCH  19  26
ATOM     25  C   UNL     1      -4.948   3.559  -2.301  0.00  0.00    +0.090 C 
ATOM     26  S   UNL     1      -3.327   3.287  -1.534  0.00  0.00    -0.127 S 
ENDBRANCH  19  26
ENDBRANCH  15  24
ENDBRANCH  14  16
ENDBRANCH  13  14
ENDBRANCH   1  13
BRANCH   6  27
ATOM     27  C   UNL     1       4.558  -0.729  -0.010  0.00  0.00    -0.039 C 
BRANCH  27  37
ATOM     28  C   UNL     1       3.864  -2.593  -1.395  0.00  0.00    -0.073 C 
ATOM     29  C   UNL     1       3.218  -2.901  -2.746  0.00  0.00    +0.017 C 
ATOM     30  C   UNL     1       4.106  -2.414  -3.862  0.00  0.00    -0.048 A 
ATOM     31  C   UNL     1       3.885  -2.900  -5.143  0.00  0.00    +0.004 A 
ATOM     32  C   UNL     1       4.673  -2.477  -6.194  0.00  0.00    +0.000 A 
ATOM     33  C   UNL     1       5.687  -1.564  -5.971  0.00  0.00    +0.000 A 
ATOM     34  C   UNL     1       5.909  -1.082  -4.697  0.00  0.00    +0.002 A 
ATOM     35  C   UNL     1       5.119  -1.507  -3.638  0.00  0.00    -0.061 A 
ATOM     36  C   UNL     1       5.402  -0.955  -2.266  0.00  0.00    -0.042 C 
ATOM     37  N   UNL     1       4.238  -1.164  -1.389  0.00  0.00    +0.385 N 
ATOM     38  H   UNL     1       3.449  -0.609  -1.740  0.00  0.00    -0.081 HD
ENDBRANCH  27  37
ENDBRANCH   6  27
TORSDOF 8
