REMARK  Name = ZINC40081452
REMARK  13 active torsions:
REMARK  status: ('A' for Active; 'I' for Inactive)
REMARK    1  A    between atoms: C_1  and  C_2
REMARK    2  A    between atoms: C_2  and  O_3
REMARK    3  A    between atoms: O_3  and  C_4
REMARK    4  A    between atoms: C_7  and  C_11
REMARK    5  A    between atoms: C_8  and  C_10
REMARK    6  A    between atoms: C_11  and  C_13
REMARK    7  A    between atoms: N_17  and  C_27
REMARK    8  A    between atoms: C_18  and  C_20
REMARK    9  A    between atoms: C_27  and  C_28
REMARK   10  A    between atoms: C_28  and  O_29
REMARK   11  A    between atoms: O_29  and  C_30
REMARK   12  A    between atoms: C_30  and  C_31
REMARK   13  A    between atoms: C_31  and  O_32
REMARK                            x       y       z     vdW  Elec       q    Type
REMARK                         _______ _______ _______ _____ _____    ______ ____
ROOT
ATOM      1  C   UNL     1       0.063  -6.397   0.788  0.00  0.00    +0.076 C 
ATOM      2  C   UNL     1       0.011  -7.743   0.663  0.00  0.00    +0.249 C 
ATOM      3  C   UNL     1      -0.847  -8.091  -0.489  0.00  0.00    +0.288 C 
ATOM      4  O   UNL     1      -1.091  -9.222  -0.860  0.00  0.00    -0.266 OA
ATOM      5  N   UNL     1      -1.317  -6.971  -1.067  0.00  0.00    -0.281 N 
ATOM      6  C   UNL     1      -0.795  -5.823  -0.316  0.00  0.00    +0.146 C 
ATOM      7  O   UNL     1       0.644  -8.630   1.465  0.00  0.00    -0.282 OA
ENDROOT
BRANCH   6   8
ATOM      8  C   UNL     1       0.038  -4.952  -1.220  0.00  0.00    -0.008 A 
ATOM      9  C   UNL     1       0.632  -5.492  -2.345  0.00  0.00    +0.007 A 
ATOM     10  C   UNL     1       1.396  -4.693  -3.175  0.00  0.00    +0.000 A 
ATOM     11  C   UNL     1       1.566  -3.353  -2.880  0.00  0.00    +0.001 A 
ATOM     12  C   UNL     1       0.973  -2.812  -1.756  0.00  0.00    +0.015 A 
ATOM     13  C   UNL     1       0.204  -3.610  -0.927  0.00  0.00    +0.023 A 
ATOM     14 BR   UNL     1      -0.615  -2.869   0.608  0.00  0.00    -0.050 Br
ENDBRANCH   6   8
BRANCH   1  15
ATOM     15  C   UNL     1       0.805  -5.641   1.802  0.00  0.00    +0.195 C 
ATOM     16  O   UNL     1       1.845  -5.084   1.506  0.00  0.00    -0.287 OA
BRANCH  15  20
ATOM     17  C   UNL     1      -0.680  -5.396   5.774  0.00  0.00    +0.121 A 
ATOM     18  C   UNL     1      -1.445  -6.002   4.784  0.00  0.00    +0.046 A 
ATOM     19  C   UNL     1      -0.968  -6.084   3.495  0.00  0.00    +0.015 A 
ATOM     20  C   UNL     1       0.288  -5.555   3.182  0.00  0.00    +0.025 A 
ATOM     21  C   UNL     1       1.055  -4.946   4.181  0.00  0.00    -0.036 A 
ATOM     22  C   UNL     1       0.568  -4.864   5.466  0.00  0.00    +0.049 A 
ATOM     23  C   UNL     1       2.410  -4.376   3.849  0.00  0.00    +0.044 C 
BRANCH  17  24
ATOM     24  O   UNL     1      -1.154  -5.317   7.043  0.00  0.00    -0.492 OA
BRANCH  24  26
ATOM     25  C   UNL     1      -2.806  -5.700   8.765  0.00  0.00    +0.048 C 
ATOM     26  C   UNL     1      -2.443  -5.883   7.290  0.00  0.00    +0.225 C 
ENDBRANCH  24  26
ENDBRANCH  17  24
ENDBRANCH  15  20
ENDBRANCH   1  15
BRANCH   5  27
ATOM     27  C   UNL     1      -2.200  -6.907  -2.234  0.00  0.00    +0.137 C 
BRANCH  27  28
ATOM     28  C   UNL     1      -3.658  -6.921  -1.772  0.00  0.00    +0.179 C 
BRANCH  28  29
ATOM     29  O   UNL     1      -3.933  -5.733  -1.027  0.00  0.00    -0.376 OA
BRANCH  29  30
ATOM     30  C   UNL     1      -5.276  -5.646  -0.546  0.00  0.00    +0.187 C 
BRANCH  30  31
ATOM     31  C   UNL     1      -5.454  -4.341   0.234  0.00  0.00    +0.184 C 
BRANCH  31  32
ATOM     32  O   UNL     1      -5.297  -3.231  -0.652  0.00  0.00    -0.393 OA
ATOM     33  H   UNL     1      -5.397  -2.370  -0.225  0.00  0.00    +0.209 HD
ENDBRANCH  31  32
ENDBRANCH  30  31
ENDBRANCH  29  30
ENDBRANCH  28  29
ENDBRANCH  27  28
ENDBRANCH   5  27
TORSDOF 11
