REMARK  Name = ZINC35851811
REMARK  5 active torsions:
REMARK  status: ('A' for Active; 'I' for Inactive)
REMARK    1  A    between atoms: C_1  and  C_2
REMARK    2  A    between atoms: C_5  and  C_8
REMARK    3  A    between atoms: C_8  and  C_10
REMARK    4  A    between atoms: C_12  and  C_30
REMARK    5  A    between atoms: C_34  and  N_36
REMARK                            x       y       z     vdW  Elec       q    Type
REMARK                         _______ _______ _______ _____ _____    ______ ____
ROOT
ATOM      1  C   UNL     1       0.179  -4.994   1.282  0.00  0.00    +0.103 C 
ATOM      2  C   UNL     1      -1.219  -5.392   1.800  0.00  0.00    +0.050 C 
ATOM      3  C   UNL     1      -1.189  -6.927   1.913  0.00  0.00    +0.077 C 
ATOM      4  C   UNL     1      -1.962  -7.358   3.177  0.00  0.00    +0.090 C 
ATOM      5  S   UNL     1      -0.614  -8.051   4.227  0.00  0.00    -0.144 S 
ATOM      6  C   UNL     1       0.805  -7.312   3.303  0.00  0.00    +0.155 C 
ATOM      7  N   UNL     1       0.233  -7.313   1.946  0.00  0.00    -0.271 NA
ATOM      8  C   UNL     1       0.948  -6.311   1.138  0.00  0.00    +0.137 C 
ATOM      9  C   UNL     1       1.037  -6.734  -0.303  0.00  0.00    +0.004 A 
ATOM     10  C   UNL     1       0.094  -7.031  -1.262  0.00  0.00    +0.008 A 
ATOM     11  C   UNL     1       0.493  -7.400  -2.534  0.00  0.00    +0.000 A 
ATOM     12  C   UNL     1       1.840  -7.470  -2.839  0.00  0.00    +0.002 A 
ATOM     13  C   UNL     1       2.788  -7.174  -1.882  0.00  0.00    +0.023 A 
ATOM     14  C   UNL     1       2.395  -6.802  -0.599  0.00  0.00    +0.039 A 
ATOM     15  N   UNL     1       3.150  -6.460   0.525  0.00  0.00    -0.283 N 
ATOM     16  C   UNL     1       2.377  -6.160   1.586  0.00  0.00    +0.243 C 
ATOM     17  O   UNL     1       2.759  -5.831   2.689  0.00  0.00    -0.273 OA
ATOM     18  H   UNL     1       4.120  -6.442   0.540  0.00  0.00    +0.155 HD
ENDROOT
BRANCH   2  19
ATOM     19  C   UNL     1      -2.281  -4.959   0.824  0.00  0.00    -0.040 A 
ATOM     20  C   UNL     1      -2.805  -3.681   0.894  0.00  0.00    +0.004 A 
ATOM     21  C   UNL     1      -3.780  -3.284  -0.002  0.00  0.00    +0.002 A 
ATOM     22  C   UNL     1      -4.230  -4.163  -0.969  0.00  0.00    +0.033 A 
ATOM     23  C   UNL     1      -3.706  -5.440  -1.040  0.00  0.00    +0.126 A 
ATOM     24  C   UNL     1      -2.728  -5.836  -0.146  0.00  0.00    +0.036 A 
BRANCH  23  25
ATOM     25  N   UNL     1      -4.188  -6.382  -2.075  0.00  0.00    +0.056 N 
ATOM     26  O   UNL     1      -5.041  -6.034  -2.858  0.00  0.00    -0.126 OA
ATOM     27  O   UNL     1      -3.729  -7.498  -2.137  0.00  0.00    -0.126 OA
ENDBRANCH  23  25
ENDBRANCH   2  19
BRANCH   1  28
ATOM     28  C   UNL     1       0.064  -4.307  -0.055  0.00  0.00    +0.169 C 
ATOM     29  O   UNL     1       0.180  -4.948  -1.078  0.00  0.00    -0.292 OA
BRANCH  28  34
ATOM     30  C   UNL     1      -0.930   1.349  -0.304  0.00  0.00    +0.044 C 
ATOM     31  C   UNL     1      -0.669  -0.133  -0.239  0.00  0.00    -0.050 A 
ATOM     32  C   UNL     1      -0.408  -0.838  -1.401  0.00  0.00    +0.004 A 
ATOM     33  C   UNL     1      -0.169  -2.195  -1.350  0.00  0.00    +0.011 A 
ATOM     34  C   UNL     1      -0.190  -2.859  -0.119  0.00  0.00    +0.018 A 
ATOM     35  C   UNL     1      -0.453  -2.139   1.051  0.00  0.00    +0.011 A 
ATOM     36  C   UNL     1      -0.685  -0.782   0.984  0.00  0.00    +0.004 A 
ENDBRANCH  28  34
ENDBRANCH   1  28
TORSDOF 4
