REMARK  Name = ZINC01217999
REMARK  6 active torsions:
REMARK  status: ('A' for Active; 'I' for Inactive)
REMARK    1  A    between atoms: C_1  and  C_2
REMARK    2  A    between atoms: C_7  and  N_8
REMARK    3  A    between atoms: C_9  and  C_11
REMARK    4  A    between atoms: C_12  and  C_26
REMARK    5  A    between atoms: C_17  and  C_19
REMARK    6  A    between atoms: C_22  and  O_25
REMARK                            x       y       z     vdW  Elec       q    Type
REMARK                         _______ _______ _______ _____ _____    ______ ____
ROOT
ATOM      1  C   UNL     1       3.683  -1.274   0.226  0.00  0.00    +0.056 C 
ATOM      2  C   UNL     1       3.788  -2.615   0.112  0.00  0.00    +0.017 C 
ATOM      3  N   UNL     1       5.008  -3.229   0.119  0.00  0.00    -0.300 N 
ATOM      4  C   UNL     1       6.169  -2.573   0.236  0.00  0.00    +0.135 C 
ATOM      5  S   UNL     1       7.630  -3.466   0.231  0.00  0.00    -0.019 S 
ATOM      6  N   UNL     1       6.226  -1.232   0.359  0.00  0.00    -0.315 N 
ATOM      7  C   UNL     1       4.963  -0.474   0.357  0.00  0.00    +0.139 C 
ATOM      8  C   UNL     1       2.540  -3.448  -0.025  0.00  0.00    +0.061 C 
ATOM      9  H   UNL     1       5.035  -4.195   0.034  0.00  0.00    +0.154 HD
ATOM     10  H   UNL     1       7.078  -0.776   0.442  0.00  0.00    +0.149 HD
ENDROOT
BRANCH   7  11
ATOM     11  C   UNL     1       4.893   0.308   1.643  0.00  0.00    -0.022 A 
ATOM     12  C   UNL     1       5.141  -0.322   2.848  0.00  0.00    +0.009 A 
ATOM     13  C   UNL     1       5.083   0.394   4.028  0.00  0.00    +0.046 A 
ATOM     14  C   UNL     1       4.764   1.744   4.004  0.00  0.00    +0.117 A 
ATOM     15  C   UNL     1       4.510   2.373   2.793  0.00  0.00    +0.046 A 
ATOM     16  C   UNL     1       4.575   1.653   1.616  0.00  0.00    +0.009 A 
BRANCH  14  17
ATOM     17  O   UNL     1       4.702   2.450   5.163  0.00  0.00    -0.507 OA
ATOM     18  H   UNL     1       3.826   2.453   5.575  0.00  0.00    +0.292 HD
ENDBRANCH  14  17
ENDBRANCH   7  11
BRANCH   1  20
ATOM     19  N   UNL     1       1.624  -0.700   1.305  0.00  0.00    -0.281 N 
ATOM     20  C   UNL     1       2.418  -0.636   0.218  0.00  0.00    +0.248 C 
ATOM     21  O   UNL     1       2.049  -0.030  -0.771  0.00  0.00    -0.270 OA
ATOM     22  H   UNL     1       1.956  -1.098   2.125  0.00  0.00    +0.155 HD
BRANCH  19  29
ATOM     23  C   UNL     1      -0.379  -1.971   2.876  0.00  0.00    +0.045 C 
ATOM     24  C   UNL     1      -0.686  -0.783   2.002  0.00  0.00    -0.029 A 
ATOM     25  C   UNL     1      -1.972  -0.279   1.947  0.00  0.00    +0.006 A 
ATOM     26  C   UNL     1      -2.255   0.811   1.145  0.00  0.00    +0.020 A 
ATOM     27  C   UNL     1      -1.252   1.404   0.399  0.00  0.00    +0.043 A 
ATOM     28  C   UNL     1       0.035   0.902   0.446  0.00  0.00    +0.043 A 
ATOM     29  C   UNL     1       0.322  -0.193   1.251  0.00  0.00    +0.038 A 
ATOM     30 CL   UNL     1      -1.611   2.777  -0.601  0.00  0.00    -0.083 Cl
ENDBRANCH  19  29
ENDBRANCH   1  20
TORSDOF 4
