REMARK  Name = ZINC62874966
REMARK  7 active torsions:
REMARK  status: ('A' for Active; 'I' for Inactive)
REMARK    1  A    between atoms: C_1  and  C_2
REMARK    2  A    between atoms: C_2  and  N_3
REMARK    3  A    between atoms: N_3  and  C_4
REMARK    4  A    between atoms: C_4  and  C_5
REMARK    5  A    between atoms: N_7  and  C_8
REMARK    6  A    between atoms: C_15  and  C_17
REMARK    7  A    between atoms: C_15  and  C_18
REMARK                            x       y       z     vdW  Elec       q    Type
REMARK                         _______ _______ _______ _____ _____    ______ ____
ROOT
ATOM      1  N   UNL     1      -2.589  -0.527   0.493  0.00  0.00    -0.277 N 
ATOM      2  C   UNL     1      -1.292  -0.226   0.705  0.00  0.00    +0.305 C 
ATOM      3  O   UNL     1      -0.472  -0.417  -0.172  0.00  0.00    -0.252 OA
ATOM      4  N   UNL     1      -0.905   0.286   1.890  0.00  0.00    -0.284 N 
ATOM      5  C   UNL     1       0.337   1.063   2.000  0.00  0.00    +0.109 C 
ATOM      6  C   UNL     1       1.203   0.455   3.108  0.00  0.00    +0.020 C 
ATOM      7  C   UNL     1       0.390   0.383   4.403  0.00  0.00    +0.021 C 
ATOM      8  C   UNL     1      -0.829  -0.518   4.193  0.00  0.00    +0.085 C 
ATOM      9  C   UNL     1      -1.720   0.083   3.096  0.00  0.00    +0.127 C 
ATOM     10  C   UNL     1      -0.365  -1.914   3.771  0.00  0.00    +0.024 C 
ENDROOT
BRANCH   8  11
ATOM     11  C   UNL     1      -1.611  -0.615   5.477  0.00  0.00    +0.363 C 
ATOM     12  O   UNL     1      -2.817  -0.784   5.445  0.00  0.00    -0.246 OA
ATOM     13  O   UNL     1      -1.036  -0.523   6.549  0.00  0.00    -0.246 OA
ENDBRANCH   8  11
BRANCH   1  15
ATOM     14  C   UNL     1      -3.365  -0.389  -1.823  0.00  0.00    +0.024 C 
ATOM     15  C   UNL     1      -2.974  -1.323  -0.676  0.00  0.00    +0.106 C 
ENDBRANCH   1  15
BRANCH   1  16
ATOM     16  C   UNL     1      -3.613  -0.059   1.430  0.00  0.00    +0.204 C 
BRANCH  16  17
ATOM     17  C   UNL     1      -4.162  -1.232   2.201  0.00  0.00    +0.230 C 
ATOM     18  O   UNL     1      -3.834  -2.361   1.903  0.00  0.00    -0.274 OA
ATOM     19  N   UNL     1      -5.018  -1.026   3.221  0.00  0.00    -0.317 N 
ATOM     20  C   UNL     1      -5.552  -2.166   3.970  0.00  0.00    +0.128 C 
ATOM     21  H   UNL     1      -5.281  -0.123   3.459  0.00  0.00    +0.148 HD
ENDBRANCH  16  17
ENDBRANCH   1  16
TORSDOF 4
