REMARK  Name = ZINC15681422
REMARK  11 active torsions:
REMARK  status: ('A' for Active; 'I' for Inactive)
REMARK    1  A    between atoms: C_1  and  C_2
REMARK    2  A    between atoms: C_5  and  N_8
REMARK    3  A    between atoms: C_9  and  N_33
REMARK    4  A    between atoms: C_10  and  C_14
REMARK    5  A    between atoms: C_11  and  C_13
REMARK    6  A    between atoms: N_16  and  C_17
REMARK    7  A    between atoms: C_17  and  C_18
REMARK    8  A    between atoms: C_18  and  N_19
REMARK    9  A    between atoms: N_22  and  C_25
REMARK   10  A    between atoms: C_29  and  C_32
REMARK   11  A    between atoms: C_30  and  C_31
REMARK                            x       y       z     vdW  Elec       q    Type
REMARK                         _______ _______ _______ _____ _____    ______ ____
ROOT
ATOM      1  C   UNL     1       0.958  -7.479   1.183  0.00  0.00    +0.249 C 
ATOM      2  O   UNL     1       0.301  -7.992   2.069  0.00  0.00    -0.270 OA
ATOM      3  N   UNL     1       2.142  -8.015   0.826  0.00  0.00    -0.310 N 
ATOM      4  H   UNL     1       2.666  -7.606   0.119  0.00  0.00    +0.149 HD
ENDROOT
BRANCH   1   7
ATOM      5  N   UNL     1       0.058  -4.172  -0.021  0.00  0.00    -0.215 N 
ATOM      6  C   UNL     1       0.697  -4.958   0.872  0.00  0.00    +0.154 A 
ATOM      7  C   UNL     1       0.460  -6.276   0.501  0.00  0.00    +0.102 A 
ATOM      8  C   UNL     1      -0.352  -6.241  -0.657  0.00  0.00    +0.075 A 
ATOM      9  N   UNL     1      -0.587  -4.993  -0.952  0.00  0.00    -0.169 NA
ATOM     10  C   UNL     1      -0.862  -7.440  -1.415  0.00  0.00    +0.068 C 
BRANCH   5  15
ATOM     11  C   UNL     1      -0.018   1.503   0.010  0.00  0.00    +0.044 C 
ATOM     12  C   UNL     1       0.002  -0.004   0.002  0.00  0.00    -0.050 A 
ATOM     13  C   UNL     1       0.006  -0.688  -1.200  0.00  0.00    +0.005 A 
ATOM     14  C   UNL     1       0.024  -2.068  -1.211  0.00  0.00    +0.028 A 
ATOM     15  C   UNL     1       0.040  -2.771  -0.013  0.00  0.00    +0.068 A 
ATOM     16  C   UNL     1       0.036  -2.082   1.192  0.00  0.00    +0.028 A 
ATOM     17  C   UNL     1       0.023  -0.700   1.196  0.00  0.00    +0.005 A 
ENDBRANCH   5  15
BRANCH   6  18
ATOM     18  N   UNL     1       1.450  -4.529   1.958  0.00  0.00    -0.307 N 
ATOM     19  C   UNL     1       1.392  -5.045   3.223  0.00  0.00    +0.092 A 
ATOM     20  C   UNL     1       2.268  -4.371   3.994  0.00  0.00    +0.019 A 
ATOM     21  C   UNL     1       2.892  -3.403   3.179  0.00  0.00    +0.019 A 
ATOM     22  C   UNL     1       2.378  -3.525   1.939  0.00  0.00    +0.092 A 
ENDBRANCH   6  18
ENDBRANCH   1   7
BRANCH   3  23
ATOM     23  C   UNL     1       2.639  -9.214   1.506  0.00  0.00    +0.120 C 
BRANCH  23  24
ATOM     24  C   UNL     1       3.993  -9.611   0.915  0.00  0.00    +0.103 C 
BRANCH  24  25
ATOM     25  N   UNL     1       4.491 -10.813   1.597  0.00  0.00    -0.298 NA
ATOM     26  C   UNL     1       4.785 -10.534   3.009  0.00  0.00    +0.103 C 
ATOM     27  C   UNL     1       5.126 -11.845   3.725  0.00  0.00    +0.120 C 
ATOM     28  N   UNL     1       6.207 -12.515   2.984  0.00  0.00    -0.327 N 
ATOM     29  C   UNL     1       6.042 -12.707   1.535  0.00  0.00    +0.120 C 
ATOM     30  C   UNL     1       5.665 -11.362   0.905  0.00  0.00    +0.103 C 
BRANCH  28  31
ATOM     31  C   UNL     1       7.359 -12.956   3.640  0.00  0.00    +0.033 A 
ATOM     32  C   UNL     1       7.413 -14.242   4.162  0.00  0.00    +0.023 A 
ATOM     33  C   UNL     1       8.554 -14.675   4.809  0.00  0.00    +0.002 A 
ATOM     34  C   UNL     1       9.641 -13.829   4.938  0.00  0.00    +0.004 A 
ATOM     35  C   UNL     1       9.590 -12.549   4.419  0.00  0.00    -0.046 A 
ATOM     36  C   UNL     1       8.454 -12.111   3.765  0.00  0.00    -0.027 A 
ATOM     37  C   UNL     1       8.402 -10.718   3.195  0.00  0.00    +0.046 C 
ATOM     38  C   UNL     1      10.776 -11.631   4.562  0.00  0.00    +0.044 C 
ENDBRANCH  28  31
ENDBRANCH  24  25
ENDBRANCH  23  24
ENDBRANCH   3  23
TORSDOF 7
