REMARK  Name = ZINC33330030
REMARK  14 active torsions:
REMARK  status: ('A' for Active; 'I' for Inactive)
REMARK    1  A    between atoms: C_1  and  C_2
REMARK    2  A    between atoms: C_5  and  C_8
REMARK    3  A    between atoms: C_11  and  S_19
REMARK    4  A    between atoms: N_12  and  C_13
REMARK    5  A    between atoms: S_19  and  C_20
REMARK    6  A    between atoms: C_20  and  C_21
REMARK    7  A    between atoms: N_23  and  N_24
REMARK    8  A    between atoms: C_25  and  C_26
REMARK    9  A    between atoms: C_28  and  O_36
REMARK   10  A    between atoms: C_29  and  O_34
REMARK   11  A    between atoms: C_31  and  O_32
REMARK   12  A    between atoms: O_32  and  C_33
REMARK   13  A    between atoms: O_34  and  C_35
REMARK   14  A    between atoms: O_36  and  C_37
REMARK                            x       y       z     vdW  Elec       q    Type
REMARK                         _______ _______ _______ _____ _____    ______ ____
ROOT
ATOM      1  S   UNL     1       5.782  -4.093   3.962  0.00  0.00    -0.076 S 
ENDROOT
BRANCH   1   5
ATOM      2  C   UNL     1       7.157  -5.553   0.606  0.00  0.00    +0.169 A 
ATOM      3  N   UNL     1       6.334  -4.614   0.199  0.00  0.00    -0.128 NA
ATOM      4  N   UNL     1       5.795  -4.033   1.210  0.00  0.00    -0.122 NA
ATOM      5  C   UNL     1       6.239  -4.564   2.327  0.00  0.00    +0.197 A 
ATOM      6  N   UNL     1       7.127  -5.546   1.984  0.00  0.00    -0.270 N 
BRANCH   2  11
ATOM      7  C   UNL     1      10.311  -9.022  -2.730  0.00  0.00    +0.044 C 
ATOM      8  C   UNL     1       9.485  -8.113  -1.856  0.00  0.00    -0.050 A 
ATOM      9  C   UNL     1       8.906  -6.978  -2.396  0.00  0.00    +0.004 A 
ATOM     10  C   UNL     1       8.149  -6.142  -1.602  0.00  0.00    +0.012 A 
ATOM     11  C   UNL     1       7.967  -6.444  -0.251  0.00  0.00    +0.020 A 
ATOM     12  C   UNL     1       8.558  -7.588   0.288  0.00  0.00    +0.012 A 
ATOM     13  C   UNL     1       9.309  -8.418  -0.518  0.00  0.00    +0.004 A 
ENDBRANCH   2  11
BRANCH   6  14
ATOM     14  C   UNL     1       7.852  -6.375   2.851  0.00  0.00    +0.051 A 
ATOM     15  C   UNL     1       9.237  -6.293   2.896  0.00  0.00    +0.026 A 
ATOM     16  C   UNL     1       9.948  -7.106   3.756  0.00  0.00    +0.002 A 
ATOM     17  C   UNL     1       9.283  -8.010   4.564  0.00  0.00    +0.000 A 
ATOM     18  C   UNL     1       7.903  -8.098   4.517  0.00  0.00    +0.002 A 
ATOM     19  C   UNL     1       7.186  -7.283   3.663  0.00  0.00    +0.026 A 
ENDBRANCH   6  14
ENDBRANCH   1   5
BRANCH   1  20
ATOM     20  C   UNL     1       4.611  -2.764   3.591  0.00  0.00    +0.174 C 
BRANCH  20  21
ATOM     21  C   UNL     1       4.074  -2.193   4.878  0.00  0.00    +0.242 C 
ATOM     22  O   UNL     1       4.517  -2.572   5.942  0.00  0.00    -0.273 OA
ATOM     23  N   UNL     1       3.101  -1.261   4.848  0.00  0.00    -0.206 N 
ATOM     24  H   UNL     1       2.762  -0.850   3.885  0.00  0.00    +0.177 HD
BRANCH  23  25
ATOM     25  N   UNL     1       2.521  -0.815   6.043  0.00  0.00    -0.188 NA
ATOM     26  C   UNL     1       1.492  -0.023   6.009  0.00  0.00    +0.142 C 
BRANCH  26  27
ATOM     27  C   UNL     1       0.621   0.002   4.822  0.00  0.00    +0.040 A 
ATOM     28  C   UNL     1       0.641  -1.061   3.914  0.00  0.00    +0.062 A 
ATOM     29  C   UNL     1      -0.178  -1.033   2.802  0.00  0.00    +0.162 A 
ATOM     30  C   UNL     1      -1.024   0.054   2.584  0.00  0.00    +0.165 A 
ATOM     31  C   UNL     1      -1.044   1.113   3.477  0.00  0.00    +0.095 A 
ATOM     32  C   UNL     1      -0.231   1.092   4.598  0.00  0.00    +0.132 A 
BRANCH  32  33
ATOM     33  O   UNL     1      -0.256   2.129   5.476  0.00  0.00    -0.494 OA
ATOM     34  C   UNL     1      -1.225   3.153   5.244  0.00  0.00    +0.277 C 
ENDBRANCH  32  33
BRANCH  30  35
ATOM     35  O   UNL     1      -1.827   0.076   1.488  0.00  0.00    -0.491 OA
ATOM     36  C   UNL     1      -2.669   1.220   1.324  0.00  0.00    +0.277 C 
ENDBRANCH  30  35
BRANCH  29  37
ATOM     37  O   UNL     1      -0.159  -2.067   1.918  0.00  0.00    -0.491 OA
ATOM     38  C   UNL     1       0.732  -3.148   2.204  0.00  0.00    +0.277 C 
ENDBRANCH  29  37
ENDBRANCH  26  27
ENDBRANCH  23  25
ENDBRANCH  20  21
ENDBRANCH   1  20
TORSDOF 10
