REMARK  Name = ZINC37928736
REMARK  3 active torsions:
REMARK  status: ('A' for Active; 'I' for Inactive)
REMARK    1  A    between atoms: C_3  and  N_20
REMARK    2  A    between atoms: C_4  and  S_8
REMARK    3  A    between atoms: S_8  and  N_11
REMARK                            x       y       z     vdW  Elec       q    Type
REMARK                         _______ _______ _______ _____ _____    ______ ____
ROOT
ATOM      1  S   UNL     1       4.092  -0.375  -0.485  0.00  0.00    +0.063 S 
ATOM      2  O   UNL     1       5.077   0.116   0.414  0.00  0.00    -0.153 OA
ATOM      3  O   UNL     1       3.769  -1.755  -0.582  0.00  0.00    -0.153 OA
ENDROOT
BRANCH   1   4
ATOM      4  N   UNL     1       4.551   0.112  -2.000  0.00  0.00    -0.172 NA
ATOM      5  C   UNL     1       4.172  -0.676  -3.183  0.00  0.00    +0.115 C 
ATOM      6  C   UNL     1       3.230   0.175  -4.048  0.00  0.00    +0.060 C 
ATOM      7  C   UNL     1       3.768   1.567  -4.115  0.00  0.00    -0.004 A 
ATOM      8  C   UNL     1       4.702   2.143  -3.310  0.00  0.00    -0.021 A 
ATOM      9  C   UNL     1       5.027   3.471  -3.580  0.00  0.00    +0.013 A 
ATOM     10  C   UNL     1       4.427   4.120  -4.604  0.00  0.00    +0.046 A 
ATOM     11  S   UNL     1       3.344   2.858  -5.255  0.00  0.00    -0.101 S 
ATOM     12  C   UNL     1       5.336   1.340  -2.182  0.00  0.00    +0.145 C 
ENDBRANCH   1   4
BRANCH   1  16
ATOM     13  C   UNL     1       0.237   1.791   0.510  0.00  0.00    +0.017 A 
ATOM     14  C   UNL     1       0.255   0.850  -0.501  0.00  0.00    +0.026 A 
ATOM     15  C   UNL     1       1.434   0.185  -0.809  0.00  0.00    +0.051 A 
ATOM     16  C   UNL     1       2.594   0.467  -0.098  0.00  0.00    +0.127 A 
ATOM     17  C   UNL     1       2.571   1.409   0.912  0.00  0.00    +0.045 A 
ATOM     18  C   UNL     1       1.394   2.070   1.216  0.00  0.00    +0.020 A 
ATOM     19 BR   UNL     1       1.366   3.358   2.600  0.00  0.00    -0.050 Br
BRANCH  15  20
ATOM     20  N   UNL     1       1.454  -0.767  -1.832  0.00  0.00    -0.356 N 
ATOM     21  H   UNL     1       0.681  -0.878  -2.407  0.00  0.00    +0.142 HD
ATOM     22  H   UNL     1       2.242  -1.318  -1.966  0.00  0.00    +0.142 HD
ENDBRANCH  15  20
ENDBRANCH   1  16
TORSDOF 3
