REMARK  Name = ZINC11347824
REMARK  10 active torsions:
REMARK  status: ('A' for Active; 'I' for Inactive)
REMARK    1  A    between atoms: C_1  and  C_2
REMARK    2  A    between atoms: C_3  and  C_28
REMARK    3  A    between atoms: C_4  and  C_27
REMARK    4  A    between atoms: C_7  and  C_8
REMARK    5  A    between atoms: C_8  and  C_10
REMARK    6  A    between atoms: C_10  and  S_11
REMARK    7  A    between atoms: S_11  and  C_12
REMARK    8  A    between atoms: C_15  and  C_17
REMARK    9  A    between atoms: C_28  and  O_30
REMARK   10  A    between atoms: O_30  and  C_31
REMARK                            x       y       z     vdW  Elec       q    Type
REMARK                         _______ _______ _______ _____ _____    ______ ____
ROOT
ATOM      1  S   UNL     1      -1.554  -3.558  -0.003  0.00  0.00    -0.058 S 
ENDROOT
BRANCH   1   2
ATOM      2  C   UNL     1      -0.597  -2.079  -0.003  0.00  0.00    +0.278 A 
ATOM      3  N   UNL     1       0.712  -2.002  -0.015  0.00  0.00    -0.101 NA
ATOM      4  N   UNL     1       1.069  -0.766  -0.018  0.00  0.00    -0.106 NA
ATOM      5  C   UNL     1       0.002  -0.004   0.002  0.00  0.00    +0.251 A 
ATOM      6  O   UNL     1      -1.076  -0.819   0.008  0.00  0.00    -0.411 OA
BRANCH   5   7
ATOM      7  C   UNL     1      -0.018   1.471   0.010  0.00  0.00    +0.063 A 
ATOM      8  C   UNL     1      -1.118   2.268   0.019  0.00  0.00    +0.097 A 
ATOM      9  N   UNL     1      -0.738   3.578   0.028  0.00  0.00    -0.360 N 
ATOM     10  H   UNL     1      -1.347   4.333   0.038  0.00  0.00    +0.165 HD
ATOM     11  C   UNL     1       0.637   3.675   0.016  0.00  0.00    +0.047 A 
ATOM     12  C   UNL     1       1.151   2.367   0.004  0.00  0.00    +0.012 A 
ATOM     13  C   UNL     1       2.529   2.159  -0.011  0.00  0.00    +0.011 A 
ATOM     14  C   UNL     1       3.382   3.240  -0.012  0.00  0.00    +0.001 A 
ATOM     15  C   UNL     1       2.876   4.532  -0.001  0.00  0.00    +0.002 A 
ATOM     16  C   UNL     1       1.516   4.754   0.013  0.00  0.00    +0.026 A 
ENDBRANCH   5   7
ENDBRANCH   1   2
BRANCH   1  17
ATOM     17  C   UNL     1      -0.229  -4.791  -0.022  0.00  0.00    +0.160 C 
BRANCH  17  18
ATOM     18  C   UNL     1      -0.828  -6.173  -0.024  0.00  0.00    +0.190 C 
ATOM     19  O   UNL     1      -2.035  -6.312  -0.014  0.00  0.00    -0.290 OA
BRANCH  18  26
ATOM     20  C   UNL     1      -1.823  -9.119  -0.019  0.00  0.00    +0.047 C 
ATOM     21  C   UNL     1      -0.399  -8.625  -0.036  0.00  0.00    -0.008 A 
ATOM     22  C   UNL     1       0.767  -9.420  -0.056  0.00  0.00    +0.083 A 
ATOM     23  C   UNL     1       1.850  -8.558  -0.061  0.00  0.00    +0.028 A 
ATOM     24  N   UNL     1       1.395  -7.296  -0.050  0.00  0.00    -0.355 N 
ATOM     25  H   UNL     1       1.948  -6.500  -0.050  0.00  0.00    +0.166 HD
ATOM     26  C   UNL     1       0.015  -7.310  -0.038  0.00  0.00    +0.087 A 
ATOM     27  C   UNL     1       3.300  -8.968  -0.075  0.00  0.00    +0.064 C 
BRANCH  22  28
ATOM     28  C   UNL     1       0.822 -10.892  -0.065  0.00  0.00    +0.341 C 
ATOM     29  O   UNL     1       0.853 -11.505   0.983  0.00  0.00    -0.245 OA
BRANCH  28  30
ATOM     30  O   UNL     1       0.837 -11.558  -1.236  0.00  0.00    -0.464 OA
ATOM     31  C   UNL     1       0.891 -13.008  -1.169  0.00  0.00    +0.280 C 
ENDBRANCH  28  30
ENDBRANCH  22  28
ENDBRANCH  18  26
ENDBRANCH  17  18
ENDBRANCH   1  17
TORSDOF 7
