REMARK  Name = ZINC09391456
REMARK  16 active torsions:
REMARK  status: ('A' for Active; 'I' for Inactive)
REMARK    1  A    between atoms: C_1  and  C_2
REMARK    2  A    between atoms: C_2  and  C_3
REMARK    3  A    between atoms: C_3  and  N_4
REMARK    4  A    between atoms: N_4  and  C_5
REMARK    5  A    between atoms: N_4  and  S_8
REMARK    6  A    between atoms: C_5  and  C_6
REMARK    7  A    between atoms: C_6  and  C_7
REMARK    8  A    between atoms: S_8  and  C_11
REMARK    9  A    between atoms: C_14  and  C_17
REMARK   10  A    between atoms: N_19  and  C_20
REMARK   11  A    between atoms: C_21  and  C_30
REMARK   12  A    between atoms: C_28  and  C_29
REMARK   13  A    between atoms: C_28  and  N_70
REMARK   14  A    between atoms: C_30  and  O_32
REMARK   15  A    between atoms: O_32  and  C_33
REMARK   16  A    between atoms: C_33  and  C_34
REMARK                            x       y       z     vdW  Elec       q    Type
REMARK                         _______ _______ _______ _____ _____    ______ ____
ROOT
ATOM      1  C   UNL     1       2.216   2.522   3.518  0.00  0.00    +0.249 C 
ATOM      2  O   UNL     1       3.244   3.135   3.307  0.00  0.00    -0.270 OA
ATOM      3  N   UNL     1       1.468   2.083   2.486  0.00  0.00    -0.275 N 
ATOM      4  H   UNL     1       0.648   1.593   2.655  0.00  0.00    +0.156 HD
ENDROOT
BRANCH   3   5
ATOM      5  C   UNL     1       1.872   2.330   1.185  0.00  0.00    +0.086 A 
ATOM      6  C   UNL     1       1.244   1.962   0.001  0.00  0.00    +0.091 A 
ATOM      7  C   UNL     1       1.879   2.354  -1.243  0.00  0.00    -0.025 A 
ATOM      8  C   UNL     1       3.037   3.040  -1.109  0.00  0.00    -0.021 A 
ATOM      9  S   UNL     1       3.286   3.170   0.637  0.00  0.00    -0.079 S 
ATOM     10  C   UNL     1       3.895   3.560  -2.220  0.00  0.00    -0.035 C 
ATOM     11  C   UNL     1       2.016   2.977  -3.634  0.00  0.00    -0.074 C 
ATOM     12  C   UNL     1       1.329   2.046  -2.631  0.00  0.00    +0.018 C 
ATOM     13  N   UNL     1       3.481   2.878  -3.470  0.00  0.00    +0.383 N 
ATOM     14  H   UNL     1       3.745   1.887  -3.414  0.00  0.00    -0.081 HD
BRANCH  13  15
ATOM     15  C   UNL     1       4.163   3.492  -4.630  0.00  0.00    -0.082 C 
ATOM     16  C   UNL     1       3.711   4.942  -4.810  0.00  0.00    -0.017 C 
ENDBRANCH  13  15
BRANCH   6  17
ATOM     17  C   UNL     1      -0.014   1.212   0.009  0.00  0.00    +0.342 C 
ATOM     18  O   UNL     1       0.002  -0.004   0.002  0.00  0.00    -0.245 OA
BRANCH  17  19
ATOM     19  O   UNL     1      -1.192   1.871   0.018  0.00  0.00    -0.461 OA
BRANCH  19  20
ATOM     20  C   UNL     1      -2.398   1.063   0.019  0.00  0.00    +0.229 C 
ATOM     21  C   UNL     1      -3.624   1.979   0.030  0.00  0.00    +0.048 C 
ENDBRANCH  19  20
ENDBRANCH  17  19
ENDBRANCH   6  17
ENDBRANCH   3   5
BRANCH   1  25
ATOM     22  C   UNL     1       0.977   1.765   7.510  0.00  0.00    +0.106 A 
ATOM     23  C   UNL     1       2.148   2.463   7.273  0.00  0.00    +0.029 A 
ATOM     24  C   UNL     1       2.556   2.712   5.979  0.00  0.00    +0.015 A 
ATOM     25  C   UNL     1       1.785   2.258   4.907  0.00  0.00    +0.037 A 
ATOM     26  C   UNL     1       0.601   1.560   5.154  0.00  0.00    +0.015 A 
ATOM     27  C   UNL     1       0.208   1.313   6.452  0.00  0.00    +0.029 A 
BRANCH  22  28
ATOM     28  S   UNL     1       0.463   1.452   9.166  0.00  0.00    +0.061 S 
ATOM     29  O   UNL     1      -0.381   0.309   9.119  0.00  0.00    -0.153 OA
ATOM     30  O   UNL     1       1.633   1.503   9.971  0.00  0.00    -0.153 OA
BRANCH  28  31
ATOM     31  N   UNL     1      -0.489   2.724   9.632  0.00  0.00    -0.177 NA
BRANCH  31  32
ATOM     32  C   UNL     1      -1.935   2.679   9.405  0.00  0.00    +0.109 C 
BRANCH  32  34
ATOM     33  C   UNL     1      -4.145   2.121  10.429  0.00  0.00    +0.005 C 
ATOM     34  C   UNL     1      -2.634   2.168  10.666  0.00  0.00    +0.014 C 
ENDBRANCH  32  34
ENDBRANCH  31  32
BRANCH  31  35
ATOM     35  C   UNL     1       0.116   3.895  10.272  0.00  0.00    +0.109 C 
BRANCH  35  36
ATOM     36  C   UNL     1       0.397   4.966   9.216  0.00  0.00    +0.014 C 
ATOM     37  C   UNL     1       1.028   6.189   9.884  0.00  0.00    +0.005 C 
ENDBRANCH  35  36
ENDBRANCH  31  35
ENDBRANCH  28  31
ENDBRANCH  22  28
ENDBRANCH   1  25
TORSDOF 12
