REMARK  Name = ZINC66190274
REMARK  12 active torsions:
REMARK  status: ('A' for Active; 'I' for Inactive)
REMARK    1  A    between atoms: C_1  and  C_2
REMARK    2  A    between atoms: C_2  and  C_3
REMARK    3  A    between atoms: C_3  and  N_4
REMARK    4  A    between atoms: C_7  and  N_10
REMARK    5  A    between atoms: N_10  and  C_11
REMARK    6  A    between atoms: N_14  and  C_15
REMARK    7  A    between atoms: C_15  and  C_16
REMARK    8  A    between atoms: C_23  and  O_25
REMARK    9  A    between atoms: O_25  and  C_26
REMARK   10  A    between atoms: C_26  and  C_27
REMARK   11  A    between atoms: C_26  and  C_28
REMARK   12  A    between atoms: C_26  and  C_29
REMARK                            x       y       z     vdW  Elec       q    Type
REMARK                         _______ _______ _______ _____ _____    ______ ____
ROOT
ATOM      1  N   UNL     1      -1.890  -6.565  -1.021  0.00  0.00    -0.286 N 
ATOM      2  C   UNL     1      -1.366  -7.208   0.187  0.00  0.00    +0.134 C 
ATOM      3  C   UNL     1      -2.402  -7.315  -2.016  0.00  0.00    +0.302 C 
ATOM      4  O   UNL     1      -2.749  -6.790  -3.056  0.00  0.00    -0.253 OA
ATOM      5  N   UNL     1      -2.531  -8.647  -1.858  0.00  0.00    -0.297 N 
ATOM      6  H   UNL     1      -2.324  -9.056  -1.004  0.00  0.00    +0.150 HD
ENDROOT
BRANCH   1  10
ATOM      7  N   UNL     1      -1.147  -2.547   0.012  0.00  0.00    +0.380 N 
ATOM      8  C   UNL     1      -0.385  -3.089  -1.119  0.00  0.00    -0.077 C 
ATOM      9  C   UNL     1      -0.406  -4.618  -1.067  0.00  0.00    +0.004 C 
ATOM     10  C   UNL     1      -1.856  -5.105  -1.146  0.00  0.00    +0.074 C 
ATOM     11  C   UNL     1      -2.659  -4.475  -0.005  0.00  0.00    +0.004 C 
ATOM     12  C   UNL     1      -2.554  -2.951  -0.096  0.00  0.00    -0.077 C 
ATOM     13  H   UNL     1      -0.762  -2.900   0.875  0.00  0.00    -0.082 HD
BRANCH   7  14
ATOM     14  C   UNL     1      -1.058  -1.080   0.003  0.00  0.00    -0.079 C 
BRANCH  14  16
ATOM     15  C   UNL     1       0.485   0.872   0.230  0.00  0.00    +0.002 C 
ATOM     16  C   UNL     1       0.392  -0.656   0.240  0.00  0.00    -0.022 C 
ENDBRANCH  14  16
ENDBRANCH   7  14
ENDBRANCH   1  10
BRANCH   5  17
ATOM     17  C   UNL     1      -2.982  -9.477  -2.978  0.00  0.00    +0.128 C 
BRANCH  17  18
ATOM     18  C   UNL     1      -2.926 -10.952  -2.574  0.00  0.00    +0.096 C 
ATOM     19  C   UNL     1      -3.812 -11.182  -1.345  0.00  0.00    +0.024 C 
ATOM     20  C   UNL     1      -3.862 -12.679  -1.031  0.00  0.00    +0.003 C 
ATOM     21  C   UNL     1      -4.475 -13.431  -2.216  0.00  0.00    +0.019 C 
ATOM     22  C   UNL     1      -3.597 -13.226  -3.454  0.00  0.00    +0.111 C 
ATOM     23  N   UNL     1      -3.421 -11.784  -3.680  0.00  0.00    -0.263 N 
ATOM     24  C   UNL     1      -3.711 -11.235  -4.876  0.00  0.00    +0.404 C 
ATOM     25  O   UNL     1      -3.474 -10.061  -5.079  0.00  0.00    -0.226 OA
BRANCH  24  26
ATOM     26  O   UNL     1      -4.262 -11.989  -5.846  0.00  0.00    -0.445 OA
BRANCH  26  27
ATOM     27  C   UNL     1      -4.484 -11.358  -7.109  0.00  0.00    +0.107 C 
ATOM     28  C   UNL     1      -3.153 -10.851  -7.667  0.00  0.00    +0.055 C 
ATOM     29  C   UNL     1      -5.092 -12.369  -8.084  0.00  0.00    +0.055 C 
ATOM     30  C   UNL     1      -5.444 -10.181  -6.930  0.00  0.00    +0.055 C 
ENDBRANCH  26  27
ENDBRANCH  24  26
ENDBRANCH  17  18
ENDBRANCH   5  17
TORSDOF 7
