REMARK  Name = ZINC36202342
REMARK  16 active torsions:
REMARK  status: ('A' for Active; 'I' for Inactive)
REMARK    1  A    between atoms: C_1  and  C_2
REMARK    2  A    between atoms: C_2  and  C_3
REMARK    3  A    between atoms: C_2  and  C_4
REMARK    4  A    between atoms: C_4  and  N_5
REMARK    5  A    between atoms: N_5  and  C_6
REMARK    6  A    between atoms: N_5  and  C_17
REMARK    7  A    between atoms: C_6  and  C_7
REMARK    8  A    between atoms: C_11  and  O_15
REMARK    9  A    between atoms: C_12  and  O_13
REMARK   10  A    between atoms: O_13  and  C_14
REMARK   11  A    between atoms: O_15  and  C_16
REMARK   12  A    between atoms: C_17  and  C_18
REMARK   13  A    between atoms: C_21  and  C_23
REMARK   14  A    between atoms: C_23  and  C_24
REMARK   15  A    between atoms: C_23  and  C_31
REMARK   16  A    between atoms: C_23  and  O_38
REMARK                            x       y       z     vdW  Elec       q    Type
REMARK                         _______ _______ _______ _____ _____    ______ ____
ROOT
ATOM      1  C   UNL     1      -2.641  -0.132  -3.263  0.00  0.00    +0.089 A 
ATOM      2  C   UNL     1      -2.196   1.086  -3.622  0.00  0.00    +0.043 A 
ATOM      3  C   UNL     1      -2.844   1.418  -4.834  0.00  0.00    +0.048 A 
ATOM      4  C   UNL     1      -3.647   0.384  -5.142  0.00  0.00    +0.146 A 
ATOM      5  O   UNL     1      -3.516  -0.554  -4.190  0.00  0.00    -0.463 OA
ENDROOT
BRANCH   1   6
ATOM      6  C   UNL     1      -2.224  -0.894  -2.031  0.00  0.00    -0.003 C 
BRANCH   6   7
ATOM      7  N   UNL     1      -3.009  -0.430  -0.879  0.00  0.00    +0.387 N 
ATOM      8  H   UNL     1      -2.895   0.567  -0.775  0.00  0.00    -0.081 HD
BRANCH   7   9
ATOM      9  C   UNL     1      -2.539  -1.106   0.338  0.00  0.00    -0.075 C 
BRANCH   9  11
ATOM     10  C   UNL     1      -1.089   0.829   0.966  0.00  0.00    +0.005 C 
ATOM     11  C   UNL     1      -1.105  -0.667   0.644  0.00  0.00    -0.034 C 
ATOM     12  C   UNL     1      -0.577  -1.453   1.845  0.00  0.00    +0.005 C 
ENDBRANCH   9  11
ENDBRANCH   7   9
BRANCH   7  13
ATOM     13  C   UNL     1      -4.428  -0.742  -1.095  0.00  0.00    -0.039 C 
BRANCH  13  14
ATOM     14  C   UNL     1      -5.247  -0.158   0.027  0.00  0.00    -0.019 A 
ATOM     15  C   UNL     1      -5.665  -0.964   1.070  0.00  0.00    +0.005 A 
ATOM     16  C   UNL     1      -6.416  -0.432   2.101  0.00  0.00    +0.004 A 
ATOM     17  C   UNL     1      -6.754   0.909   2.094  0.00  0.00    +0.049 A 
ATOM     18  C   UNL     1      -6.338   1.722   1.052  0.00  0.00    +0.162 A 
ATOM     19  C   UNL     1      -5.576   1.188   0.017  0.00  0.00    +0.163 A 
BRANCH  19  20
ATOM     20  O   UNL     1      -5.162   1.983  -1.005  0.00  0.00    -0.491 OA
ATOM     21  C   UNL     1      -6.031   2.096  -2.133  0.00  0.00    +0.277 C 
ENDBRANCH  19  20
BRANCH  18  22
ATOM     22  O   UNL     1      -6.669   3.041   1.043  0.00  0.00    -0.491 OA
ATOM     23  C   UNL     1      -7.448   3.522   2.141  0.00  0.00    +0.277 C 
ENDBRANCH  18  22
ENDBRANCH  13  14
ENDBRANCH   7  13
ENDBRANCH   6   7
ENDBRANCH   1   6
BRANCH   4  24
ATOM     24  C   UNL     1      -4.539   0.291  -6.353  0.00  0.00    +0.174 C 
BRANCH  24  25
ATOM     25  C   UNL     1      -4.689  -1.153  -6.758  0.00  0.00    -0.002 A 
ATOM     26  C   UNL     1      -4.287  -1.564  -8.015  0.00  0.00    +0.007 A 
ATOM     27  C   UNL     1      -4.424  -2.888  -8.388  0.00  0.00    +0.003 A 
ATOM     28  C   UNL     1      -4.962  -3.803  -7.503  0.00  0.00    +0.038 A 
ATOM     29  C   UNL     1      -5.364  -3.393  -6.243  0.00  0.00    +0.124 A 
ATOM     30  C   UNL     1      -5.221  -2.068  -5.869  0.00  0.00    +0.045 A 
ATOM     31  F   UNL     1      -5.890  -4.287  -5.378  0.00  0.00    -0.205 F 
ENDBRANCH  24  25
BRANCH  24  32
ATOM     32  C   UNL     1      -5.894   0.863  -6.024  0.00  0.00    -0.002 A 
ATOM     33  C   UNL     1      -6.545   0.478  -4.867  0.00  0.00    +0.007 A 
ATOM     34  C   UNL     1      -7.787   1.002  -4.564  0.00  0.00    +0.003 A 
ATOM     35  C   UNL     1      -8.381   1.911  -5.418  0.00  0.00    +0.038 A 
ATOM     36  C   UNL     1      -7.731   2.298  -6.578  0.00  0.00    +0.124 A 
ATOM     37  C   UNL     1      -6.484   1.777  -6.877  0.00  0.00    +0.045 A 
ATOM     38  F   UNL     1      -8.311   3.186  -7.414  0.00  0.00    -0.205 F 
ENDBRANCH  24  32
BRANCH  24  39
ATOM     39  O   UNL     1      -3.959   1.030  -7.430  0.00  0.00    -0.372 OA
ATOM     40  H   UNL     1      -3.833   1.969  -7.239  0.00  0.00    +0.212 HD
ENDBRANCH  24  39
ENDBRANCH   4  24
TORSDOF 12
