REMARK  Name = ZINC59950137
REMARK  9 active torsions:
REMARK  status: ('A' for Active; 'I' for Inactive)
REMARK    1  A    between atoms: C_1  and  C_2
REMARK    2  A    between atoms: C_5  and  C_8
REMARK    3  A    between atoms: C_8  and  C_9
REMARK    4  A    between atoms: C_9  and  C_10
REMARK    5  A    between atoms: N_13  and  C_16
REMARK    6  A    between atoms: C_16  and  C_17
REMARK    7  A    between atoms: N_22  and  C_23
REMARK    8  A    between atoms: C_26  and  C_29
REMARK    9  A    between atoms: C_30  and  C_32
REMARK                            x       y       z     vdW  Elec       q    Type
REMARK                         _______ _______ _______ _____ _____    ______ ____
ROOT
ATOM      1  C   UNL     1       2.832 -10.316   1.786  0.00  0.00    -0.022 C 
ENDROOT
BRANCH   1   2
ATOM      2  C   UNL     1       4.278 -10.703   1.610  0.00  0.00    +0.034 A 
ATOM      3  C   UNL     1       5.086 -10.926   2.676  0.00  0.00    +0.070 A 
ATOM      4  S   UNL     1       6.617 -11.334   1.852  0.00  0.00    -0.060 S 
ATOM      5  C   UNL     1       6.076 -11.180   0.266  0.00  0.00    +0.172 A 
ATOM      6  N   UNL     1       4.812 -10.846   0.412  0.00  0.00    -0.231 NA
ATOM      7  N   UNL     1       6.791 -11.366  -0.913  0.00  0.00    -0.219 N 
ATOM      8  C   UNL     1       6.160 -11.294  -2.102  0.00  0.00    +0.223 C 
ATOM      9  O   UNL     1       4.993 -10.968  -2.151  0.00  0.00    -0.275 OA
ATOM     10  C   UNL     1       6.905 -11.620  -3.371  0.00  0.00    +0.110 C 
BRANCH   7  11
ATOM     11  C   UNL     1       8.166 -11.627  -0.865  0.00  0.00    +0.043 A 
ATOM     12  C   UNL     1       9.069 -10.700  -1.369  0.00  0.00    +0.024 A 
ATOM     13  C   UNL     1      10.424 -10.961  -1.319  0.00  0.00    +0.005 A 
ATOM     14  C   UNL     1      10.883 -12.143  -0.768  0.00  0.00    -0.050 A 
ATOM     15  C   UNL     1       9.987 -13.069  -0.265  0.00  0.00    +0.005 A 
ATOM     16  C   UNL     1       8.630 -12.811  -0.307  0.00  0.00    +0.024 A 
ATOM     17  C   UNL     1      12.363 -12.424  -0.715  0.00  0.00    +0.044 C 
ENDBRANCH   7  11
ENDBRANCH   1   2
BRANCH   1  21
ATOM     18  C   UNL     1       1.608  -6.392   0.664  0.00  0.00    -0.014 C 
ATOM     19  C   UNL     1       1.200  -6.946   2.032  0.00  0.00    -0.015 C 
ATOM     20  C   UNL     1       1.319  -8.471   2.015  0.00  0.00    -0.078 C 
ATOM     21  N   UNL     1       2.706  -8.854   1.725  0.00  0.00    +0.383 N 
ATOM     22  C   UNL     1       3.081  -8.388   0.384  0.00  0.00    -0.078 C 
ATOM     23  C   UNL     1       3.030  -6.859   0.339  0.00  0.00    -0.015 C 
ATOM     24  H   UNL     1       3.320  -8.436   2.409  0.00  0.00    -0.081 HD
BRANCH  18  25
ATOM     25  C   UNL     1       1.567  -4.863   0.698  0.00  0.00    +0.008 C 
BRANCH  25  26
ATOM     26  C   UNL     1       0.125  -4.395   0.899  0.00  0.00    +0.035 C 
BRANCH  26  31
ATOM     27  C   UNL     1      -0.032   1.380   1.028  0.00  0.00    +0.044 C 
ATOM     28  C   UNL     1       0.009  -0.126   0.995  0.00  0.00    -0.050 A 
ATOM     29  C   UNL     1      -0.130  -0.795  -0.207  0.00  0.00    +0.003 A 
ATOM     30  C   UNL     1      -0.092  -2.176  -0.238  0.00  0.00    +0.004 A 
ATOM     31  C   UNL     1       0.085  -2.889   0.933  0.00  0.00    -0.047 A 
ATOM     32  C   UNL     1       0.224  -2.221   2.135  0.00  0.00    +0.004 A 
ATOM     33  C   UNL     1       0.191  -0.839   2.165  0.00  0.00    +0.003 A 
ENDBRANCH  26  31
ENDBRANCH  25  26
ENDBRANCH  18  25
ENDBRANCH   1  21
TORSDOF 6
