REMARK  Name = ZINC06462125
REMARK  16 active torsions:
REMARK  status: ('A' for Active; 'I' for Inactive)
REMARK    1  A    between atoms: C_1  and  C_2
REMARK    2  A    between atoms: C_2  and  C_3
REMARK    3  A    between atoms: C_3  and  C_4
REMARK    4  A    between atoms: C_3  and  C_5
REMARK    5  A    between atoms: C_3  and  N_6
REMARK    6  A    between atoms: C_7  and  C_9
REMARK    7  A    between atoms: C_9  and  C_11
REMARK    8  A    between atoms: C_9  and  N_17
REMARK    9  A    between atoms: C_14  and  C_16
REMARK   10  A    between atoms: N_17  and  C_18
REMARK   11  A    between atoms: C_20  and  C_26
REMARK   12  A    between atoms: C_23  and  O_24
REMARK   13  A    between atoms: O_24  and  C_25
REMARK   14  A    between atoms: C_27  and  C_29
REMARK   15  A    between atoms: C_30  and  N_37
REMARK   16  A    between atoms: C_31  and  C_34
REMARK                            x       y       z     vdW  Elec       q    Type
REMARK                         _______ _______ _______ _____ _____    ______ ____
ROOT
ATOM      1  N   UNL     1      -4.072   2.388   2.268  0.00  0.00    -0.244 N 
ATOM      2  C   UNL     1      -4.536   3.609   1.935  0.00  0.00    +0.262 C 
ATOM      3  O   UNL     1      -5.728   3.847   2.007  0.00  0.00    -0.269 OA
ENDROOT
BRANCH   1   4
ATOM      4  C   UNL     1      -2.700   2.114   2.185  0.00  0.00    +0.080 A 
ATOM      5  C   UNL     1      -2.159   1.625   1.005  0.00  0.00    +0.030 A 
ATOM      6  C   UNL     1      -0.807   1.351   0.927  0.00  0.00    -0.048 A 
ATOM      7  C   UNL     1       0.011   1.573   2.020  0.00  0.00    +0.007 A 
ATOM      8  C   UNL     1      -0.520   2.064   3.197  0.00  0.00    +0.048 A 
ATOM      9  C   UNL     1      -1.876   2.337   3.285  0.00  0.00    +0.141 A 
ATOM     10  C   UNL     1      -0.221   0.814  -0.354  0.00  0.00    +0.044 C 
BRANCH   9  11
ATOM     11  O   UNL     1      -2.400   2.822   4.443  0.00  0.00    -0.493 OA
ATOM     12  C   UNL     1      -1.521   2.909   5.566  0.00  0.00    +0.277 C 
ENDBRANCH   9  11
ENDBRANCH   1   4
BRANCH   2  13
ATOM     13  C   UNL     1      -3.608   4.648   1.487  0.00  0.00    +0.116 A 
ATOM     14  C   UNL     1      -3.873   5.962   1.094  0.00  0.00    +0.076 A 
ATOM     15  C   UNL     1      -2.717   6.655   0.735  0.00  0.00    +0.155 A 
ATOM     16  N   UNL     1      -1.556   6.040   0.787  0.00  0.00    -0.203 NA
ATOM     17  S   UNL     1      -1.839   4.574   1.290  0.00  0.00    +0.019 S 
BRANCH  15  18
ATOM     18  C   UNL     1      -2.797   8.060   0.296  0.00  0.00    +0.262 C 
ATOM     19  O   UNL     1      -3.874   8.622   0.250  0.00  0.00    -0.269 OA
ATOM     20  N   UNL     1      -1.676   8.722  -0.054  0.00  0.00    -0.324 N 
ATOM     21  H   UNL     1      -0.817   8.273  -0.018  0.00  0.00    +0.145 HD
ATOM     22  H   UNL     1      -1.729   9.646  -0.343  0.00  0.00    +0.145 HD
ENDBRANCH  15  18
BRANCH  14  23
ATOM     23  N   UNL     1      -5.145   6.517   1.067  0.00  0.00    -0.355 N 
ATOM     24  H   UNL     1      -5.912   5.986   1.332  0.00  0.00    +0.142 HD
ATOM     25  H   UNL     1      -5.267   7.437   0.784  0.00  0.00    +0.142 HD
ENDBRANCH  14  23
ENDBRANCH   2  13
BRANCH   1  26
ATOM     26  C   UNL     1      -5.000   1.348   2.716  0.00  0.00    +0.233 C 
BRANCH  26  27
ATOM     27  C   UNL     1      -5.959   1.016   1.601  0.00  0.00    +0.135 A 
ATOM     28  C   UNL     1      -6.444  -0.207   1.318  0.00  0.00    +0.047 A 
ATOM     29  C   UNL     1      -7.301  -0.059   0.204  0.00  0.00    +0.045 A 
ATOM     30  C   UNL     1      -7.288   1.244  -0.128  0.00  0.00    +0.102 A 
ATOM     31  O   UNL     1      -6.478   1.891   0.725  0.00  0.00    -0.462 OA
ATOM     32  C   UNL     1      -8.058   1.872  -1.261  0.00  0.00    +0.086 C 
ENDBRANCH  26  27
BRANCH  26  34
ATOM     33  N   UNL     1      -6.691   1.052   4.497  0.00  0.00    -0.308 N 
ATOM     34  C   UNL     1      -5.772   1.845   3.911  0.00  0.00    +0.242 C 
ATOM     35  O   UNL     1      -5.567   2.958   4.346  0.00  0.00    -0.273 OA
ATOM     36  H   UNL     1      -6.856   0.161   4.149  0.00  0.00    +0.149 HD
BRANCH  33  37
ATOM     37  C   UNL     1      -7.442   1.535   5.659  0.00  0.00    +0.029 C 
ATOM     38  C   UNL     1      -6.469   1.872   6.790  0.00  0.00    +0.031 C 
ATOM     39  C   UNL     1      -8.229   2.789   5.272  0.00  0.00    +0.031 C 
BRANCH  37  41
ATOM     40  C   UNL     1      -9.196   0.953   7.340  0.00  0.00    +0.006 C 
ATOM     41  C   UNL     1      -8.412   0.448   6.127  0.00  0.00    +0.022 C 
ENDBRANCH  37  41
ENDBRANCH  33  37
ENDBRANCH  26  34
ENDBRANCH   1  26
TORSDOF 10
