REMARK  Name = ZINC12338161
REMARK  9 active torsions:
REMARK  status: ('A' for Active; 'I' for Inactive)
REMARK    1  A    between atoms: C_1  and  C_2
REMARK    2  A    between atoms: C_3  and  C_7
REMARK    3  A    between atoms: N_9  and  C_10
REMARK    4  A    between atoms: N_9  and  C_11
REMARK    5  A    between atoms: C_11  and  C_13
REMARK    6  A    between atoms: C_11  and  C_20
REMARK    7  A    between atoms: C_13  and  C_14
REMARK    8  A    between atoms: C_25  and  C_26
REMARK    9  A    between atoms: C_25  and  N_69
REMARK                            x       y       z     vdW  Elec       q    Type
REMARK                         _______ _______ _______ _____ _____    ______ ____
ROOT
ATOM      1  C   UNL     1       5.453  -2.409  -5.268  0.00  0.00    +0.083 C 
ENDROOT
BRANCH   1   2
ATOM      2  C   UNL     1       5.017  -2.271  -3.808  0.00  0.00    +0.006 C 
ATOM      3  C   UNL     1       6.016  -1.386  -3.057  0.00  0.00    -0.013 C 
ATOM      4  C   UNL     1       5.543  -1.202  -1.614  0.00  0.00    -0.078 C 
ATOM      5  C   UNL     1       3.225  -1.434  -2.284  0.00  0.00    -0.078 C 
ATOM      6  C   UNL     1       3.630  -1.625  -3.747  0.00  0.00    -0.013 C 
ATOM      7  N   UNL     1       4.214  -0.554  -1.624  0.00  0.00    +0.382 N 
ATOM      8  H   UNL     1       4.277   0.327  -2.147  0.00  0.00    -0.081 HD
BRANCH   7   9
ATOM      9  C   UNL     1       3.784  -0.261  -0.241  0.00  0.00    -0.043 C 
BRANCH   9  10
ATOM     10  C   UNL     1       2.540   0.588  -0.289  0.00  0.00    -0.060 A 
ATOM     11  C   UNL     1       1.295  -0.012  -0.291  0.00  0.00    +0.005 A 
ATOM     12  C   UNL     1       0.152   0.764  -0.337  0.00  0.00    +0.049 A 
ATOM     13  C   UNL     1       0.252   2.147  -0.380  0.00  0.00    +0.162 A 
ATOM     14  C   UNL     1       1.504   2.750  -0.375  0.00  0.00    +0.162 A 
ATOM     15  C   UNL     1       2.647   1.966  -0.330  0.00  0.00    +0.051 A 
ATOM     16  O   UNL     1       1.624   4.105  -0.408  0.00  0.00    -0.485 OA
ATOM     17  C   UNL     1       0.472   4.843  -0.830  0.00  0.00    +0.270 C 
ATOM     18  C   UNL     1      -0.753   4.283  -0.095  0.00  0.00    +0.270 C 
ATOM     19  O   UNL     1      -0.883   2.897  -0.434  0.00  0.00    -0.485 OA
ENDBRANCH   9  10
ENDBRANCH   7   9
ENDBRANCH   1   2
BRANCH   1  22
ATOM     20  C   UNL     1       7.808  -2.353  -5.894  0.00  0.00    +0.250 C 
ATOM     21  O   UNL     1       7.610  -1.281  -6.432  0.00  0.00    -0.270 OA
ATOM     22  N   UNL     1       6.784  -3.020  -5.324  0.00  0.00    -0.297 N 
ATOM     23  C   UNL     1       7.001  -4.355  -4.762  0.00  0.00    +0.132 C 
BRANCH  20  26
ATOM     24  C   UNL     1      10.490  -0.751  -5.618  0.00  0.00    +0.087 C 
ATOM     25  C   UNL     1      10.343  -2.246  -5.745  0.00  0.00    +0.114 A 
ATOM     26  C   UNL     1       9.166  -2.924  -5.864  0.00  0.00    +0.077 A 
ATOM     27  C   UNL     1       9.535  -4.345  -5.950  0.00  0.00    +0.054 A 
ATOM     28  C   UNL     1      10.875  -4.382  -5.885  0.00  0.00    +0.196 A 
ATOM     29  O   UNL     1      11.344  -3.131  -5.759  0.00  0.00    -0.467 OA
ENDBRANCH  20  26
ENDBRANCH   1  22
BRANCH   1  30
ATOM     30  C   UNL     1       4.454  -3.293  -6.017  0.00  0.00    +0.058 C 
BRANCH  30  31
ATOM     31  C   UNL     1       4.814  -3.330  -7.480  0.00  0.00    -0.046 A 
ATOM     32  C   UNL     1       4.278  -2.397  -8.348  0.00  0.00    +0.004 A 
ATOM     33  C   UNL     1       4.612  -2.427  -9.688  0.00  0.00    +0.000 A 
ATOM     34  C   UNL     1       5.474  -3.397 -10.164  0.00  0.00    +0.000 A 
ATOM     35  C   UNL     1       6.006  -4.334  -9.297  0.00  0.00    +0.000 A 
ATOM     36  C   UNL     1       5.676  -4.300  -7.955  0.00  0.00    +0.004 A 
ENDBRANCH  30  31
ENDBRANCH   1  30
TORSDOF 7
