REMARK  Name = ZINC14976610
REMARK  9 active torsions:
REMARK  status: ('A' for Active; 'I' for Inactive)
REMARK    1  A    between atoms: C_1  and  C_2
REMARK    2  A    between atoms: C_7  and  N_8
REMARK    3  A    between atoms: C_9  and  C_11
REMARK    4  A    between atoms: C_11  and  O_12
REMARK    5  A    between atoms: O_12  and  C_13
REMARK    6  A    between atoms: C_16  and  C_27
REMARK    7  A    between atoms: C_18  and  C_19
REMARK    8  A    between atoms: C_19  and  N_67
REMARK    9  A    between atoms: C_23  and  C_26
REMARK                            x       y       z     vdW  Elec       q    Type
REMARK                         _______ _______ _______ _____ _____    ______ ____
ROOT
ATOM      1  C   UNL     1       4.808   1.154   0.175  0.00  0.00    +0.123 A 
ATOM      2  C   UNL     1       4.944  -0.224   0.272  0.00  0.00    +0.046 A 
ATOM      3  C   UNL     1       6.199  -0.790   0.356  0.00  0.00    +0.012 A 
ATOM      4  C   UNL     1       7.331   0.024   0.343  0.00  0.00    -0.017 A 
ATOM      5  C   UNL     1       7.191   1.407   0.246  0.00  0.00    +0.013 A 
ATOM      6  C   UNL     1       5.933   1.966   0.156  0.00  0.00    -0.022 A 
ENDROOT
BRANCH   4   7
ATOM      7  C   UNL     1       8.682  -0.582   0.434  0.00  0.00    -0.014 A 
ATOM      8  C   UNL     1       9.814   0.231   0.421  0.00  0.00    +0.012 A 
ATOM      9  C   UNL     1      11.070  -0.333   0.505  0.00  0.00    +0.050 A 
ATOM     10  C   UNL     1      11.212  -1.709   0.603  0.00  0.00    +0.166 A 
ATOM     11  C   UNL     1      10.084  -2.527   0.616  0.00  0.00    +0.167 A 
ATOM     12  C   UNL     1       8.822  -1.965   0.538  0.00  0.00    +0.058 A 
ATOM     13  O   UNL     1      10.488  -3.827   0.718  0.00  0.00    -0.453 OA
ATOM     14  C   UNL     1      11.851  -3.770   1.178  0.00  0.00    +0.466 C 
ATOM     15  O   UNL     1      12.323  -2.498   0.696  0.00  0.00    -0.453 OA
ENDBRANCH   4   7
BRANCH   1  16
ATOM     16  O   UNL     1       3.570   1.709   0.091  0.00  0.00    -0.483 OA
BRANCH  16  17
ATOM     17  C   UNL     1       2.456   0.814   0.110  0.00  0.00    +0.324 C 
BRANCH  17  19
ATOM     18  N   UNL     1      -0.011   0.966   0.007  0.00  0.00    -0.282 N 
ATOM     19  C   UNL     1       1.176   1.604   0.009  0.00  0.00    +0.255 C 
ATOM     20  O   UNL     1       1.214   2.814  -0.071  0.00  0.00    -0.272 OA
ATOM     21  H   UNL     1      -0.041  -0.004  -0.012  0.00  0.00    +0.155 HD
BRANCH  18  28
ATOM     22  C   UNL     1      -2.356  -0.241  -1.059  0.00  0.00    +0.046 C 
ATOM     23  C   UNL     1      -2.369   1.151  -0.482  0.00  0.00    -0.027 A 
ATOM     24  C   UNL     1      -3.544   1.877  -0.456  0.00  0.00    +0.043 A 
ATOM     25  C   UNL     1      -3.555   3.158   0.069  0.00  0.00    +0.124 A 
ATOM     26  C   UNL     1      -2.391   3.712   0.573  0.00  0.00    +0.040 A 
ATOM     27  C   UNL     1      -1.215   2.988   0.553  0.00  0.00    +0.026 A 
ATOM     28  C   UNL     1      -1.202   1.702   0.028  0.00  0.00    +0.037 A 
ATOM     29  F   UNL     1      -4.704   3.869   0.089  0.00  0.00    -0.205 F 
ENDBRANCH  18  28
ENDBRANCH  17  19
ENDBRANCH  16  17
ENDBRANCH   1  16
BRANCH   6  30
ATOM     30  C   UNL     1       5.781   3.461   0.045  0.00  0.00    -0.039 C 
BRANCH  30  37
ATOM     31  C   UNL     1       4.122   3.560   1.805  0.00  0.00    -0.078 C 
ATOM     32  C   UNL     1       3.868   4.040   3.236  0.00  0.00    -0.018 C 
ATOM     33  C   UNL     1       3.938   5.569   3.276  0.00  0.00    -0.001 C 
ATOM     34  C   UNL     1       5.308   6.023   2.764  0.00  0.00    -0.031 C 
ATOM     35  C   UNL     1       5.520   5.486   1.347  0.00  0.00    -0.075 C 
ATOM     36  C   UNL     1       5.366   7.552   2.745  0.00  0.00    +0.005 C 
ATOM     37  N   UNL     1       5.465   4.008   1.380  0.00  0.00    +0.383 N 
ATOM     38  H   UNL     1       6.160   3.665   2.054  0.00  0.00    -0.081 HD
ENDBRANCH  30  37
ENDBRANCH   6  30
TORSDOF 7
