REMARK  Name = ZINC13064430
REMARK  9 active torsions:
REMARK  status: ('A' for Active; 'I' for Inactive)
REMARK    1  A    between atoms: C_1  and  C_2
REMARK    2  A    between atoms: C_2  and  C_3
REMARK    3  A    between atoms: C_3  and  C_5
REMARK    4  A    between atoms: C_3  and  N_72
REMARK    5  A    between atoms: N_9  and  C_10
REMARK    6  A    between atoms: C_10  and  C_11
REMARK    7  A    between atoms: C_17  and  C_18
REMARK    8  A    between atoms: C_17  and  N_72
REMARK    9  A    between atoms: C_34  and  N_72
REMARK                            x       y       z     vdW  Elec       q    Type
REMARK                         _______ _______ _______ _____ _____    ______ ____
ROOT
ATOM      1  N   UNL     1       4.986   2.532  -2.386  0.00  0.00    +0.391 N 
ATOM      2  H   UNL     1       4.804   2.871  -3.338  0.00  0.00    -0.080 HD
ENDROOT
BRANCH   1   3
ATOM      3  C   UNL     1       5.308   3.685  -1.519  0.00  0.00    -0.067 C 
ATOM      4  C   UNL     1       4.025   4.462  -1.218  0.00  0.00    -0.015 C 
ATOM      5  C   UNL     1       4.355   5.673  -0.343  0.00  0.00    -0.002 C 
ATOM      6  C   UNL     1       5.340   6.581  -1.080  0.00  0.00    -0.000 C 
ATOM      7  C   UNL     1       6.624   5.804  -1.381  0.00  0.00    -0.002 C 
ATOM      8  C   UNL     1       6.293   4.594  -2.256  0.00  0.00    -0.015 C 
ENDBRANCH   1   3
BRANCH   1   9
ATOM      9  C   UNL     1       3.779   1.843  -1.883  0.00  0.00    +0.003 C 
BRANCH   9  10
ATOM     10  C   UNL     1       3.205   1.001  -2.994  0.00  0.00    +0.138 A 
ATOM     11  N   UNL     1       3.825   0.058  -3.660  0.00  0.00    -0.115 NA
ATOM     12  N   UNL     1       3.003  -0.423  -4.528  0.00  0.00    -0.023 NA
ATOM     13  N   UNL     1       1.873   0.186  -4.428  0.00  0.00    -0.044 NA
ATOM     14  N   UNL     1       1.957   1.068  -3.491  0.00  0.00    -0.226 N 
BRANCH  14  15
ATOM     15  C   UNL     1       0.894   1.977  -3.054  0.00  0.00    +0.182 C 
BRANCH  15  16
ATOM     16  C   UNL     1       0.094   1.325  -1.957  0.00  0.00    -0.026 A 
ATOM     17  C   UNL     1       0.465   1.495  -0.636  0.00  0.00    +0.005 A 
ATOM     18  C   UNL     1      -0.269   0.896   0.371  0.00  0.00    +0.000 A 
ATOM     19  C   UNL     1      -1.371   0.123   0.057  0.00  0.00    +0.000 A 
ATOM     20  C   UNL     1      -1.745  -0.043  -1.264  0.00  0.00    +0.000 A 
ATOM     21  C   UNL     1      -1.011   0.556  -2.271  0.00  0.00    +0.005 A 
ENDBRANCH  15  16
ENDBRANCH  14  15
ENDBRANCH   9  10
BRANCH   9  23
ATOM     22  C   UNL     1       4.535   1.819   0.498  0.00  0.00    +0.002 C 
ATOM     23  C   UNL     1       4.130   0.948  -0.693  0.00  0.00    -0.011 C 
ENDBRANCH   9  23
ENDBRANCH   1   9
BRANCH   1  24
ATOM     24  C   UNL     1       6.126   1.592  -2.421  0.00  0.00    -0.036 C 
BRANCH  24  25
ATOM     25  C   UNL     1       7.213   2.183  -3.281  0.00  0.00    +0.001 A 
ATOM     26  C   UNL     1       8.447   2.398  -2.757  0.00  0.00    +0.017 A 
ATOM     27  C   UNL     1       9.483   2.968  -3.619  0.00  0.00    +0.002 A 
ATOM     28  C   UNL     1      10.774   3.208  -3.134  0.00  0.00    +0.059 A 
ATOM     29  C   UNL     1      11.729   3.749  -3.969  0.00  0.00    +0.163 A 
ATOM     30  C   UNL     1      11.411   4.059  -5.295  0.00  0.00    +0.164 A 
ATOM     31  C   UNL     1      10.137   3.826  -5.782  0.00  0.00    +0.075 A 
ATOM     32  C   UNL     1       9.163   3.282  -4.954  0.00  0.00    +0.053 A 
ATOM     33  N   UNL     1       7.887   3.043  -5.423  0.00  0.00    -0.322 N 
ATOM     34  H   UNL     1       7.668   3.260  -6.342  0.00  0.00    +0.169 HD
ATOM     35  C   UNL     1       6.944   2.514  -4.624  0.00  0.00    +0.251 A 
ATOM     36  O   UNL     1       5.828   2.317  -5.072  0.00  0.00    -0.268 OA
ATOM     37  O   UNL     1      12.349   4.589  -6.126  0.00  0.00    -0.485 OA
ATOM     38  C   UNL     1      13.508   5.158  -5.509  0.00  0.00    +0.270 C 
ATOM     39  C   UNL     1      14.020   4.176  -4.447  0.00  0.00    +0.270 C 
ATOM     40  O   UNL     1      12.980   3.979  -3.482  0.00  0.00    -0.485 OA
ENDBRANCH  24  25
ENDBRANCH   1  24
TORSDOF 8
