REMARK  Name = ZINC15679589
REMARK  8 active torsions:
REMARK  status: ('A' for Active; 'I' for Inactive)
REMARK    1  A    between atoms: C_1  and  C_2
REMARK    2  A    between atoms: C_7  and  C_8
REMARK    3  A    between atoms: C_8  and  N_9
REMARK    4  A    between atoms: C_15  and  C_30
REMARK    5  A    between atoms: C_18  and  C_19
REMARK    6  A    between atoms: C_18  and  C_20
REMARK    7  A    between atoms: N_22  and  C_23
REMARK    8  A    between atoms: C_26  and  C_29
REMARK                            x       y       z     vdW  Elec       q    Type
REMARK                         _______ _______ _______ _____ _____    ______ ____
ROOT
ATOM      1  N   UNL     1       2.671   7.694  -1.025  0.00  0.00    -0.276 N 
ATOM      2  C   UNL     1       3.651   6.765  -0.937  0.00  0.00    +0.264 C 
ATOM      3  O   UNL     1       4.808   7.025  -1.213  0.00  0.00    -0.268 OA
ATOM      4  C   UNL     1       3.245   5.426  -0.492  0.00  0.00    +0.105 A 
ATOM      5  C   UNL     1       3.989   4.339  -0.131  0.00  0.00    +0.033 A 
ATOM      6  C   UNL     1       3.096   3.320   0.210  0.00  0.00    +0.028 A 
ATOM      7  C   UNL     1       1.814   3.808   0.041  0.00  0.00    +0.050 A 
ATOM      8  N   UNL     1       1.901   5.084  -0.403  0.00  0.00    -0.334 N 
ATOM      9  C   UNL     1       0.842   6.035  -0.754  0.00  0.00    +0.157 C 
ATOM     10  C   UNL     1       1.335   7.457  -0.490  0.00  0.00    +0.129 C 
ATOM     11  C   UNL     1       0.361   8.444  -1.137  0.00  0.00    +0.043 C 
ENDROOT
BRANCH   7  12
ATOM     12  C   UNL     1       0.563   3.064   0.294  0.00  0.00    -0.002 A 
ATOM     13  C   UNL     1       0.581   1.910   1.079  0.00  0.00    +0.010 A 
ATOM     14  C   UNL     1      -0.591   1.220   1.312  0.00  0.00    +0.001 A 
ATOM     15  C   UNL     1      -1.781   1.666   0.765  0.00  0.00    +0.000 A 
ATOM     16  C   UNL     1      -1.806   2.812  -0.010  0.00  0.00    +0.001 A 
ATOM     17  C   UNL     1      -0.642   3.511  -0.251  0.00  0.00    +0.010 A 
ENDBRANCH   7  12
BRANCH  10  18
ATOM     18  C   UNL     1       1.355   7.698   0.997  0.00  0.00    +0.238 C 
ATOM     19  O   UNL     1       0.482   7.234   1.699  0.00  0.00    -0.273 OA
ATOM     20  N   UNL     1       2.345   8.429   1.548  0.00  0.00    -0.311 N 
ATOM     21  H   UNL     1       2.994   8.873   0.980  0.00  0.00    +0.149 HD
BRANCH  20  22
ATOM     22  C   UNL     1       2.441   8.553   3.005  0.00  0.00    +0.073 C 
ATOM     23  C   UNL     1       1.495   9.655   3.486  0.00  0.00    +0.022 C 
ATOM     24  C   UNL     1       1.595   9.784   5.007  0.00  0.00    +0.005 C 
ATOM     25  C   UNL     1       3.031  10.140   5.395  0.00  0.00    -0.014 C 
ATOM     26  C   UNL     1       3.977   9.038   4.914  0.00  0.00    +0.005 C 
ATOM     27  C   UNL     1       3.877   8.908   3.393  0.00  0.00    +0.022 C 
ATOM     28  C   UNL     1       3.131  10.269   6.917  0.00  0.00    +0.007 C 
ENDBRANCH  20  22
ENDBRANCH  10  18
BRANCH   1  29
ATOM     29  C   UNL     1       2.960   8.975  -1.675  0.00  0.00    +0.144 C 
BRANCH  29  36
ATOM     30  C   UNL     1       5.394   9.473  -0.201  0.00  0.00    +0.044 C 
ATOM     31  C   UNL     1       4.167  10.305   0.068  0.00  0.00    -0.046 A 
ATOM     32  C   UNL     1       4.207  11.310   1.017  0.00  0.00    +0.003 A 
ATOM     33  C   UNL     1       3.080  12.070   1.266  0.00  0.00    +0.000 A 
ATOM     34  C   UNL     1       1.914  11.828   0.564  0.00  0.00    +0.000 A 
ATOM     35  C   UNL     1       1.875  10.827  -0.387  0.00  0.00    +0.005 A 
ATOM     36  C   UNL     1       3.003  10.067  -0.638  0.00  0.00    -0.027 A 
ENDBRANCH  29  36
ENDBRANCH   1  29
TORSDOF 5
