REMARK  Name = ZINC16690069
REMARK  10 active torsions:
REMARK  status: ('A' for Active; 'I' for Inactive)
REMARK    1  A    between atoms: C_1  and  C_2
REMARK    2  A    between atoms: C_2  and  C_3
REMARK    3  A    between atoms: C_8  and  O_31
REMARK    4  A    between atoms: C_9  and  C_11
REMARK    5  A    between atoms: C_11  and  C_13
REMARK    6  A    between atoms: C_11  and  N_55
REMARK    7  A    between atoms: C_23  and  C_26
REMARK    8  A    between atoms: C_26  and  O_28
REMARK    9  A    between atoms: O_28  and  C_29
REMARK   10  A    between atoms: C_29  and  C_30
REMARK                            x       y       z     vdW  Elec       q    Type
REMARK                         _______ _______ _______ _____ _____    ______ ____
ROOT
ATOM      1  C   UNL     1       0.059   1.209   2.425  0.00  0.00    +0.008 C 
ENDROOT
BRANCH   1   8
ATOM      2  C   UNL     1      -2.530   2.829   7.545  0.00  0.00    +0.152 A 
ATOM      3  N   UNL     1      -2.470   3.734   6.571  0.00  0.00    -0.205 NA
ATOM      4  C   UNL     1      -1.875   3.212   5.533  0.00  0.00    +0.199 A 
ATOM      5  N   UNL     1      -1.525   1.925   5.808  0.00  0.00    -0.173 N 
ATOM      6  N   UNL     1      -1.975   1.720   7.138  0.00  0.00    -0.147 NA
ATOM      7  C   UNL     1      -0.885   1.221   4.816  0.00  0.00    +0.225 A 
ATOM      8  C   UNL     1      -0.624   1.793   3.634  0.00  0.00    +0.045 A 
ATOM      9  S   UNL     1      -1.292   3.433   3.870  0.00  0.00    -0.050 S 
BRANCH   2  11
ATOM     10  C   UNL     1      -2.076   3.580   9.865  0.00  0.00    +0.012 C 
ATOM     11  C   UNL     1      -3.143   3.051   8.905  0.00  0.00    +0.075 C 
ENDBRANCH   2  11
BRANCH   7  12
ATOM     12  O   UNL     1      -0.513  -0.068   5.037  0.00  0.00    -0.492 OA
ATOM     13  H   UNL     1       0.375  -0.163   5.408  0.00  0.00    +0.294 HD
ENDBRANCH   7  12
ENDBRANCH   1   8
BRANCH   1  14
ATOM     14  C   UNL     1       1.456   1.764   2.320  0.00  0.00    -0.021 A 
ATOM     15  C   UNL     1       1.704   2.863   1.519  0.00  0.00    +0.005 A 
ATOM     16  C   UNL     1       2.985   3.373   1.423  0.00  0.00    +0.000 A 
ATOM     17  C   UNL     1       4.020   2.785   2.127  0.00  0.00    +0.003 A 
ATOM     18  C   UNL     1       3.774   1.686   2.928  0.00  0.00    +0.038 A 
ATOM     19  C   UNL     1       2.490   1.177   3.029  0.00  0.00    +0.125 A 
ATOM     20  F   UNL     1       2.247   0.106   3.816  0.00  0.00    -0.205 F 
ENDBRANCH   1  14
BRANCH   1  26
ATOM     21  C   UNL     1      -0.013   1.086   0.008  0.00  0.00    -0.077 C 
ATOM     22  C   UNL     1      -0.752   1.593  -1.232  0.00  0.00    -0.018 C 
ATOM     23  C   UNL     1      -2.194   1.077  -1.207  0.00  0.00    +0.011 C 
ATOM     24  C   UNL     1      -2.872   1.544   0.085  0.00  0.00    +0.081 C 
ATOM     25  C   UNL     1      -2.071   1.038   1.287  0.00  0.00    -0.063 C 
ATOM     26  N   UNL     1      -0.701   1.589   1.216  0.00  0.00    +0.388 N 
ATOM     27  H   UNL     1      -0.756   2.613   1.166  0.00  0.00    -0.080 HD
BRANCH  24  28
ATOM     28  C   UNL     1      -4.273   0.991   0.146  0.00  0.00    +0.308 C 
ATOM     29  O   UNL     1      -4.598   0.270   1.059  0.00  0.00    -0.251 OA
BRANCH  28  30
ATOM     30  O   UNL     1      -5.158   1.300  -0.815  0.00  0.00    -0.465 OA
BRANCH  30  31
ATOM     31  C   UNL     1      -6.489   0.733  -0.691  0.00  0.00    +0.229 C 
ATOM     32  C   UNL     1      -7.351   1.193  -1.869  0.00  0.00    +0.048 C 
ENDBRANCH  30  31
ENDBRANCH  28  30
ENDBRANCH  24  28
ENDBRANCH   1  26
TORSDOF 8
