REMARK  Name = ZINC38827305
REMARK  11 active torsions:
REMARK  status: ('A' for Active; 'I' for Inactive)
REMARK    1  A    between atoms: C_1  and  O_2
REMARK    2  A    between atoms: O_2  and  C_3
REMARK    3  A    between atoms: C_6  and  C_11
REMARK    4  A    between atoms: C_8  and  O_9
REMARK    5  A    between atoms: O_9  and  C_10
REMARK    6  A    between atoms: C_11  and  C_12
REMARK    7  A    between atoms: C_12  and  N_13
REMARK    8  A    between atoms: C_17  and  C_22
REMARK    9  A    between atoms: C_18  and  C_20
REMARK   10  A    between atoms: C_24  and  C_29
REMARK   11  A    between atoms: C_26  and  N_28
REMARK                            x       y       z     vdW  Elec       q    Type
REMARK                         _______ _______ _______ _____ _____    ______ ____
ROOT
ATOM      1  N   UNL     1       2.247  -3.518   6.749  0.00  0.00    -0.327 N 
ATOM      2  C   UNL     1       2.430  -4.875   6.959  0.00  0.00    +0.144 A 
ATOM      3  C   UNL     1       3.246  -5.119   8.066  0.00  0.00    +0.093 A 
ATOM      4  N   UNL     1       3.539  -6.350   8.430  0.00  0.00    -0.234 NA
ATOM      5  C   UNL     1       3.058  -7.384   7.742  0.00  0.00    +0.176 A 
ATOM      6  C   UNL     1       2.235  -7.150   6.626  0.00  0.00    +0.178 A 
ATOM      7  N   UNL     1       1.945  -5.905   6.267  0.00  0.00    -0.217 NA
ATOM      8  C   UNL     1       3.652  -3.788   8.660  0.00  0.00    +0.109 C 
ATOM      9  C   UNL     1       2.975  -2.744   7.756  0.00  0.00    +0.031 C 
ENDROOT
BRANCH   8  10
ATOM     10  C   UNL     1       3.155  -3.670  10.077  0.00  0.00    +0.119 A 
ATOM     11  N   UNL     1       3.827  -2.855  10.931  0.00  0.00    -0.310 N 
ATOM     12  H   UNL     1       4.606  -2.368  10.617  0.00  0.00    +0.170 HD
ATOM     13  C   UNL     1       3.420  -2.714  12.214  0.00  0.00    +0.259 A 
ATOM     14  O   UNL     1       4.013  -1.986  12.989  0.00  0.00    -0.267 OA
ATOM     15  C   UNL     1       2.235  -3.475  12.635  0.00  0.00    +0.065 A 
ATOM     16  C   UNL     1       1.734  -3.401  13.934  0.00  0.00    +0.015 A 
ATOM     17  C   UNL     1       0.620  -4.136  14.275  0.00  0.00    +0.001 A 
ATOM     18  C   UNL     1      -0.006  -4.946  13.336  0.00  0.00    +0.002 A 
ATOM     19  C   UNL     1       0.473  -5.033  12.049  0.00  0.00    +0.028 A 
ATOM     20  C   UNL     1       1.601  -4.298  11.678  0.00  0.00    +0.078 A 
ATOM     21  N   UNL     1       2.102  -4.350  10.419  0.00  0.00    -0.233 NA
ENDBRANCH   8  10
BRANCH   9  22
ATOM     22  N   UNL     1       2.042  -1.925   8.541  0.00  0.00    +0.391 N 
ATOM     23  H   UNL     1       1.325  -2.515   8.934  0.00  0.00    -0.087 HD
ATOM     24  H   UNL     1       2.544  -1.464   9.286  0.00  0.00    -0.087 HD
ATOM     25  H   UNL     1       1.618  -1.232   7.943  0.00  0.00    -0.087 HD
ENDBRANCH   9  22
BRANCH   6  26
ATOM     26  C   UNL     1       1.710  -8.253   5.878  0.00  0.00    +0.122 C 
ATOM     27  N   UNL     1       1.294  -9.128   5.285  0.00  0.00    -0.189 NA
ENDBRANCH   6  26
BRANCH   5  28
ATOM     28  C   UNL     1       3.376  -8.723   8.136  0.00  0.00    +0.122 C 
ATOM     29  N   UNL     1       3.628  -9.786   8.449  0.00  0.00    -0.189 NA
ENDBRANCH   5  28
BRANCH   1  30
ATOM     30  C   UNL     1       1.444  -2.940   5.669  0.00  0.00    +0.109 C 
BRANCH  30  31
ATOM     31  C   UNL     1       2.326  -2.720   4.438  0.00  0.00    +0.054 C 
BRANCH  31  35
ATOM     32  C   UNL     1      -0.016  -1.026   1.287  0.00  0.00    +0.161 A 
ATOM     33  C   UNL     1       0.635  -0.201   2.191  0.00  0.00    +0.049 A 
ATOM     34  C   UNL     1       1.391  -0.752   3.208  0.00  0.00    +0.007 A 
ATOM     35  C   UNL     1       1.500  -2.125   3.327  0.00  0.00    -0.042 A 
ATOM     36  C   UNL     1       0.854  -2.953   2.429  0.00  0.00    +0.053 A 
ATOM     37  C   UNL     1       0.089  -2.408   1.410  0.00  0.00    +0.162 A 
BRANCH  32  39
ATOM     38  C   UNL     1      -0.824   0.941   0.221  0.00  0.00    +0.277 C 
ATOM     39  O   UNL     1      -0.761  -0.485   0.286  0.00  0.00    -0.491 OA
ENDBRANCH  32  39
BRANCH  37  40
ATOM     40  O   UNL     1      -0.552  -3.221   0.529  0.00  0.00    -0.491 OA
ATOM     41  C   UNL     1      -0.400  -4.629   0.717  0.00  0.00    +0.277 C 
ENDBRANCH  37  40
ENDBRANCH  31  35
ENDBRANCH  30  31
ENDBRANCH   1  30
TORSDOF 9
