REMARK  Name = ZINC47383609
REMARK  7 active torsions:
REMARK  status: ('A' for Active; 'I' for Inactive)
REMARK    1  A    between atoms: C_1  and  C_2
REMARK    2  A    between atoms: C_2  and  C_3
REMARK    3  A    between atoms: C_2  and  N_4
REMARK    4  A    between atoms: N_7  and  C_8
REMARK    5  A    between atoms: C_13  and  N_14
REMARK    6  A    between atoms: N_14  and  S_15
REMARK    7  A    between atoms: S_15  and  C_18
REMARK                            x       y       z     vdW  Elec       q    Type
REMARK                         _______ _______ _______ _____ _____    ______ ____
ROOT
ATOM      1  C   UNL     1       0.105  -1.067   4.732  0.00  0.00    +0.057 A 
ATOM      2  C   UNL     1      -1.244  -0.777   4.869  0.00  0.00    +0.025 A 
ATOM      3  C   UNL     1      -1.866  -0.942   6.093  0.00  0.00    +0.002 A 
ATOM      4  C   UNL     1      -1.147  -1.395   7.183  0.00  0.00    +0.002 A 
ATOM      5  C   UNL     1       0.198  -1.686   7.056  0.00  0.00    +0.026 A 
ATOM      6  C   UNL     1       0.829  -1.530   5.830  0.00  0.00    +0.069 A 
ENDROOT
BRANCH   1  10
ATOM      7  N   UNL     1       1.027   0.316   1.521  0.00  0.00    -0.297 N 
ATOM      8  C   UNL     1       0.361   0.101   2.673  0.00  0.00    +0.304 C 
ATOM      9  O   UNL     1      -0.579   0.811   2.972  0.00  0.00    -0.253 OA
ATOM     10  N   UNL     1       0.738  -0.901   3.492  0.00  0.00    -0.268 N 
ATOM     11  H   UNL     1       1.778  -0.251   1.282  0.00  0.00    +0.151 HD
ATOM     12  H   UNL     1       1.446  -1.506   3.224  0.00  0.00    +0.156 HD
BRANCH   7  14
ATOM     13  C   UNL     1       1.277   2.709   1.083  0.00  0.00    +0.027 C 
ATOM     14  C   UNL     1       0.618   1.404   0.630  0.00  0.00    +0.068 C 
ATOM     15  C   UNL     1       1.054   1.083  -0.801  0.00  0.00    +0.027 C 
ENDBRANCH   7  14
ENDBRANCH   1  10
BRANCH   6  16
ATOM     16  N   UNL     1       2.189  -1.830   5.698  0.00  0.00    -0.215 N 
ATOM     17  H   UNL     1       2.748  -1.300   5.108  0.00  0.00    +0.174 HD
BRANCH  16  18
ATOM     18  S   UNL     1       2.845  -3.091   6.548  0.00  0.00    +0.069 S 
ATOM     19  O   UNL     1       4.189  -3.225   6.104  0.00  0.00    -0.150 OA
ATOM     20  O   UNL     1       2.512  -2.877   7.913  0.00  0.00    -0.150 OA
BRANCH  18  21
ATOM     21  C   UNL     1       2.001  -4.553   6.046  0.00  0.00    +0.087 C 
ATOM     22  C   UNL     1       1.104  -5.096   6.855  0.00  0.00    +0.032 C 
ATOM     23  C   UNL     1       0.418  -6.342   6.458  0.00  0.00    -0.020 A 
ATOM     24  C   UNL     1      -0.751  -6.749   7.097  0.00  0.00    +0.008 A 
ATOM     25  C   UNL     1      -1.380  -7.911   6.695  0.00  0.00    +0.001 A 
ATOM     26  C   UNL     1      -0.852  -8.666   5.662  0.00  0.00    +0.000 A 
ATOM     27  C   UNL     1       0.313  -8.269   5.029  0.00  0.00    +0.004 A 
ATOM     28  C   UNL     1       0.953  -7.115   5.427  0.00  0.00    -0.040 A 
ATOM     29  C   UNL     1       2.242  -6.687   4.775  0.00  0.00    +0.042 C 
ATOM     30  C   UNL     1       2.307  -5.160   4.705  0.00  0.00    +0.061 C 
ENDBRANCH  18  21
ENDBRANCH  16  18
ENDBRANCH   6  16
TORSDOF 5
