REMARK  Name = ZINC24796851
REMARK  11 active torsions:
REMARK  status: ('A' for Active; 'I' for Inactive)
REMARK    1  A    between atoms: C_1  and  C_2
REMARK    2  A    between atoms: C_2  and  C_3
REMARK    3  A    between atoms: C_2  and  C_4
REMARK    4  A    between atoms: C_7  and  C_13
REMARK    5  A    between atoms: C_8  and  C_10
REMARK    6  A    between atoms: C_10  and  C_11
REMARK    7  A    between atoms: C_10  and  C_12
REMARK    8  A    between atoms: C_13  and  C_15
REMARK    9  A    between atoms: C_15  and  N_16
REMARK   10  A    between atoms: C_19  and  C_23
REMARK   11  A    between atoms: C_19  and  C_24
REMARK                            x       y       z     vdW  Elec       q    Type
REMARK                         _______ _______ _______ _____ _____    ______ ____
ROOT
ATOM      1  N   UNL     1       2.099  -4.374   0.069  0.00  0.00    -0.216 N 
ATOM      2  C   UNL     1       1.890  -5.110   1.178  0.00  0.00    +0.251 C 
ATOM      3  O   UNL     1       1.918  -4.725   2.328  0.00  0.00    -0.272 OA
ATOM      4  C   UNL     1       1.611  -6.517   0.690  0.00  0.00    +0.135 C 
ATOM      5  N   UNL     1       1.712  -6.402  -0.775  0.00  0.00    -0.281 N 
ATOM      6  C   UNL     1       2.000  -5.115  -1.041  0.00  0.00    +0.310 C 
ATOM      7  O   UNL     1       2.152  -4.675  -2.163  0.00  0.00    -0.252 OA
ATOM      8  C   UNL     1       2.662  -7.491   1.228  0.00  0.00    +0.047 C 
ATOM      9  H   UNL     1       1.556  -7.288  -1.408  0.00  0.00    +0.152 HD
ENDROOT
BRANCH   4  10
ATOM     10  C   UNL     1       0.227  -6.958   1.093  0.00  0.00    -0.012 A 
ATOM     11  C   UNL     1      -0.309  -6.535   2.296  0.00  0.00    +0.010 A 
ATOM     12  C   UNL     1      -1.577  -6.937   2.669  0.00  0.00    +0.050 A 
ATOM     13  C   UNL     1      -2.316  -7.767   1.838  0.00  0.00    +0.162 A 
ATOM     14  C   UNL     1      -1.778  -8.191   0.629  0.00  0.00    +0.162 A 
ATOM     15  C   UNL     1      -0.506  -7.779   0.258  0.00  0.00    +0.055 A 
ATOM     16  O   UNL     1      -2.487  -9.001  -0.203  0.00  0.00    -0.485 OA
ATOM     17  C   UNL     1      -3.605  -9.689   0.368  0.00  0.00    +0.270 C 
ATOM     18  C   UNL     1      -4.415  -8.684   1.198  0.00  0.00    +0.270 C 
ATOM     19  O   UNL     1      -3.562  -8.158   2.221  0.00  0.00    -0.485 OA
ENDBRANCH   4  10
BRANCH   1  20
ATOM     20  C   UNL     1       2.405  -2.941   0.076  0.00  0.00    +0.197 C 
BRANCH  20  21
ATOM     21  C   UNL     1       1.121  -2.154   0.007  0.00  0.00    +0.181 C 
ATOM     22  O   UNL     1       0.057  -2.732  -0.044  0.00  0.00    -0.290 OA
BRANCH  21  26
ATOM     23  C   UNL     1       1.233   2.086  -0.011  0.00  0.00    -0.044 A 
ATOM     24  C   UNL     1       0.982   1.399  -1.186  0.00  0.00    +0.004 A 
ATOM     25  C   UNL     1       0.945   0.021  -1.189  0.00  0.00    +0.012 A 
ATOM     26  C   UNL     1       1.160  -0.683   0.001  0.00  0.00    +0.022 A 
ATOM     27  C   UNL     1       1.413   0.018   1.184  0.00  0.00    -0.034 A 
ATOM     28  C   UNL     1       1.447   1.397   1.170  0.00  0.00    +0.008 A 
BRANCH  23  30
ATOM     29  C   UNL     1       2.370   4.071  -0.968  0.00  0.00    +0.012 C 
ATOM     30  C   UNL     1       1.271   3.593  -0.017  0.00  0.00    +0.013 C 
ATOM     31  C   UNL     1      -0.080   4.136  -0.485  0.00  0.00    +0.012 C 
ENDBRANCH  23  30
BRANCH  27  32
ATOM     32  C   UNL     1       1.647  -0.730   2.470  0.00  0.00    +0.014 C 
ATOM     33  C   UNL     1       3.055  -0.428   2.988  0.00  0.00    +0.012 C 
ATOM     34  C   UNL     1       0.616  -0.290   3.512  0.00  0.00    +0.012 C 
ENDBRANCH  27  32
ENDBRANCH  21  26
ENDBRANCH  20  21
ENDBRANCH   1  20
TORSDOF 6
