REMARK  Name = ZINC47152270
REMARK  10 active torsions:
REMARK  status: ('A' for Active; 'I' for Inactive)
REMARK    1  A    between atoms: C_3  and  N_32
REMARK    2  A    between atoms: C_6  and  C_7
REMARK    3  A    between atoms: N_11  and  C_15
REMARK    4  A    between atoms: C_15  and  C_16
REMARK    5  A    between atoms: C_16  and  C_17
REMARK    6  A    between atoms: C_17  and  C_18
REMARK    7  A    between atoms: C_18  and  C_19
REMARK    8  A    between atoms: C_19  and  C_20
REMARK    9  A    between atoms: N_22  and  C_23
REMARK   10  A    between atoms: C_26  and  C_29
REMARK                            x       y       z     vdW  Elec       q    Type
REMARK                         _______ _______ _______ _____ _____    ______ ____
ROOT
ATOM      1  C   UNL     1      -3.311  -5.100  -0.457  0.00  0.00    +0.115 C 
ENDROOT
BRANCH   1   6
ATOM      2  C   UNL     1      -1.833  -0.391   0.042  0.00  0.00    +0.028 C 
ATOM      3  C   UNL     1      -1.703  -1.734  -0.097  0.00  0.00    +0.077 C 
ATOM      4  C   UNL     1      -2.747  -2.775  -0.211  0.00  0.00    +0.258 C 
ATOM      5  O   UNL     1      -3.931  -2.498  -0.190  0.00  0.00    -0.269 OA
ATOM      6  N   UNL     1      -2.326  -4.022  -0.339  0.00  0.00    -0.255 N 
ATOM      7  C   UNL     1      -1.012  -4.324  -0.362  0.00  0.00    +0.121 C 
ATOM      8  S   UNL     1      -0.279  -5.863  -0.518  0.00  0.00    -0.027 S 
ATOM      9  S   UNL     1      -0.223  -2.731  -0.200  0.00  0.00    -0.061 S 
BRANCH   2  15
ATOM     10  C   UNL     1       0.576  -0.052  -0.480  0.00  0.00    +0.010 A 
ATOM     11  C   UNL     1       1.680   0.768  -0.573  0.00  0.00    +0.033 A 
ATOM     12  C   UNL     1       1.579   2.110  -0.251  0.00  0.00    +0.126 A 
ATOM     13  C   UNL     1       0.371   2.641   0.166  0.00  0.00    +0.033 A 
ATOM     14  C   UNL     1      -0.743   1.834   0.264  0.00  0.00    +0.010 A 
ATOM     15  C   UNL     1      -0.650   0.476  -0.059  0.00  0.00    -0.024 A 
BRANCH  12  16
ATOM     16  N   UNL     1       2.771   2.983  -0.352  0.00  0.00    +0.056 N 
ATOM     17  O   UNL     1       3.828   2.523  -0.716  0.00  0.00    -0.126 OA
ATOM     18  O   UNL     1       2.686   4.156  -0.072  0.00  0.00    -0.126 OA
ENDBRANCH  12  16
ENDBRANCH   2  15
ENDBRANCH   1   6
BRANCH   1  19
ATOM     19  C   UNL     1      -3.645  -5.326  -1.932  0.00  0.00    +0.019 C 
BRANCH  19  20
ATOM     20  C   UNL     1      -4.674  -6.452  -2.055  0.00  0.00    +0.002 C 
BRANCH  20  21
ATOM     21  C   UNL     1      -5.008  -6.679  -3.531  0.00  0.00    +0.009 C 
BRANCH  21  22
ATOM     22  C   UNL     1      -6.036  -7.805  -3.655  0.00  0.00    +0.096 C 
BRANCH  22  23
ATOM     23  C   UNL     1      -6.366  -8.028  -5.108  0.00  0.00    +0.217 C 
ATOM     24  O   UNL     1      -5.830  -7.352  -5.962  0.00  0.00    -0.275 OA
ATOM     25  N   UNL     1      -7.255  -8.977  -5.460  0.00  0.00    -0.285 N 
ATOM     26  H   UNL     1      -7.743  -9.462  -4.776  0.00  0.00    +0.155 HD
BRANCH  25  27
ATOM     27  C   UNL     1      -7.473  -9.263  -6.806  0.00  0.00    +0.033 A 
ATOM     28  C   UNL     1      -6.443  -9.097  -7.727  0.00  0.00    +0.024 A 
ATOM     29  C   UNL     1      -6.653  -9.377  -9.052  0.00  0.00    +0.017 A 
ATOM     30  C   UNL     1      -7.906  -9.832  -9.479  0.00  0.00    +0.063 A 
ATOM     31  C   UNL     1      -8.939  -9.998  -8.550  0.00  0.00    +0.017 A 
ATOM     32  C   UNL     1      -8.719  -9.720  -7.225  0.00  0.00    +0.024 A 
BRANCH  30  33
ATOM     33  C   UNL     1      -8.137 -10.133 -10.901  0.00  0.00    +0.387 C 
ATOM     34  O   UNL     1      -7.233  -9.987 -11.712  0.00  0.00    -0.241 OA
ATOM     35  O   UNL     1      -9.233 -10.530 -11.272  0.00  0.00    -0.241 OA
ENDBRANCH  30  33
ENDBRANCH  25  27
ENDBRANCH  22  23
ENDBRANCH  21  22
ENDBRANCH  20  21
ENDBRANCH  19  20
ENDBRANCH   1  19
TORSDOF 10
