REMARK  Name = ZINC01210063
REMARK  8 active torsions:
REMARK  status: ('A' for Active; 'I' for Inactive)
REMARK    1  A    between atoms: C_1  and  C_2
REMARK    2  A    between atoms: C_14  and  C_16
REMARK    3  A    between atoms: C_20  and  O_24
REMARK    4  A    between atoms: C_21  and  O_22
REMARK    5  A    between atoms: O_22  and  C_23
REMARK    6  A    between atoms: O_24  and  C_25
REMARK    7  A    between atoms: C_29  and  C_31
REMARK    8  A    between atoms: C_29  and  C_32
REMARK                            x       y       z     vdW  Elec       q    Type
REMARK                         _______ _______ _______ _____ _____    ______ ____
ROOT
ATOM      1  C   UNL     1       6.412   0.573  -2.417  0.00  0.00    +0.110 C 
ATOM      2  C   UNL     1       5.382  -0.300  -1.748  0.00  0.00    +0.218 C 
ATOM      3  O   UNL     1       5.157  -1.411  -2.178  0.00  0.00    -0.276 OA
ATOM      4  N   UNL     1       4.711   0.154  -0.671  0.00  0.00    -0.258 N 
ATOM      5  C   UNL     1       4.978   1.433  -0.185  0.00  0.00    +0.058 A 
ATOM      6  C   UNL     1       4.677   2.564  -0.929  0.00  0.00    +0.025 A 
ATOM      7  C   UNL     1       4.915   3.816  -0.392  0.00  0.00    +0.002 A 
ATOM      8  C   UNL     1       5.444   3.944   0.880  0.00  0.00    +0.002 A 
ATOM      9  C   UNL     1       5.763   2.818   1.619  0.00  0.00    +0.025 A 
ATOM     10  C   UNL     1       5.547   1.565   1.072  0.00  0.00    +0.053 A 
ATOM     11  N   UNL     1       5.914   0.394   1.727  0.00  0.00    -0.316 N 
ATOM     12  C   UNL     1       5.048  -0.571   2.130  0.00  0.00    +0.017 C 
ATOM     13  C   UNL     1       4.070  -1.093   1.380  0.00  0.00    +0.037 C 
ATOM     14  C   UNL     1       3.724  -0.695  -0.037  0.00  0.00    +0.150 C 
ATOM     15  C   UNL     1       3.246  -2.125   1.895  0.00  0.00    +0.163 C 
ATOM     16  O   UNL     1       2.359  -2.573   1.195  0.00  0.00    -0.292 OA
ATOM     17  C   UNL     1       3.428  -2.684   3.274  0.00  0.00    +0.086 C 
ATOM     18  C   UNL     1       4.898  -2.521   3.679  0.00  0.00    -0.023 C 
ATOM     19  C   UNL     1       5.250  -1.039   3.563  0.00  0.00    +0.058 C 
ATOM     20  C   UNL     1       5.788  -3.340   2.741  0.00  0.00    +0.011 C 
ATOM     21  C   UNL     1       5.094  -2.990   5.122  0.00  0.00    +0.011 C 
ATOM     22  H   UNL     1       6.857   0.257   1.908  0.00  0.00    +0.152 HD
ENDROOT
BRANCH  14  23
ATOM     23  C   UNL     1       2.405   0.035  -0.021  0.00  0.00    +0.023 A 
ATOM     24  C   UNL     1       2.005   0.715   1.115  0.00  0.00    +0.009 A 
ATOM     25  C   UNL     1       0.795   1.384   1.133  0.00  0.00    +0.004 A 
ATOM     26  C   UNL     1      -0.019   1.376   0.016  0.00  0.00    +0.049 A 
ATOM     27  C   UNL     1       0.376   0.697  -1.125  0.00  0.00    +0.162 A 
ATOM     28  C   UNL     1       1.593   0.023  -1.143  0.00  0.00    +0.167 A 
BRANCH  28  29
ATOM     29  O   UNL     1       1.986  -0.646  -2.261  0.00  0.00    -0.491 OA
ATOM     30  C   UNL     1       2.748   0.087  -3.221  0.00  0.00    +0.277 C 
ENDBRANCH  28  29
BRANCH  27  31
ATOM     31  O   UNL     1      -0.424   0.689  -2.225  0.00  0.00    -0.491 OA
ATOM     32  C   UNL     1      -1.659   1.402  -2.134  0.00  0.00    +0.277 C 
ENDBRANCH  27  31
ENDBRANCH  14  23
TORSDOF 3
