REMARK  Name = ZINC48795491
REMARK  4 active torsions:
REMARK  status: ('A' for Active; 'I' for Inactive)
REMARK    1  A    between atoms: C_1  and  C_2
REMARK    2  A    between atoms: C_2  and  C_3
REMARK    3  A    between atoms: C_2  and  C_4
REMARK    4  A    between atoms: C_14  and  C_16
REMARK                            x       y       z     vdW  Elec       q    Type
REMARK                         _______ _______ _______ _____ _____    ______ ____
ROOT
ATOM      1  C   UNL     1       0.690  -0.654   1.212  0.00  0.00    -0.044 A 
ATOM      2  C   UNL     1       1.916  -0.107   1.542  0.00  0.00    +0.006 A 
ATOM      3  C   UNL     1       2.613  -0.590   2.632  0.00  0.00    +0.024 A 
ATOM      4  C   UNL     1       2.081  -1.623   3.397  0.00  0.00    +0.040 A 
ATOM      5  C   UNL     1       0.850  -2.167   3.066  0.00  0.00    -0.026 A 
ATOM      6  C   UNL     1       0.157  -1.675   1.973  0.00  0.00    +0.009 A 
ATOM      7  C   UNL     1       0.239  -3.279   3.877  0.00  0.00    +0.038 C 
ATOM      8  C   UNL     1       1.313  -4.005   4.687  0.00  0.00    +0.024 C 
ATOM      9  C   UNL     1       2.129  -2.968   5.470  0.00  0.00    +0.114 C 
ATOM     10  N   UNL     1       2.806  -2.101   4.496  0.00  0.00    -0.266 N 
ATOM     11  C   UNL     1       4.103  -1.772   4.657  0.00  0.00    +0.271 C 
ATOM     12  O   UNL     1       4.687  -1.157   3.785  0.00  0.00    -0.268 OA
ENDROOT
BRANCH  11  13
ATOM     13  C   UNL     1       4.815  -2.157   5.892  0.00  0.00    +0.147 A 
ATOM     14  C   UNL     1       6.197  -2.000   6.151  0.00  0.00    +0.054 A 
ATOM     15  C   UNL     1       6.390  -2.490   7.398  0.00  0.00    +0.105 A 
ATOM     16  N   UNL     1       5.190  -2.913   7.851  0.00  0.00    -0.284 N 
ATOM     17  H   UNL     1       5.034  -3.310   8.722  0.00  0.00    +0.188 HD
ATOM     18  N   UNL     1       4.283  -2.707   6.965  0.00  0.00    -0.169 NA
ENDBRANCH  11  13
BRANCH   1  20
ATOM     19  C   UNL     1      -0.363   1.360   0.218  0.00  0.00    +0.012 C 
ATOM     20  C   UNL     1      -0.070  -0.129   0.021  0.00  0.00    +0.013 C 
ATOM     21  C   UNL     1       0.768  -0.320  -1.244  0.00  0.00    +0.012 C 
ENDBRANCH   1  20
TORSDOF 2
