REMARK  Name = ZINC34733657
REMARK  8 active torsions:
REMARK  status: ('A' for Active; 'I' for Inactive)
REMARK    1  A    between atoms: C_1  and  C_2
REMARK    2  A    between atoms: C_2  and  C_3
REMARK    3  A    between atoms: C_4  and  C_38
REMARK    4  A    between atoms: N_11  and  C_31
REMARK    5  A    between atoms: N_14  and  C_17
REMARK    6  A    between atoms: C_17  and  C_18
REMARK    7  A    between atoms: N_20  and  C_21
REMARK    8  A    between atoms: C_31  and  C_32
REMARK                            x       y       z     vdW  Elec       q    Type
REMARK                         _______ _______ _______ _____ _____    ______ ____
ROOT
ATOM      1  C   UNL     1      -1.439  -0.512  -0.008  0.00  0.00    -0.040 C 
ATOM      2  C   UNL     1      -2.116  -0.850  -1.090  0.00  0.00    -0.064 C 
ATOM      3  C   UNL     1      -3.484  -1.313  -0.642  0.00  0.00    +0.073 C 
ATOM      4  C   UNL     1      -3.465  -1.181   0.851  0.00  0.00    +0.004 A 
ATOM      5  C   UNL     1      -2.246  -0.711   1.229  0.00  0.00    +0.003 A 
ATOM      6  C   UNL     1      -2.042  -0.523   2.682  0.00  0.00    +0.078 A 
ATOM      7  C   UNL     1      -0.837  -0.027   3.377  0.00  0.00    +0.266 A 
ATOM      8  O   UNL     1       0.155   0.286   2.744  0.00  0.00    -0.267 OA
ATOM      9  N   UNL     1      -0.849   0.074   4.718  0.00  0.00    -0.256 N 
ATOM     10  C   UNL     1      -1.927  -0.264   5.445  0.00  0.00    +0.334 A 
ATOM     11  O   UNL     1      -1.888  -0.154   6.655  0.00  0.00    -0.246 OA
ATOM     12  N   UNL     1      -3.052  -0.720   4.859  0.00  0.00    -0.278 N 
ATOM     13  C   UNL     1      -3.119  -0.852   3.499  0.00  0.00    +0.098 A 
ATOM     14  S   UNL     1      -4.369  -1.385   2.361  0.00  0.00    -0.074 S 
ATOM     15  C   UNL     1      -1.617  -0.786  -2.511  0.00  0.00    +0.039 C 
ENDROOT
BRANCH   1  17
ATOM     16  C   UNL     1      -0.038   1.534  -0.006  0.00  0.00    +0.009 C 
ATOM     17  C   UNL     1      -0.023   0.004  -0.022  0.00  0.00    +0.032 C 
ENDBRANCH   1  17
BRANCH  12  18
ATOM     18  C   UNL     1      -4.208  -1.079   5.683  0.00  0.00    +0.223 C 
BRANCH  18  19
ATOM     19  C   UNL     1      -5.092   0.129   5.862  0.00  0.00    +0.237 C 
ATOM     20  O   UNL     1      -4.785   1.185   5.351  0.00  0.00    -0.274 OA
ATOM     21  N   UNL     1      -6.222   0.035   6.589  0.00  0.00    -0.283 N 
ATOM     22  H   UNL     1      -6.502  -0.824   6.943  0.00  0.00    +0.155 HD
BRANCH  21  23
ATOM     23  C   UNL     1      -6.991   1.175   6.834  0.00  0.00    +0.041 A 
ATOM     24  C   UNL     1      -7.093   2.163   5.880  0.00  0.00    +0.024 A 
ATOM     25  C   UNL     1      -7.857   3.303   6.114  0.00  0.00    +0.002 A 
ATOM     26  C   UNL     1      -8.524   3.473   7.288  0.00  0.00    +0.008 A 
ATOM     27  C   UNL     1      -8.447   2.488   8.288  0.00  0.00    -0.016 A 
ATOM     28  C   UNL     1      -7.676   1.321   8.059  0.00  0.00    +0.003 A 
ATOM     29  C   UNL     1      -7.604   0.337   9.057  0.00  0.00    +0.010 A 
ATOM     30  C   UNL     1      -8.277   0.512  10.227  0.00  0.00    +0.001 A 
ATOM     31  C   UNL     1      -9.040   1.656  10.451  0.00  0.00    +0.001 A 
ATOM     32  C   UNL     1      -9.124   2.637   9.511  0.00  0.00    +0.008 A 
ENDBRANCH  21  23
ENDBRANCH  18  19
ENDBRANCH  12  18
BRANCH   9  33
ATOM     33  C   UNL     1       0.347   0.565   5.406  0.00  0.00    +0.165 C 
BRANCH  33  34
ATOM     34  C   UNL     1       0.271   2.065   5.537  0.00  0.00    -0.028 A 
ATOM     35  C   UNL     1       0.787   2.873   4.541  0.00  0.00    +0.005 A 
ATOM     36  C   UNL     1       0.717   4.248   4.661  0.00  0.00    +0.000 A 
ATOM     37  C   UNL     1       0.131   4.815   5.777  0.00  0.00    +0.000 A 
ATOM     38  C   UNL     1      -0.386   4.007   6.773  0.00  0.00    +0.000 A 
ATOM     39  C   UNL     1      -0.320   2.632   6.650  0.00  0.00    +0.005 A 
ENDBRANCH  33  34
ENDBRANCH   9  33
TORSDOF 6
