REMARK  Name = ZINC04236465
REMARK  6 active torsions:
REMARK  status: ('A' for Active; 'I' for Inactive)
REMARK    1  A    between atoms: C_4  and  N_7
REMARK    2  A    between atoms: C_8  and  O_10
REMARK    3  A    between atoms: O_10  and  C_11
REMARK    4  A    between atoms: C_21  and  N_53
REMARK    5  A    between atoms: C_23  and  C_24
REMARK    6  A    between atoms: C_23  and  N_53
REMARK                            x       y       z     vdW  Elec       q    Type
REMARK                         _______ _______ _______ _____ _____    ______ ____
ROOT
ATOM      1  C   UNL     1      -5.747   0.830   4.440  0.00  0.00    +0.235 C 
ATOM      2  C   UNL     1      -4.577   0.806   5.455  0.00  0.00    +0.207 C 
ATOM      3  O   UNL     1      -3.473   0.233   4.738  0.00  0.00    -0.372 OA
ATOM      4  C   UNL     1      -3.629   0.459   3.334  0.00  0.00    +0.139 C 
ATOM      5  C   UNL     1      -4.999   1.161   3.122  0.00  0.00    +0.188 C 
ATOM      6  O   UNL     1      -4.694   2.571   3.119  0.00  0.00    -0.372 OA
ATOM      7  C   UNL     1      -3.451   2.701   2.394  0.00  0.00    +0.147 C 
ATOM      8  C   UNL     1      -2.596   1.504   2.863  0.00  0.00    -0.014 C 
ENDROOT
BRANCH   8   9
ATOM      9  N   UNL     1      -1.802   0.966   1.743  0.00  0.00    +0.384 N 
ATOM     10  H   UNL     1      -2.322   1.093   0.867  0.00  0.00    -0.085 HD
ATOM     11  H   UNL     1      -1.633  -0.035   1.898  0.00  0.00    -0.085 HD
BRANCH   9  12
ATOM     12  C   UNL     1      -0.508   1.668   1.648  0.00  0.00    -0.079 C 
BRANCH  12  13
ATOM     13  C   UNL     1       0.292   1.090   0.479  0.00  0.00    -0.028 C 
ATOM     14  C   UNL     1      -0.434   1.389  -0.834  0.00  0.00    +0.002 C 
ATOM     15  C   UNL     1       0.366   0.810  -2.003  0.00  0.00    +0.000 C 
ATOM     16  C   UNL     1       1.758   1.446  -2.032  0.00  0.00    +0.000 C 
ATOM     17  C   UNL     1       2.483   1.146  -0.719  0.00  0.00    +0.000 C 
ATOM     18  C   UNL     1       1.683   1.725   0.449  0.00  0.00    +0.002 C 
ENDBRANCH  12  13
ENDBRANCH   9  12
ENDBRANCH   8   9
BRANCH   1  19
ATOM     19  O   UNL     1      -6.705   1.870   4.772  0.00  0.00    -0.442 OA
BRANCH  19  21
ATOM     20  N   UNL     1      -8.657   2.440   5.916  0.00  0.00    -0.251 N 
ATOM     21  C   UNL     1      -7.732   1.522   5.570  0.00  0.00    +0.405 C 
ATOM     22  O   UNL     1      -7.826   0.382   5.978  0.00  0.00    -0.226 OA
ATOM     23  H   UNL     1      -8.541   3.367   5.655  0.00  0.00    +0.158 HD
BRANCH  20  27
ATOM     24  C   UNL     1     -12.009   1.295   8.110  0.00  0.00    +0.000 A 
ATOM     25  C   UNL     1     -11.458   2.550   8.296  0.00  0.00    +0.002 A 
ATOM     26  C   UNL     1     -10.347   2.932   7.571  0.00  0.00    +0.023 A 
ATOM     27  C   UNL     1      -9.783   2.056   6.653  0.00  0.00    +0.036 A 
ATOM     28  C   UNL     1     -10.342   0.799   6.463  0.00  0.00    +0.023 A 
ATOM     29  C   UNL     1     -11.450   0.420   7.196  0.00  0.00    +0.002 A 
ENDBRANCH  20  27
ENDBRANCH  19  21
ENDBRANCH   1  19
TORSDOF 6
