REMARK  Name = ZINC00340338
REMARK  2 active torsions:
REMARK  status: ('A' for Active; 'I' for Inactive)
REMARK    1  A    between atoms: C_5  and  C_13
REMARK    2  A    between atoms: C_9  and  C_11
REMARK                            x       y       z     vdW  Elec       q    Type
REMARK                         _______ _______ _______ _____ _____    ______ ____
ROOT
ATOM      1  C   UNL     1      -1.455  -2.537  -1.329  0.00  0.00    +0.001 C 
ATOM      2  C   UNL     1      -1.880  -1.048  -1.288  0.00  0.00    +0.005 C 
ATOM      3  C   UNL     1      -1.431  -0.563   0.106  0.00  0.00    +0.020 C 
ATOM      4  C   UNL     1       0.002  -0.004   0.002  0.00  0.00    +0.106 C 
ATOM      5  C   UNL     1       0.715  -0.543   1.267  0.00  0.00    +0.016 C 
ATOM      6  C   UNL     1       0.134  -1.972   1.404  0.00  0.00    +0.019 C 
ATOM      7  C   UNL     1      -1.347  -1.820   1.001  0.00  0.00    +0.076 C 
ATOM      8  C   UNL     1      -1.749  -3.016   0.114  0.00  0.00    +0.018 C 
ENDROOT
BRANCH   7   9
ATOM      9  C   UNL     1      -2.237  -1.711   2.212  0.00  0.00    +0.362 C 
ATOM     10  O   UNL     1      -2.904  -0.718   2.384  0.00  0.00    -0.246 OA
ATOM     11  O   UNL     1      -2.290  -2.717   3.099  0.00  0.00    -0.246 OA
ENDBRANCH   7   9
BRANCH   4  12
ATOM     12  C   UNL     1      -0.018   1.503   0.010  0.00  0.00    +0.359 C 
ATOM     13  O   UNL     1      -1.073   2.093   0.018  0.00  0.00    -0.246 OA
ATOM     14  O   UNL     1       1.135   2.190   0.003  0.00  0.00    -0.246 OA
ENDBRANCH   4  12
TORSDOF 2
