REMARK  Name = ZINC41006934
REMARK  7 active torsions:
REMARK  status: ('A' for Active; 'I' for Inactive)
REMARK    1  A    between atoms: C_1  and  C_2
REMARK    2  A    between atoms: C_2  and  O_36
REMARK    3  A    between atoms: C_6  and  C_27
REMARK    4  A    between atoms: C_8  and  C_21
REMARK    5  A    between atoms: C_10  and  C_12
REMARK    6  A    between atoms: N_14  and  C_15
REMARK    7  A    between atoms: N_29  and  C_30
REMARK                            x       y       z     vdW  Elec       q    Type
REMARK                         _______ _______ _______ _____ _____    ______ ____
ROOT
ATOM      1  C   UNL     1       1.719   2.450  -1.160  0.00  0.00    +0.042 C 
ATOM      2  C   UNL     1       1.062   1.073  -1.282  0.00  0.00    +0.082 C 
ATOM      3  C   UNL     1       1.958   0.151  -2.115  0.00  0.00    +0.110 C 
ATOM      4  C   UNL     1       1.356  -1.237  -2.110  0.00  0.00    +0.149 C 
ATOM      5  O   UNL     1       1.168  -1.834  -3.143  0.00  0.00    -0.296 OA
ATOM      6  C   UNL     1       0.996  -1.858  -0.778  0.00  0.00    +0.152 C 
ATOM      7  C   UNL     1       0.135  -0.863   0.006  0.00  0.00    +0.089 C 
ATOM      8  C   UNL     1       0.872   0.474   0.113  0.00  0.00    +0.118 C 
ENDROOT
BRANCH   7   9
ATOM      9  C   UNL     1      -1.176  -0.659  -0.709  0.00  0.00    +0.112 A 
ATOM     10  C   UNL     1      -2.335  -0.289  -0.136  0.00  0.00    +0.046 A 
ATOM     11  C   UNL     1      -3.298  -0.219  -1.169  0.00  0.00    +0.057 A 
ATOM     12  C   UNL     1      -2.669  -0.550  -2.312  0.00  0.00    +0.170 A 
ATOM     13  O   UNL     1      -1.383  -0.810  -2.028  0.00  0.00    -0.453 OA
ATOM     14 BR   UNL     1      -3.461  -0.629  -4.028  0.00  0.00    -0.008 Br
ENDBRANCH   7   9
BRANCH   8  15
ATOM     15  C   UNL     1       0.066   1.424   0.961  0.00  0.00    +0.224 C 
ATOM     16  O   UNL     1      -0.786   2.120   0.450  0.00  0.00    -0.275 OA
ATOM     17  N   UNL     1       0.293   1.500   2.287  0.00  0.00    -0.285 N 
ATOM     18  H   UNL     1       0.912   0.885   2.710  0.00  0.00    +0.155 HD
BRANCH  17  19
ATOM     19  C   UNL     1      -0.365   2.468   3.055  0.00  0.00    +0.033 A 
ATOM     20  C   UNL     1      -1.633   2.900   2.691  0.00  0.00    +0.023 A 
ATOM     21  C   UNL     1      -2.280   3.855   3.450  0.00  0.00    +0.002 A 
ATOM     22  C   UNL     1      -1.667   4.380   4.572  0.00  0.00    +0.000 A 
ATOM     23  C   UNL     1      -0.404   3.952   4.938  0.00  0.00    +0.002 A 
ATOM     24  C   UNL     1       0.246   2.993   4.186  0.00  0.00    +0.023 A 
ENDBRANCH  17  19
ENDBRANCH   8  15
BRANCH   6  25
ATOM     25  C   UNL     1       0.224  -3.132  -1.006  0.00  0.00    +0.228 C 
ATOM     26  O   UNL     1      -0.902  -3.245  -0.570  0.00  0.00    -0.275 OA
ATOM     27  N   UNL     1       0.784  -4.146  -1.694  0.00  0.00    -0.285 N 
ATOM     28  H   UNL     1       1.688  -4.059  -2.036  0.00  0.00    +0.155 HD
BRANCH  27  29
ATOM     29  C   UNL     1       0.063  -5.324  -1.917  0.00  0.00    +0.033 A 
ATOM     30  C   UNL     1       0.007  -5.876  -3.190  0.00  0.00    +0.023 A 
ATOM     31  C   UNL     1      -0.706  -7.039  -3.406  0.00  0.00    +0.002 A 
ATOM     32  C   UNL     1      -1.364  -7.653  -2.356  0.00  0.00    +0.000 A 
ATOM     33  C   UNL     1      -1.311  -7.106  -1.087  0.00  0.00    +0.002 A 
ATOM     34  C   UNL     1      -0.595  -5.946  -0.864  0.00  0.00    +0.023 A 
ENDBRANCH  27  29
ENDBRANCH   6  25
BRANCH   2  35
ATOM     35  O   UNL     1      -0.210   1.207  -1.920  0.00  0.00    -0.388 OA
ATOM     36  H   UNL     1      -0.165   1.582  -2.811  0.00  0.00    +0.210 HD
ENDBRANCH   2  35
TORSDOF 6
