REMARK  Name = ZINC40683293
REMARK  6 active torsions:
REMARK  status: ('A' for Active; 'I' for Inactive)
REMARK    1  A    between atoms: C_10  and  O_11
REMARK    2  A    between atoms: O_11  and  C_12
REMARK    3  A    between atoms: C_13  and  N_29
REMARK    4  A    between atoms: C_14  and  N_18
REMARK    5  A    between atoms: N_18  and  N_19
REMARK    6  A    between atoms: C_20  and  C_22
REMARK                            x       y       z     vdW  Elec       q    Type
REMARK                         _______ _______ _______ _____ _____    ______ ____
ROOT
ATOM      1  C   UNL     1       5.997  -0.619   0.045  0.00  0.00    +0.246 A 
ATOM      2  C   UNL     1       7.217   0.047   0.151  0.00  0.00    +0.129 A 
ATOM      3  C   UNL     1       8.382  -0.720   0.241  0.00  0.00    +0.163 A 
ATOM      4  N   UNL     1       8.282  -2.047   0.221  0.00  0.00    -0.217 NA
ATOM      5  C   UNL     1       7.108  -2.636   0.118  0.00  0.00    +0.227 A 
ATOM      6  N   UNL     1       5.987  -1.948   0.038  0.00  0.00    -0.199 NA
ENDROOT
BRANCH   2   7
ATOM      7  N   UNL     1       7.275   1.449   0.168  0.00  0.00    -0.351 N 
ATOM      8  H   UNL     1       6.458   1.969   0.105  0.00  0.00    +0.143 HD
ATOM      9  H   UNL     1       8.131   1.899   0.242  0.00  0.00    +0.143 HD
ENDBRANCH   2   7
BRANCH   3  10
ATOM     10  N   UNL     1       9.624  -0.107   0.348  0.00  0.00    -0.246 N 
ATOM     11  H   UNL     1       9.688   0.860   0.361  0.00  0.00    +0.172 HD
BRANCH  10  12
ATOM     12  N   UNL     1      10.785  -0.887   0.437  0.00  0.00    -0.231 N 
ATOM     13  C   UNL     1      11.990  -0.293   0.541  0.00  0.00    +0.260 C 
ATOM     14  O   UNL     1      12.069   0.920   0.558  0.00  0.00    -0.269 OA
ATOM     15  H   UNL     1      10.721  -1.855   0.423  0.00  0.00    +0.173 HD
BRANCH  13  16
ATOM     16  C   UNL     1      13.214  -1.115   0.635  0.00  0.00    +0.038 A 
ATOM     17  C   UNL     1      13.126  -2.508   0.610  0.00  0.00    +0.014 A 
ATOM     18  C   UNL     1      14.272  -3.270   0.698  0.00  0.00    +0.016 A 
ATOM     19  C   UNL     1      15.508  -2.657   0.811  0.00  0.00    +0.018 A 
ATOM     20  C   UNL     1      15.602  -1.275   0.837  0.00  0.00    +0.016 A 
ATOM     21  C   UNL     1      14.464  -0.502   0.743  0.00  0.00    +0.014 A 
ATOM     22 BR   UNL     1      17.075  -3.709   0.931  0.00  0.00    -0.050 Br
ENDBRANCH  13  16
ENDBRANCH  10  12
ENDBRANCH   3  10
BRANCH   1  23
ATOM     23  O   UNL     1       4.838   0.079  -0.045  0.00  0.00    -0.436 OA
BRANCH  23  33
ATOM     24  C   UNL     1       1.787  -1.781   3.481  0.00  0.00    +0.001 A 
ATOM     25  C   UNL     1       2.982  -1.065   3.526  0.00  0.00    +0.001 A 
ATOM     26  C   UNL     1       3.611  -0.678   2.383  0.00  0.00    +0.012 A 
ATOM     27  C   UNL     1       3.050  -1.003   1.137  0.00  0.00    +0.024 A 
ATOM     28  C   UNL     1       1.835  -1.730   1.090  0.00  0.00    -0.014 A 
ATOM     29  C   UNL     1       1.215  -2.113   2.292  0.00  0.00    +0.008 A 
ATOM     30  C   UNL     1       1.273  -2.057  -0.156  0.00  0.00    +0.009 A 
ATOM     31  C   UNL     1       1.897  -1.673  -1.304  0.00  0.00    +0.004 A 
ATOM     32  C   UNL     1       3.090  -0.958  -1.269  0.00  0.00    +0.047 A 
ATOM     33  C   UNL     1       3.673  -0.619  -0.068  0.00  0.00    +0.138 A 
ENDBRANCH  23  33
ENDBRANCH   1  23
TORSDOF 6
