REMARK  Name = ZINC21333364
REMARK  11 active torsions:
REMARK  status: ('A' for Active; 'I' for Inactive)
REMARK    1  A    between atoms: C_1  and  C_2
REMARK    2  A    between atoms: C_2  and  C_3
REMARK    3  A    between atoms: C_3  and  C_4
REMARK    4  A    between atoms: C_4  and  C_6
REMARK    5  A    between atoms: C_4  and  N_12
REMARK    6  A    between atoms: C_13  and  C_15
REMARK    7  A    between atoms: C_15  and  C_17
REMARK    8  A    between atoms: C_15  and  O_18
REMARK    9  A    between atoms: O_18  and  C_19
REMARK   10  A    between atoms: C_19  and  C_21
REMARK   11  A    between atoms: C_22  and  C_34
REMARK                            x       y       z     vdW  Elec       q    Type
REMARK                         _______ _______ _______ _____ _____    ______ ____
ROOT
ATOM      1  O   UNL     1       2.393   1.056  -0.134  0.00  0.00    -0.448 OA
ENDROOT
BRANCH   1   2
ATOM      2  C   UNL     1       1.280   1.980   0.001  0.00  0.00    +0.259 C 
ATOM      3  C   UNL     1       1.419   2.757   1.311  0.00  0.00    +0.062 C 
BRANCH   2   5
ATOM      4  N   UNL     1      -1.191   1.867   0.018  0.00  0.00    -0.305 N 
ATOM      5  C   UNL     1      -0.014   1.209   0.009  0.00  0.00    +0.254 C 
ATOM      6  O   UNL     1       0.002  -0.004   0.002  0.00  0.00    -0.272 OA
ATOM      7  H   UNL     1      -1.206   2.966   0.024  0.00  0.00    +0.149 HD
BRANCH   4   8
ATOM      8  C   UNL     1      -2.449   1.117   0.020  0.00  0.00    +0.103 C 
BRANCH   8   9
ATOM      9  C   UNL     1      -3.543   1.969  -0.571  0.00  0.00    -0.027 A 
ATOM     10  C   UNL     1      -3.610   3.316  -0.266  0.00  0.00    +0.005 A 
ATOM     11  C   UNL     1      -4.610   4.099  -0.811  0.00  0.00    +0.000 A 
ATOM     12  C   UNL     1      -5.549   3.533  -1.654  0.00  0.00    +0.000 A 
ATOM     13  C   UNL     1      -5.484   2.186  -1.955  0.00  0.00    +0.000 A 
ATOM     14  C   UNL     1      -4.481   1.404  -1.413  0.00  0.00    +0.005 A 
ENDBRANCH   8   9
BRANCH   8  15
ATOM     15  C   UNL     1      -2.816   0.740   1.456  0.00  0.00    +0.027 C 
BRANCH  15  17
ATOM     16  C   UNL     1      -2.136  -0.603   3.450  0.00  0.00    +0.004 C 
ATOM     17  C   UNL     1      -1.769  -0.226   2.014  0.00  0.00    -0.001 C 
ENDBRANCH  15  17
ENDBRANCH   8  15
ENDBRANCH   4   8
ENDBRANCH   2   5
ENDBRANCH   1   2
BRANCH   1  18
ATOM     18  C   UNL     1       3.496   1.514  -0.761  0.00  0.00    +0.347 C 
ATOM     19  O   UNL     1       3.527   2.655  -1.183  0.00  0.00    -0.244 OA
BRANCH  18  20
ATOM     20  C   UNL     1       4.657   0.638  -0.934  0.00  0.00    +0.102 A 
ATOM     21  C   UNL     1       5.851   0.915  -1.534  0.00  0.00    -0.015 A 
ATOM     22  C   UNL     1       6.842  -0.067  -1.596  0.00  0.00    +0.076 A 
ATOM     23  C   UNL     1       6.513  -1.311  -1.010  0.00  0.00    +0.116 A 
ATOM     24  S   UNL     1       4.864  -1.053  -0.404  0.00  0.00    -0.062 S 
ATOM     25  N   UNL     1       7.366  -2.323  -1.005  0.00  0.00    -0.226 NA
ATOM     26  C   UNL     1       8.561  -2.235  -1.539  0.00  0.00    +0.114 A 
ATOM     27  N   UNL     1       8.992  -1.091  -2.128  0.00  0.00    -0.296 N 
ATOM     28  C   UNL     1       8.194   0.002  -2.188  0.00  0.00    +0.263 A 
ATOM     29  O   UNL     1       8.585   1.024  -2.722  0.00  0.00    -0.267 OA
ATOM     30  C   UNL     1      10.365  -1.251  -2.640  0.00  0.00    +0.127 C 
ATOM     31  C   UNL     1      10.609  -2.773  -2.706  0.00  0.00    +0.029 C 
ATOM     32  C   UNL     1       9.644  -3.295  -1.620  0.00  0.00    +0.076 C 
ATOM     33  C   UNL     1       6.101   2.277  -2.127  0.00  0.00    +0.046 C 
ENDBRANCH  18  20
ENDBRANCH   1  18
TORSDOF 8
