REMARK  Name = ZINC64622932
REMARK  6 active torsions:
REMARK  status: ('A' for Active; 'I' for Inactive)
REMARK    1  A    between atoms: C_1  and  C_2
REMARK    2  A    between atoms: C_2  and  O_3
REMARK    3  A    between atoms: O_3  and  C_4
REMARK    4  A    between atoms: C_4  and  C_6
REMARK    5  A    between atoms: C_11  and  N_12
REMARK    6  A    between atoms: C_28  and  C_30
REMARK                            x       y       z     vdW  Elec       q    Type
REMARK                         _______ _______ _______ _____ _____    ______ ____
ROOT
ATOM      1  N   UNL     1       0.931  -4.686   1.376  0.00  0.00    -0.269 N 
ATOM      2  C   UNL     1       0.881  -5.950   1.840  0.00  0.00    +0.307 C 
ATOM      3  O   UNL     1       1.240  -6.196   2.975  0.00  0.00    -0.252 OA
ATOM      4  N   UNL     1       0.432  -6.942   1.046  0.00  0.00    -0.276 N 
ATOM      5  C   UNL     1      -0.102  -6.622  -0.282  0.00  0.00    +0.114 C 
ATOM      6  C   UNL     1       0.697  -7.388  -1.353  0.00  0.00    +0.052 C 
ATOM      7  C   UNL     1       0.839  -8.805  -0.857  0.00  0.00    -0.035 C 
ATOM      8  C   UNL     1       0.568  -9.969  -1.434  0.00  0.00    -0.001 A 
ATOM      9  C   UNL     1       0.136 -10.308  -2.800  0.00  0.00    +0.010 A 
ATOM     10  C   UNL     1      -0.074 -11.627  -3.052  0.00  0.00    +0.001 A 
ATOM     11  C   UNL     1       0.099 -12.630  -2.094  0.00  0.00    +0.002 A 
ATOM     12  C   UNL     1       0.501 -12.410  -0.817  0.00  0.00    +0.026 A 
ATOM     13  C   UNL     1       0.762 -11.063  -0.434  0.00  0.00    +0.043 A 
ATOM     14  N   UNL     1       1.175 -10.575   0.698  0.00  0.00    -0.375 N 
ATOM     15  C   UNL     1       1.351  -9.130   0.541  0.00  0.00    +0.131 C 
ATOM     16  C   UNL     1       0.487  -8.335   1.518  0.00  0.00    +0.134 C 
ATOM     17  H   UNL     1       0.573  -4.476   0.500  0.00  0.00    +0.156 HD
ATOM     18  H   UNL     1       1.337 -11.081   1.509  0.00  0.00    +0.160 HD
ENDROOT
BRANCH  16  19
ATOM     19  C   UNL     1      -0.902  -8.917   1.556  0.00  0.00    -0.025 A 
ATOM     20  C   UNL     1      -1.404  -9.429   2.737  0.00  0.00    +0.008 A 
ATOM     21  C   UNL     1      -2.678  -9.963   2.773  0.00  0.00    +0.038 A 
ATOM     22  C   UNL     1      -3.452  -9.984   1.625  0.00  0.00    +0.123 A 
ATOM     23  C   UNL     1      -2.948  -9.470   0.443  0.00  0.00    +0.038 A 
ATOM     24  C   UNL     1      -1.676  -8.932   0.410  0.00  0.00    +0.008 A 
ATOM     25  F   UNL     1      -4.698 -10.506   1.659  0.00  0.00    -0.205 F 
ENDBRANCH  16  19
BRANCH   1  31
ATOM     26  C   UNL     1       0.982  -2.377   2.110  0.00  0.00    +0.080 A 
ATOM     27  C   UNL     1       1.557  -1.379   2.901  0.00  0.00    +0.017 A 
ATOM     28  C   UNL     1       2.629  -1.678   3.714  0.00  0.00    +0.001 A 
ATOM     29  C   UNL     1       3.140  -2.966   3.752  0.00  0.00    +0.002 A 
ATOM     30  C   UNL     1       2.583  -3.962   2.976  0.00  0.00    +0.024 A 
ATOM     31  C   UNL     1       1.499  -3.681   2.155  0.00  0.00    +0.049 A 
BRANCH  26  32
ATOM     32  C   UNL     1      -0.164  -2.063   1.239  0.00  0.00    +0.341 C 
ATOM     33  O   UNL     1      -0.609  -2.912   0.492  0.00  0.00    -0.245 OA
BRANCH  32  34
ATOM     34  O   UNL     1      -0.719  -0.836   1.270  0.00  0.00    -0.461 OA
BRANCH  34  36
ATOM     35  C   UNL     1      -2.318   0.837   0.573  0.00  0.00    +0.048 C 
ATOM     36  C   UNL     1      -1.827  -0.602   0.399  0.00  0.00    +0.229 C 
ENDBRANCH  34  36
ENDBRANCH  32  34
ENDBRANCH  26  32
ENDBRANCH   1  31
TORSDOF 5
