REMARK  Name = ZINC38604368
REMARK  8 active torsions:
REMARK  status: ('A' for Active; 'I' for Inactive)
REMARK    1  A    between atoms: C_1  and  C_2
REMARK    2  A    between atoms: C_2  and  C_32
REMARK    3  A    between atoms: N_3  and  O_4
REMARK    4  A    between atoms: O_4  and  C_5
REMARK    5  A    between atoms: C_5  and  C_6
REMARK    6  A    between atoms: N_17  and  N_18
REMARK    7  A    between atoms: C_19  and  C_20
REMARK    8  A    between atoms: C_25  and  C_26
REMARK                            x       y       z     vdW  Elec       q    Type
REMARK                         _______ _______ _______ _____ _____    ______ ____
ROOT
ATOM      1  C   UNL     1       0.051   0.065   4.779  0.00  0.00    +0.225 C 
ATOM      2  N   UNL     1       1.239   0.927   4.784  0.00  0.00    -0.321 N 
ATOM      3  C   UNL     1       1.259   2.036   3.945  0.00  0.00    +0.041 A 
ATOM      4  C   UNL     1       2.437   2.538   3.421  0.00  0.00    +0.024 A 
ATOM      5  C   UNL     1       2.400   3.640   2.588  0.00  0.00    +0.002 A 
ATOM      6  C   UNL     1       1.194   4.246   2.274  0.00  0.00    +0.001 A 
ATOM      7  C   UNL     1       0.010   3.760   2.790  0.00  0.00    +0.015 A 
ATOM      8  C   UNL     1       0.033   2.651   3.633  0.00  0.00    +0.059 A 
ATOM      9  C   UNL     1      -1.200   2.097   4.220  0.00  0.00    +0.269 C 
ATOM     10  O   UNL     1      -2.237   2.731   4.185  0.00  0.00    -0.268 OA
ATOM     11  N   UNL     1      -1.163   0.881   4.795  0.00  0.00    -0.165 N 
ATOM     12  H   UNL     1       1.994   0.727   5.359  0.00  0.00    +0.148 HD
ENDROOT
BRANCH  11  13
ATOM     13  N   UNL     1      -2.315   0.387   5.421  0.00  0.00    -0.187 NA
ATOM     14  C   UNL     1      -2.332  -0.808   5.879  0.00  0.00    +0.119 C 
BRANCH  14  15
ATOM     15  C   UNL     1      -3.604  -1.377   6.453  0.00  0.00    +0.125 C 
ATOM     16  C   UNL     1      -3.985  -2.660   5.741  0.00  0.00    +0.123 C 
ATOM     17  N   UNL     1      -3.970  -3.589   6.641  0.00  0.00    -0.161 NA
ATOM     18  N   UNL     1      -3.624  -3.105   7.899  0.00  0.00    -0.153 NA
ATOM     19  C   UNL     1      -3.393  -1.818   7.888  0.00  0.00    +0.084 C 
BRANCH  19  20
ATOM     20  C   UNL     1      -3.006  -0.972   9.029  0.00  0.00    -0.001 A 
ATOM     21  C   UNL     1      -2.798   0.399   8.848  0.00  0.00    +0.010 A 
ATOM     22  C   UNL     1      -2.436   1.185   9.922  0.00  0.00    +0.001 A 
ATOM     23  C   UNL     1      -2.278   0.620  11.175  0.00  0.00    +0.000 A 
ATOM     24  C   UNL     1      -2.481  -0.736  11.362  0.00  0.00    +0.001 A 
ATOM     25  C   UNL     1      -2.850  -1.534  10.300  0.00  0.00    +0.010 A 
ENDBRANCH  19  20
ENDBRANCH  14  15
ENDBRANCH  11  13
BRANCH   1  26
ATOM     26  C   UNL     1       0.061  -0.804   3.520  0.00  0.00    +0.306 C 
BRANCH  26  27
ATOM     27  O   UNL     1       0.040   0.034   2.362  0.00  0.00    -0.390 OA
BRANCH  27  30
ATOM     28  C   UNL     1       0.003   1.476   0.014  0.00  0.00    +0.069 C 
ATOM     29  C   UNL     1       0.030  -0.031   0.016  0.00  0.00    +0.084 C 
ATOM     30  N   UNL     1       0.047  -0.676   1.137  0.00  0.00    -0.089 NA
BRANCH  29  31
ATOM     31  C   UNL     1       0.038  -0.771  -1.261  0.00  0.00    -0.001 A 
ATOM     32  C   UNL     1       0.025  -0.078  -2.473  0.00  0.00    +0.010 A 
ATOM     33  C   UNL     1       0.032  -0.775  -3.663  0.00  0.00    +0.001 A 
ATOM     34  C   UNL     1       0.051  -2.159  -3.658  0.00  0.00    +0.000 A 
ATOM     35  C   UNL     1       0.063  -2.852  -2.460  0.00  0.00    +0.001 A 
ATOM     36  C   UNL     1       0.063  -2.167  -1.263  0.00  0.00    +0.010 A 
ENDBRANCH  29  31
ENDBRANCH  27  30
ENDBRANCH  26  27
ENDBRANCH   1  26
TORSDOF 7
