REMARK  Name = ZINC14667764
REMARK  10 active torsions:
REMARK  status: ('A' for Active; 'I' for Inactive)
REMARK    1  A    between atoms: C_1  and  C_2
REMARK    2  A    between atoms: C_3  and  N_11
REMARK    3  A    between atoms: C_7  and  N_8
REMARK    4  A    between atoms: C_12  and  C_14
REMARK    5  A    between atoms: C_14  and  O_15
REMARK    6  A    between atoms: O_15  and  C_16
REMARK    7  A    between atoms: C_21  and  C_22
REMARK    8  A    between atoms: C_22  and  C_23
REMARK    9  A    between atoms: C_22  and  C_24
REMARK   10  A    between atoms: C_22  and  C_25
REMARK                            x       y       z     vdW  Elec       q    Type
REMARK                         _______ _______ _______ _____ _____    ______ ____
ROOT
ATOM      1  N   UNL     1       4.197  -1.786   0.384  0.00  0.00    -0.282 N 
ATOM      2  C   UNL     1       4.248  -0.444   0.492  0.00  0.00    +0.255 C 
ATOM      3  O   UNL     1       5.311   0.132   0.387  0.00  0.00    -0.272 OA
ATOM      4  H   UNL     1       3.361  -2.253   0.542  0.00  0.00    +0.155 HD
ENDROOT
BRANCH   1   7
ATOM      5  C   UNL     1       4.280  -4.561   1.012  0.00  0.00    +0.048 C 
ATOM      6  C   UNL     1       5.430  -3.862   0.334  0.00  0.00    +0.001 A 
ATOM      7  C   UNL     1       5.348  -2.506   0.045  0.00  0.00    +0.039 A 
ATOM      8  C   UNL     1       6.412  -1.865  -0.575  0.00  0.00    +0.024 A 
ATOM      9  C   UNL     1       7.547  -2.578  -0.907  0.00  0.00    +0.004 A 
ATOM     10  C   UNL     1       7.624  -3.929  -0.624  0.00  0.00    +0.033 A 
ATOM     11  C   UNL     1       6.566  -4.571  -0.007  0.00  0.00    +0.131 A 
BRANCH  11  12
ATOM     12  N   UNL     1       6.652  -6.018   0.294  0.00  0.00    +0.057 N 
ATOM     13  O   UNL     1       7.701  -6.613   0.124  0.00  0.00    -0.126 OA
ATOM     14  O   UNL     1       5.674  -6.612   0.711  0.00  0.00    -0.126 OA
ENDBRANCH  11  12
ENDBRANCH   1   7
BRANCH   2  15
ATOM     15  C   UNL     1       2.987   0.341   0.743  0.00  0.00    +0.324 C 
BRANCH  15  16
ATOM     16  O   UNL     1       3.299   1.734   0.816  0.00  0.00    -0.482 OA
BRANCH  16  17
ATOM     17  C   UNL     1       2.265   2.587   1.040  0.00  0.00    +0.125 A 
ATOM     18  C   UNL     1       0.977   2.094   1.185  0.00  0.00    +0.047 A 
ATOM     19  C   UNL     1      -0.074   2.963   1.406  0.00  0.00    +0.019 A 
ATOM     20  C   UNL     1       0.160   4.324   1.493  0.00  0.00    +0.018 A 
ATOM     21  C   UNL     1       1.444   4.818   1.349  0.00  0.00    +0.023 A 
ATOM     22  C   UNL     1       2.497   3.952   1.122  0.00  0.00    +0.001 A 
ATOM     23 BR   UNL     1      -1.279   5.512   1.802  0.00  0.00    -0.050 Br
BRANCH  22  24
ATOM     24  C   UNL     1       3.896   4.491   0.966  0.00  0.00    -0.009 C 
ATOM     25  C   UNL     1       3.873   6.015   1.099  0.00  0.00    +0.015 C 
ATOM     26  C   UNL     1       4.795   3.897   2.051  0.00  0.00    +0.015 C 
ATOM     27  C   UNL     1       4.438   4.107  -0.413  0.00  0.00    +0.015 C 
ENDBRANCH  22  24
ENDBRANCH  16  17
ENDBRANCH  15  16
ENDBRANCH   2  15
TORSDOF 6
