REMARK  Name = ZINC65331079
REMARK  10 active torsions:
REMARK  status: ('A' for Active; 'I' for Inactive)
REMARK    1  A    between atoms: C_1  and  C_2
REMARK    2  A    between atoms: C_6  and  C_8
REMARK    3  A    between atoms: C_17  and  C_19
REMARK    4  A    between atoms: C_19  and  N_20
REMARK    5  A    between atoms: C_21  and  C_23
REMARK    6  A    between atoms: C_23  and  N_24
REMARK    7  A    between atoms: C_27  and  C_35
REMARK    8  A    between atoms: C_35  and  C_36
REMARK    9  A    between atoms: C_35  and  C_37
REMARK   10  A    between atoms: C_35  and  C_38
REMARK                            x       y       z     vdW  Elec       q    Type
REMARK                         _______ _______ _______ _____ _____    ______ ____
ROOT
ATOM      1  N   UNL     1      -1.843  -8.227   6.949  0.00  0.00    -0.310 N 
ATOM      2  C   UNL     1      -2.182  -9.133   7.888  0.00  0.00    +0.231 C 
ATOM      3  O   UNL     1      -1.319  -9.739   8.486  0.00  0.00    -0.274 OA
ATOM      4  H   UNL     1      -2.533  -7.743   6.471  0.00  0.00    +0.149 HD
ENDROOT
BRANCH   1   5
ATOM      5  C   UNL     1      -0.430  -7.973   6.653  0.00  0.00    +0.139 C 
BRANCH   5  15
ATOM      6  C   UNL     1       0.052  -2.845   2.457  0.00  0.00    +0.251 C 
ATOM      7  O   UNL     1       0.149  -2.250   3.513  0.00  0.00    -0.270 OA
ATOM      8  N   UNL     1      -0.032  -4.191   2.447  0.00  0.00    -0.267 N 
ATOM      9  C   UNL     1      -0.031  -5.023   1.242  0.00  0.00    +0.118 C 
ATOM     10  C   UNL     1      -0.144  -6.470   1.750  0.00  0.00    +0.056 C 
ATOM     11  C   UNL     1      -0.202  -6.340   3.256  0.00  0.00    -0.024 A 
ATOM     12  C   UNL     1      -0.126  -4.996   3.586  0.00  0.00    +0.040 A 
ATOM     13  C   UNL     1      -0.155  -4.625   4.932  0.00  0.00    +0.024 A 
ATOM     14  C   UNL     1      -0.254  -5.587   5.915  0.00  0.00    +0.007 A 
ATOM     15  C   UNL     1      -0.324  -6.925   5.576  0.00  0.00    -0.030 A 
ATOM     16  C   UNL     1      -0.306  -7.299   4.244  0.00  0.00    +0.010 A 
BRANCH   6  22
ATOM     17  C   UNL     1      -0.169   1.499   0.013  0.00  0.00    +0.044 C 
ATOM     18  C   UNL     1      -0.080  -0.005   0.004  0.00  0.00    -0.050 A 
ATOM     19  C   UNL     1      -0.023  -0.686  -1.200  0.00  0.00    +0.003 A 
ATOM     20  C   UNL     1       0.059  -2.067  -1.217  0.00  0.00    +0.001 A 
ATOM     21  C   UNL     1       0.084  -2.775  -0.033  0.00  0.00    +0.013 A 
ATOM     22  C   UNL     1       0.026  -2.094   1.185  0.00  0.00    +0.037 A 
ATOM     23  C   UNL     1      -0.050  -0.700   1.195  0.00  0.00    +0.016 A 
ENDBRANCH   6  22
ENDBRANCH   5  15
ENDBRANCH   1   5
BRANCH   2  24
ATOM     24  C   UNL     1      -3.635  -9.394   8.192  0.00  0.00    +0.209 C 
BRANCH  24  25
ATOM     25  N   UNL     1      -3.738 -10.413   9.240  0.00  0.00    -0.257 N 
ATOM     26  C   UNL     1      -3.804 -11.773   8.906  0.00  0.00    +0.079 A 
ATOM     27  C   UNL     1      -3.458 -12.208   7.637  0.00  0.00    +0.031 A 
ATOM     28  C   UNL     1      -3.531 -13.554   7.328  0.00  0.00    -0.040 A 
ATOM     29  C   UNL     1      -3.948 -14.465   8.281  0.00  0.00    +0.008 A 
ATOM     30  C   UNL     1      -4.295 -14.037   9.550  0.00  0.00    +0.048 A 
ATOM     31  C   UNL     1      -4.224 -12.692   9.867  0.00  0.00    +0.143 A 
ATOM     32  O   UNL     1      -4.558 -12.253  11.110  0.00  0.00    -0.481 OA
ATOM     33  C   UNL     1      -3.839 -11.121  11.607  0.00  0.00    +0.325 C 
ATOM     34  C   UNL     1      -3.766 -10.057  10.543  0.00  0.00    +0.258 C 
ATOM     35  O   UNL     1      -3.736  -8.885  10.854  0.00  0.00    -0.271 OA
BRANCH  28  36
ATOM     36  C   UNL     1      -3.155 -14.029   5.948  0.00  0.00    -0.013 C 
ATOM     37  C   UNL     1      -1.698 -13.662   5.662  0.00  0.00    +0.015 C 
ATOM     38  C   UNL     1      -3.323 -15.548   5.869  0.00  0.00    +0.015 C 
ATOM     39  C   UNL     1      -4.063 -13.361   4.914  0.00  0.00    +0.015 C 
ENDBRANCH  28  36
ENDBRANCH  24  25
ENDBRANCH   2  24
TORSDOF 6
