REMARK  Name = ZINC64349147
REMARK  13 active torsions:
REMARK  status: ('A' for Active; 'I' for Inactive)
REMARK    1  A    between atoms: C_1  and  C_2
REMARK    2  A    between atoms: C_4  and  O_12
REMARK    3  A    between atoms: C_5  and  C_9
REMARK    4  A    between atoms: C_9  and  C_10
REMARK    5  A    between atoms: C_9  and  C_11
REMARK    6  A    between atoms: O_12  and  C_13
REMARK    7  A    between atoms: C_13  and  C_14
REMARK    8  A    between atoms: C_16  and  C_22
REMARK    9  A    between atoms: C_19  and  O_20
REMARK   10  A    between atoms: O_20  and  C_21
REMARK   11  A    between atoms: C_35  and  C_38
REMARK   12  A    between atoms: C_38  and  O_40
REMARK   13  A    between atoms: O_40  and  C_41
REMARK                            x       y       z     vdW  Elec       q    Type
REMARK                         _______ _______ _______ _____ _____    ______ ____
ROOT
ATOM      1  C   UNL     1       0.017  -2.879  -4.780  0.00  0.00    +0.032 A 
ATOM      2  C   UNL     1       0.031  -4.249  -4.606  0.00  0.00    +0.015 A 
ATOM      3  C   UNL     1       0.037  -5.087  -5.705  0.00  0.00    -0.028 A 
ATOM      4  C   UNL     1       0.029  -4.556  -6.982  0.00  0.00    +0.009 A 
ATOM      5  C   UNL     1       0.015  -3.187  -7.162  0.00  0.00    +0.046 A 
ATOM      6  C   UNL     1       0.004  -2.344  -6.060  0.00  0.00    +0.126 A 
ENDROOT
BRANCH   3   7
ATOM      7  C   UNL     1       0.053  -6.581  -5.512  0.00  0.00    +0.111 C 
ATOM      8  C   UNL     1       1.475  -7.112  -5.711  0.00  0.00    +0.128 C 
ATOM      9  C   UNL     1       1.373  -8.632  -5.669  0.00  0.00    -0.035 C 
ATOM     10  C   UNL     1       2.233  -9.041  -4.748  0.00  0.00    -0.001 A 
ATOM     11  C   UNL     1       2.645 -10.387  -4.317  0.00  0.00    +0.010 A 
ATOM     12  C   UNL     1       3.560 -10.442  -3.313  0.00  0.00    +0.001 A 
ATOM     13  C   UNL     1       4.100  -9.307  -2.702  0.00  0.00    +0.002 A 
ATOM     14  C   UNL     1       3.784  -8.031  -3.038  0.00  0.00    +0.026 A 
ATOM     15  C   UNL     1       2.836  -7.844  -4.085  0.00  0.00    +0.043 A 
ATOM     16  N   UNL     1       2.375  -6.731  -4.623  0.00  0.00    -0.376 N 
ATOM     17  C   UNL     1       0.362  -9.381  -6.504  0.00  0.00    +0.063 C 
ATOM     18  C   UNL     1      -0.983  -8.661  -6.298  0.00  0.00    +0.168 C 
ATOM     19  N   UNL     1      -0.823  -7.220  -6.507  0.00  0.00    -0.295 NA
ATOM     20  H   UNL     1      -1.719  -6.758  -6.550  0.00  0.00    +0.123 HD
ATOM     21  H   UNL     1       2.585  -5.824  -4.351  0.00  0.00    +0.160 HD
BRANCH  18  22
ATOM     22  C   UNL     1      -1.992  -9.197  -7.281  0.00  0.00    +0.324 C 
ATOM     23  O   UNL     1      -2.241  -8.578  -8.288  0.00  0.00    -0.249 OA
BRANCH  22  24
ATOM     24  O   UNL     1      -2.614 -10.361  -7.037  0.00  0.00    -0.467 OA
ATOM     25  C   UNL     1      -3.559 -10.809  -8.011  0.00  0.00    +0.280 C 
ENDBRANCH  22  24
ENDBRANCH  18  22
ENDBRANCH   3   7
BRANCH   6  26
ATOM     26  O   UNL     1      -0.016  -0.996  -6.234  0.00  0.00    -0.495 OA
ATOM     27  C   UNL     1      -0.030  -0.516  -7.580  0.00  0.00    +0.277 C 
ENDBRANCH   6  26
BRANCH   1  28
ATOM     28  C   UNL     1       0.011  -1.966  -3.581  0.00  0.00    +0.268 C 
BRANCH  28  29
ATOM     29  O   UNL     1       0.028  -2.749  -2.386  0.00  0.00    -0.487 OA
BRANCH  29  33
ATOM     30  C   UNL     1      -0.018   1.503   0.010  0.00  0.00    +0.045 C 
ATOM     31  C   UNL     1       0.002  -0.004   0.002  0.00  0.00    -0.029 A 
ATOM     32  C   UNL     1       0.006  -0.688  -1.199  0.00  0.00    +0.050 A 
ATOM     33  C   UNL     1       0.025  -2.075  -1.206  0.00  0.00    +0.125 A 
ATOM     34  C   UNL     1       0.040  -2.773  -0.007  0.00  0.00    -0.002 A 
ATOM     35  C   UNL     1       0.036  -2.086   1.192  0.00  0.00    +0.027 A 
ATOM     36  C   UNL     1       0.023  -0.702   1.196  0.00  0.00    +0.044 A 
ATOM     37 CL   UNL     1       0.025   0.160   2.704  0.00  0.00    -0.083 Cl
BRANCH  34  38
ATOM     38  C   UNL     1       0.060  -4.279  -0.012  0.00  0.00    +0.016 C 
ATOM     39  C   UNL     1       1.319  -4.775   0.702  0.00  0.00    +0.012 C 
ATOM     40  C   UNL     1      -1.179  -4.808   0.714  0.00  0.00    +0.012 C 
ENDBRANCH  34  38
ENDBRANCH  29  33
ENDBRANCH  28  29
ENDBRANCH   1  28
TORSDOF 8
