REMARK  Name = ZINC39583702
REMARK  5 active torsions:
REMARK  status: ('A' for Active; 'I' for Inactive)
REMARK    1  A    between atoms: C_5  and  C_7
REMARK    2  A    between atoms: C_11  and  S_21
REMARK    3  A    between atoms: N_13  and  C_14
REMARK    4  A    between atoms: S_21  and  C_22
REMARK    5  A    between atoms: C_22  and  C_23
REMARK                            x       y       z     vdW  Elec       q    Type
REMARK                         _______ _______ _______ _____ _____    ______ ____
ROOT
ATOM      1  C   UNL     1       1.194  -2.022  -0.155  0.00  0.00    +0.220 C 
ATOM      2  N   UNL     1       2.226  -2.583  -1.029  0.00  0.00    -0.286 N 
ATOM      3  N   UNL     1       1.769  -3.438  -1.785  0.00  0.00    -0.180 NA
ATOM      4  C   UNL     1       0.333  -3.635  -1.579  0.00  0.00    +0.273 C 
ATOM      5  N   UNL     1      -0.063  -2.707  -0.503  0.00  0.00    -0.273 N 
ATOM      6  H   UNL     1       3.157  -2.311  -1.015  0.00  0.00    +0.185 HD
ENDROOT
BRANCH   1  11
ATOM      7  C   UNL     1       0.030   1.289  -1.545  0.00  0.00    +0.000 A 
ATOM      8  C   UNL     1       0.817   2.179  -0.837  0.00  0.00    +0.001 A 
ATOM      9  C   UNL     1       1.727   1.709   0.091  0.00  0.00    +0.020 A 
ATOM     10  C   UNL     1       1.849   0.349   0.313  0.00  0.00    +0.048 A 
ATOM     11  C   UNL     1       1.061  -0.540  -0.395  0.00  0.00    +0.012 A 
ATOM     12  C   UNL     1       0.152  -0.070  -1.324  0.00  0.00    +0.009 A 
ATOM     13 CL   UNL     1       2.992  -0.241   1.479  0.00  0.00    -0.083 Cl
ENDBRANCH   1  11
BRANCH   5  14
ATOM     14  C   UNL     1      -1.331  -2.519   0.053  0.00  0.00    +0.034 A 
ATOM     15  C   UNL     1      -1.495  -1.672   1.141  0.00  0.00    +0.024 A 
ATOM     16  C   UNL     1      -2.749  -1.488   1.689  0.00  0.00    +0.022 A 
ATOM     17  C   UNL     1      -3.842  -2.148   1.155  0.00  0.00    +0.041 A 
ATOM     18  C   UNL     1      -3.682  -2.994   0.071  0.00  0.00    +0.022 A 
ATOM     19  C   UNL     1      -2.431  -3.176  -0.484  0.00  0.00    +0.024 A 
ATOM     20 CL   UNL     1      -5.418  -1.916   1.847  0.00  0.00    -0.084 Cl
ENDBRANCH   5  14
BRANCH   4  21
ATOM     21  S   UNL     1       0.005  -5.347  -1.077  0.00  0.00    -0.106 S 
BRANCH  21  22
ATOM     22  C   UNL     1       0.977  -5.553   0.441  0.00  0.00    +0.147 C 
BRANCH  22  23
ATOM     23  C   UNL     1       0.791  -6.952   0.969  0.00  0.00    +0.118 A 
ATOM     24  N   UNL     1       1.533  -7.973   0.653  0.00  0.00    -0.232 NA
ATOM     25  C   UNL     1       1.091  -9.079   1.307  0.00  0.00    +0.089 A 
ATOM     26  C   UNL     1       1.508 -10.412   1.336  0.00  0.00    +0.030 A 
ATOM     27  C   UNL     1       0.843 -11.316   2.115  0.00  0.00    +0.002 A 
ATOM     28  C   UNL     1      -0.246 -10.925   2.880  0.00  0.00    +0.002 A 
ATOM     29  C   UNL     1      -0.676  -9.615   2.867  0.00  0.00    +0.028 A 
ATOM     30  C   UNL     1      -0.012  -8.682   2.082  0.00  0.00    +0.066 A 
ATOM     31  N   UNL     1      -0.173  -7.330   1.852  0.00  0.00    -0.341 N 
ATOM     32  H   UNL     1      -0.850  -6.757   2.244  0.00  0.00    +0.167 HD
ENDBRANCH  22  23
ENDBRANCH  21  22
ENDBRANCH   4  21
TORSDOF 5
