REMARK  Name = ZINC08960134
REMARK  12 active torsions:
REMARK  status: ('A' for Active; 'I' for Inactive)
REMARK    1  A    between atoms: C_1  and  C_2
REMARK    2  A    between atoms: C_2  and  O_3
REMARK    3  A    between atoms: O_3  and  C_4
REMARK    4  A    between atoms: C_11  and  C_13
REMARK    5  A    between atoms: N_15  and  C_16
REMARK    6  A    between atoms: C_17  and  C_28
REMARK    7  A    between atoms: C_21  and  C_26
REMARK    8  A    between atoms: C_21  and  C_27
REMARK    9  A    between atoms: C_22  and  C_24
REMARK   10  A    between atoms: C_22  and  C_25
REMARK   11  A    between atoms: C_28  and  O_30
REMARK   12  A    between atoms: O_30  and  C_31
REMARK                            x       y       z     vdW  Elec       q    Type
REMARK                         _______ _______ _______ _____ _____    ______ ____
ROOT
ATOM      1  C   UNL     1       0.002  -0.004   0.002  0.00  0.00    +0.087 A 
ATOM      2  C   UNL     1       1.106  -0.852  -0.013  0.00  0.00    +0.091 A 
ATOM      3  C   UNL     1       0.848  -2.276  -0.012  0.00  0.00    -0.024 A 
ATOM      4  C   UNL     1      -0.457  -2.634  -0.008  0.00  0.00    -0.016 A 
ATOM      5  S   UNL     1      -1.340  -1.100   0.006  0.00  0.00    -0.079 S 
ATOM      6  C   UNL     1      -0.999  -4.026  -0.021  0.00  0.00    -0.041 C 
ATOM      7  C   UNL     1       1.314  -4.576   0.742  0.00  0.00    -0.069 C 
ATOM      8  C   UNL     1       1.902  -3.375  -0.009  0.00  0.00    +0.024 C 
ATOM      9  C   UNL     1       1.142  -4.212   2.220  0.00  0.00    -0.010 C 
ATOM     10  C   UNL     1       2.329  -5.731   0.655  0.00  0.00    -0.010 C 
ATOM     11  C   UNL     1      -2.063  -4.169   1.076  0.00  0.00    -0.005 C 
ATOM     12  C   UNL     1      -1.682  -4.267  -1.380  0.00  0.00    -0.005 C 
ATOM     13  N   UNL     1       0.048  -5.075   0.146  0.00  0.00    +0.389 N 
ATOM     14  H   UNL     1       0.260  -5.470  -0.777  0.00  0.00    -0.084 HD
ATOM     15  H   UNL     1      -0.327  -5.811   0.756  0.00  0.00    -0.084 HD
ENDROOT
BRANCH   1  18
ATOM     16  C   UNL     1      -1.193   2.038   0.019  0.00  0.00    +0.284 C 
ATOM     17  O   UNL     1      -2.238   1.415   0.020  0.00  0.00    -0.266 OA
ATOM     18  N   UNL     1      -0.017   1.380   0.010  0.00  0.00    -0.273 N 
ATOM     19  H   UNL     1       0.817   1.877   0.004  0.00  0.00    +0.156 HD
BRANCH  16  27
ATOM     20  C   UNL     1       0.262   6.787   0.040  0.00  0.00    +0.163 A 
ATOM     21  C   UNL     1      -0.399   8.001   0.049  0.00  0.00    +0.049 A 
ATOM     22  C   UNL     1      -1.786   8.052   0.056  0.00  0.00    +0.004 A 
ATOM     23  C   UNL     1      -2.522   6.902   0.053  0.00  0.00    +0.012 A 
ATOM     24  C   UNL     1      -1.876   5.662   0.043  0.00  0.00    +0.025 A 
ATOM     25  C   UNL     1      -0.471   5.600   0.036  0.00  0.00    +0.177 A 
ATOM     26  O   UNL     1      -0.120   4.299   0.032  0.00  0.00    -0.447 OA
ATOM     27  C   UNL     1      -1.213   3.507   0.027  0.00  0.00    +0.191 A 
ATOM     28  C   UNL     1      -2.334   4.274   0.036  0.00  0.00    +0.063 A 
BRANCH  20  29
ATOM     29  O   UNL     1       1.621   6.750   0.033  0.00  0.00    -0.489 OA
BRANCH  29  31
ATOM     30  C   UNL     1       3.815   7.763   0.028  0.00  0.00    +0.048 C 
ATOM     31  C   UNL     1       2.304   8.005   0.037  0.00  0.00    +0.226 C 
ENDBRANCH  29  31
ENDBRANCH  20  29
ENDBRANCH  16  27
ENDBRANCH   1  18
BRANCH   2  32
ATOM     32  C   UNL     1       2.467  -0.312  -0.033  0.00  0.00    +0.342 C 
ATOM     33  O   UNL     1       3.047  -0.088   1.012  0.00  0.00    -0.245 OA
BRANCH  32  34
ATOM     34  O   UNL     1       3.077  -0.064  -1.210  0.00  0.00    -0.464 OA
ATOM     35  C   UNL     1       4.426   0.470  -1.154  0.00  0.00    +0.280 C 
ENDBRANCH  32  34
ENDBRANCH   2  32
TORSDOF 6
