REMARK  Name = ZINC22855087
REMARK  5 active torsions:
REMARK  status: ('A' for Active; 'I' for Inactive)
REMARK    1  A    between atoms: C_1  and  C_2
REMARK    2  A    between atoms: C_2  and  C_3
REMARK    3  A    between atoms: C_9  and  C_11
REMARK    4  A    between atoms: C_11  and  C_13
REMARK    5  A    between atoms: C_11  and  N_18
REMARK                            x       y       z     vdW  Elec       q    Type
REMARK                         _______ _______ _______ _____ _____    ______ ____
ROOT
ATOM      1  C   UNL     1       1.406  -2.157  -0.022  0.00  0.00    +0.166 C 
ENDROOT
BRANCH   1   2
ATOM      2  N   UNL     1       2.332  -2.503  -1.110  0.00  0.00    -0.284 NA
ATOM      3  C   UNL     1       1.881  -1.930  -2.388  0.00  0.00    +0.090 C 
ATOM      4  C   UNL     1       3.038  -1.999  -3.385  0.00  0.00    +0.051 C 
ATOM      5  C   UNL     1       3.609  -3.394  -3.414  0.00  0.00    -0.042 A 
ATOM      6  C   UNL     1       4.413  -3.757  -4.484  0.00  0.00    +0.004 A 
ATOM      7  C   UNL     1       4.960  -5.023  -4.547  0.00  0.00    +0.000 A 
ATOM      8  C   UNL     1       4.705  -5.933  -3.538  0.00  0.00    +0.000 A 
ATOM      9  C   UNL     1       3.904  -5.573  -2.473  0.00  0.00    +0.005 A 
ATOM     10  C   UNL     1       3.353  -4.302  -2.409  0.00  0.00    -0.030 A 
ATOM     11  C   UNL     1       2.482  -3.957  -1.230  0.00  0.00    +0.120 C 
ENDBRANCH   1   2
BRANCH   1  18
ATOM     12  C   UNL     1       0.419   3.687   0.634  0.00  0.00    +0.152 A 
ATOM     13  N   UNL     1       1.683   3.283   0.518  0.00  0.00    -0.205 NA
ATOM     14  C   UNL     1       1.710   1.985   0.383  0.00  0.00    +0.199 A 
ATOM     15  N   UNL     1       0.440   1.496   0.407  0.00  0.00    -0.169 N 
ATOM     16  N   UNL     1      -0.371   2.648   0.578  0.00  0.00    -0.146 NA
ATOM     17  C   UNL     1       0.286   0.137   0.277  0.00  0.00    +0.285 A 
ATOM     18  C   UNL     1       1.351  -0.659   0.134  0.00  0.00    +0.084 A 
ATOM     19  S   UNL     1       2.693   0.520   0.176  0.00  0.00    -0.047 S 
ATOM     20  O   UNL     1      -0.962  -0.405   0.295  0.00  0.00    -0.265 OA
BRANCH  12  22
ATOM     21  C   UNL     1      -0.263   5.747  -0.566  0.00  0.00    +0.012 C 
ATOM     22  C   UNL     1      -0.028   5.115   0.807  0.00  0.00    +0.075 C 
ENDBRANCH  12  22
ENDBRANCH   1  18
BRANCH   1  23
ATOM     23  C   UNL     1       1.887  -2.779   1.263  0.00  0.00    +0.127 A 
ATOM     24  C   UNL     1       1.123  -3.444   2.149  0.00  0.00    +0.046 A 
ATOM     25  C   UNL     1       1.977  -3.855   3.199  0.00  0.00    +0.041 A 
ATOM     26  C   UNL     1       3.209  -3.410   2.895  0.00  0.00    +0.195 A 
ATOM     27  O   UNL     1       3.149  -2.759   1.722  0.00  0.00    -0.466 OA
ENDBRANCH   1  23
TORSDOF 4
