REMARK  Name = ZINC50696579
REMARK  5 active torsions:
REMARK  status: ('A' for Active; 'I' for Inactive)
REMARK    1  A    between atoms: C_1  and  C_2
REMARK    2  A    between atoms: C_7  and  C_22
REMARK    3  A    between atoms: C_10  and  C_12
REMARK    4  A    between atoms: C_15  and  N_21
REMARK    5  A    between atoms: C_16  and  N_18
REMARK                            x       y       z     vdW  Elec       q    Type
REMARK                         _______ _______ _______ _____ _____    ______ ____
ROOT
ATOM      1  C   UNL     1       2.461  -0.022   2.970  0.00  0.00    +0.039 A 
ATOM      2  C   UNL     1       2.537  -1.417   3.043  0.00  0.00    +0.015 A 
ATOM      3  C   UNL     1       3.301  -2.012   4.021  0.00  0.00    +0.026 A 
ATOM      4  C   UNL     1       3.997  -1.227   4.937  0.00  0.00    +0.055 A 
ATOM      5  C   UNL     1       3.923   0.161   4.867  0.00  0.00    +0.147 A 
ATOM      6  C   UNL     1       3.166   0.762   3.887  0.00  0.00    +0.047 A 
ENDROOT
BRANCH   1  14
ATOM      7  C   UNL     1       0.350   1.948  -0.023  0.00  0.00    +0.028 C 
ATOM      8  C   UNL     1      -0.190   0.554   0.302  0.00  0.00    +0.074 C 
ATOM      9  C   UNL     1      -1.668   0.654   0.694  0.00  0.00    +0.022 C 
ATOM     10  C   UNL     1      -2.164  -0.719   1.152  0.00  0.00    +0.004 C 
ATOM     11  C   UNL     1      -1.369  -1.169   2.379  0.00  0.00    +0.022 C 
ATOM     12  C   UNL     1       0.112  -1.290   2.006  0.00  0.00    +0.074 C 
ATOM     13  N   UNL     1       0.563  -0.016   1.428  0.00  0.00    -0.292 N 
ATOM     14  C   UNL     1       1.644   0.619   1.923  0.00  0.00    +0.247 C 
ATOM     15  O   UNL     1       1.945   1.721   1.506  0.00  0.00    -0.270 OA
ATOM     16  C   UNL     1       0.293  -2.411   0.981  0.00  0.00    +0.028 C 
ENDBRANCH   1  14
BRANCH   5  17
ATOM     17  N   UNL     1       4.664   0.991   5.843  0.00  0.00    +0.058 N 
ATOM     18  O   UNL     1       4.172   2.012   6.264  0.00  0.00    -0.126 OA
ATOM     19  O   UNL     1       5.761   0.648   6.218  0.00  0.00    -0.126 OA
ENDBRANCH   5  17
BRANCH   4  20
ATOM     20  N   UNL     1       4.767  -1.832   5.924  0.00  0.00    -0.356 N 
ATOM     21  H   UNL     1       4.774  -2.798   6.010  0.00  0.00    +0.142 HD
ATOM     22  H   UNL     1       5.298  -1.288   6.527  0.00  0.00    +0.142 HD
ENDBRANCH   4  20
TORSDOF 3
