REMARK  Name = ZINC36202410
REMARK  19 active torsions:
REMARK  status: ('A' for Active; 'I' for Inactive)
REMARK    1  A    between atoms: C_1  and  C_2
REMARK    2  A    between atoms: C_2  and  C_3
REMARK    3  A    between atoms: C_3  and  N_4
REMARK    4  A    between atoms: N_4  and  C_5
REMARK    5  A    between atoms: N_4  and  C_16
REMARK    6  A    between atoms: C_5  and  C_6
REMARK    7  A    between atoms: C_10  and  O_14
REMARK    8  A    between atoms: C_11  and  O_12
REMARK    9  A    between atoms: O_12  and  C_13
REMARK   10  A    between atoms: O_14  and  C_15
REMARK   11  A    between atoms: C_16  and  C_17
REMARK   12  A    between atoms: C_20  and  C_22
REMARK   13  A    between atoms: C_22  and  C_23
REMARK   14  A    between atoms: C_22  and  C_27
REMARK   15  A    between atoms: C_22  and  O_31
REMARK   16  A    between atoms: C_24  and  C_25
REMARK   17  A    between atoms: C_24  and  C_26
REMARK   18  A    between atoms: C_28  and  C_29
REMARK   19  A    between atoms: C_28  and  C_30
REMARK                            x       y       z     vdW  Elec       q    Type
REMARK                         _______ _______ _______ _____ _____    ______ ____
ROOT
ATOM      1  C   UNL     1       0.733  -5.849  -1.113  0.00  0.00    -0.003 C 
ENDROOT
BRANCH   1   2
ATOM      2  C   UNL     1       0.580  -4.606  -1.951  0.00  0.00    +0.089 A 
ATOM      3  C   UNL     1       1.553  -3.720  -2.229  0.00  0.00    +0.043 A 
ATOM      4  C   UNL     1       0.974  -2.717  -3.041  0.00  0.00    +0.048 A 
ATOM      5  C   UNL     1      -0.318  -3.050  -3.210  0.00  0.00    +0.144 A 
ATOM      6  O   UNL     1      -0.549  -4.199  -2.553  0.00  0.00    -0.463 OA
BRANCH   5   7
ATOM      7  C   UNL     1      -1.332  -2.271  -4.007  0.00  0.00    +0.160 C 
BRANCH   7   8
ATOM      8  C   UNL     1      -2.358  -3.217  -4.576  0.00  0.00    +0.018 C 
ATOM      9  C   UNL     1      -2.939  -2.943  -5.717  0.00  0.00    -0.076 C 
ATOM     10  C   UNL     1      -2.707  -1.610  -6.381  0.00  0.00    +0.038 C 
ATOM     11  C   UNL     1      -3.840  -3.961  -6.368  0.00  0.00    +0.038 C 
ENDBRANCH   7   8
BRANCH   7  12
ATOM     12  C   UNL     1      -2.014  -1.270  -3.110  0.00  0.00    +0.018 C 
ATOM     13  C   UNL     1      -1.668  -0.007  -3.155  0.00  0.00    -0.076 C 
ATOM     14  C   UNL     1      -0.434   0.409  -3.914  0.00  0.00    +0.038 C 
ATOM     15  C   UNL     1      -2.503   1.029  -2.449  0.00  0.00    +0.038 C 
ENDBRANCH   7  12
BRANCH   7  16
ATOM     16  O   UNL     1      -0.674  -1.584  -5.073  0.00  0.00    -0.373 OA
ATOM     17  H   UNL     1      -0.267  -2.170  -5.726  0.00  0.00    +0.212 HD
ENDBRANCH   7  16
ENDBRANCH   5   7
ENDBRANCH   1   2
BRANCH   1  18
ATOM     18  N   UNL     1       0.574  -5.504   0.306  0.00  0.00    +0.387 N 
ATOM     19  H   UNL     1       1.247  -4.796   0.558  0.00  0.00    -0.081 HD
BRANCH  18  20
ATOM     20  C   UNL     1       0.793  -6.702   1.128  0.00  0.00    -0.078 C 
BRANCH  20  22
ATOM     21  C   UNL     1       2.503  -8.348   1.909  0.00  0.00    +0.002 C 
ATOM     22  C   UNL     1       2.234  -7.186   0.951  0.00  0.00    -0.022 C 
ENDBRANCH  20  22
ENDBRANCH  18  20
BRANCH  18  23
ATOM     23  C   UNL     1      -0.784  -4.994   0.537  0.00  0.00    -0.039 C 
BRANCH  23  24
ATOM     24  C   UNL     1      -0.909  -4.527   1.964  0.00  0.00    -0.019 A 
ATOM     25  C   UNL     1      -1.510  -5.339   2.908  0.00  0.00    +0.005 A 
ATOM     26  C   UNL     1      -1.627  -4.914   4.218  0.00  0.00    +0.004 A 
ATOM     27  C   UNL     1      -1.143  -3.673   4.590  0.00  0.00    +0.049 A 
ATOM     28  C   UNL     1      -0.541  -2.853   3.650  0.00  0.00    +0.162 A 
ATOM     29  C   UNL     1      -0.418  -3.285   2.332  0.00  0.00    +0.163 A 
BRANCH  29  30
ATOM     30  O   UNL     1       0.178  -2.487   1.406  0.00  0.00    -0.491 OA
ATOM     31  C   UNL     1      -0.664  -1.579   0.693  0.00  0.00    +0.277 C 
ENDBRANCH  29  30
BRANCH  28  32
ATOM     32  O   UNL     1      -0.065  -1.633   4.014  0.00  0.00    -0.491 OA
ATOM     33  C   UNL     1      -0.220  -1.259   5.385  0.00  0.00    +0.277 C 
ENDBRANCH  28  32
ENDBRANCH  23  24
ENDBRANCH  18  23
ENDBRANCH   1  18
TORSDOF 12
