REMARK  Name = ZINC05054668
REMARK  8 active torsions:
REMARK  status: ('A' for Active; 'I' for Inactive)
REMARK    1  A    between atoms: C_1  and  O_2
REMARK    2  A    between atoms: O_2  and  C_3
REMARK    3  A    between atoms: C_5  and  C_13
REMARK    4  A    between atoms: C_7  and  O_11
REMARK    5  A    between atoms: C_8  and  O_9
REMARK    6  A    between atoms: O_9  and  C_10
REMARK    7  A    between atoms: O_11  and  C_12
REMARK    8  A    between atoms: N_19  and  C_20
REMARK                            x       y       z     vdW  Elec       q    Type
REMARK                         _______ _______ _______ _____ _____    ______ ____
ROOT
ATOM      1  C   UNL     1      -0.074   5.602   0.032  0.00  0.00    +0.028 C 
ATOM      2  C   UNL     1       0.886   6.290   0.701  0.00  0.00    +0.078 C 
ATOM      3  C   UNL     1       1.010   7.742   0.927  0.00  0.00    +0.256 C 
ATOM      4  O   UNL     1       0.186   8.527   0.495  0.00  0.00    -0.269 OA
ATOM      5  N   UNL     1       2.057   8.154   1.623  0.00  0.00    -0.260 N 
ATOM      6  C   UNL     1       2.979   7.250   2.104  0.00  0.00    +0.166 C 
ATOM      7  N   UNL     1       4.065   7.486   2.806  0.00  0.00    -0.226 NA
ATOM      8  S   UNL     1       2.335   5.680   1.550  0.00  0.00    -0.049 S 
ATOM      9  H   UNL     1       2.177   9.101   1.795  0.00  0.00    +0.157 HD
ENDROOT
BRANCH   7  10
ATOM     10  C   UNL     1       4.395   8.771   3.145  0.00  0.00    +0.067 A 
ATOM     11  C   UNL     1       4.324   9.787   2.190  0.00  0.00    +0.030 A 
ATOM     12  C   UNL     1       4.653  11.081   2.539  0.00  0.00    +0.040 A 
ATOM     13  C   UNL     1       5.063  11.370   3.830  0.00  0.00    +0.124 A 
ATOM     14  C   UNL     1       5.141  10.364   4.780  0.00  0.00    +0.040 A 
ATOM     15  C   UNL     1       4.810   9.068   4.444  0.00  0.00    +0.030 A 
ATOM     16  F   UNL     1       5.389  12.638   4.165  0.00  0.00    -0.205 F 
ENDBRANCH   7  10
BRANCH   1  19
ATOM     17  C   UNL     1      -0.859   2.028  -0.799  0.00  0.00    +0.166 A 
ATOM     18  C   UNL     1      -1.017   3.381  -0.567  0.00  0.00    +0.057 A 
ATOM     19  C   UNL     1       0.089   4.162  -0.211  0.00  0.00    -0.017 A 
ATOM     20  C   UNL     1       1.350   3.568  -0.087  0.00  0.00    +0.057 A 
ATOM     21  C   UNL     1       1.500   2.214  -0.317  0.00  0.00    +0.166 A 
ATOM     22  C   UNL     1       0.397   1.440  -0.670  0.00  0.00    +0.204 A 
BRANCH  17  24
ATOM     23  C   UNL     1      -3.189   1.938  -1.264  0.00  0.00    +0.277 C 
ATOM     24  O   UNL     1      -1.931   1.269  -1.150  0.00  0.00    -0.491 OA
ENDBRANCH  17  24
BRANCH  22  25
ATOM     25  O   UNL     1       0.548   0.108  -0.895  0.00  0.00    -0.488 OA
ATOM     26  C   UNL     1       0.390  -0.762   0.227  0.00  0.00    +0.277 C 
ENDBRANCH  22  25
BRANCH  21  27
ATOM     27  O   UNL     1       2.724   1.635  -0.198  0.00  0.00    -0.491 OA
ATOM     28  C   UNL     1       3.812   2.488   0.168  0.00  0.00    +0.277 C 
ENDBRANCH  21  27
ENDBRANCH   1  19
TORSDOF 5
