REMARK  Name = ZINC29463604
REMARK  15 active torsions:
REMARK  status: ('A' for Active; 'I' for Inactive)
REMARK    1  A    between atoms: C_1  and  C_2
REMARK    2  A    between atoms: C_2  and  C_4
REMARK    3  A    between atoms: C_2  and  O_40
REMARK    4  A    between atoms: C_4  and  N_5
REMARK    5  A    between atoms: N_5  and  C_6
REMARK    6  A    between atoms: C_6  and  C_7
REMARK    7  A    between atoms: C_6  and  C_8
REMARK    8  A    between atoms: C_6  and  C_9
REMARK    9  A    between atoms: C_9  and  C_10
REMARK   10  A    between atoms: N_12  and  C_13
REMARK   11  A    between atoms: C_13  and  C_15
REMARK   12  A    between atoms: C_13  and  C_24
REMARK   13  A    between atoms: C_15  and  O_16
REMARK   14  A    between atoms: O_16  and  C_17
REMARK   15  A    between atoms: C_17  and  C_18
REMARK                            x       y       z     vdW  Elec       q    Type
REMARK                         _______ _______ _______ _____ _____    ______ ____
ROOT
ATOM      1  C   UNL     1      -1.291   1.681   0.017  0.00  0.00    +0.185 C 
ENDROOT
BRANCH   1   2
ATOM      2  C   UNL     1      -2.423   0.923  -0.626  0.00  0.00    +0.238 C 
ATOM      3  O   UNL     1      -2.414  -0.290  -0.632  0.00  0.00    -0.273 OA
ATOM      4  N   UNL     1      -3.446   1.592  -1.193  0.00  0.00    -0.300 N 
ATOM      5  C   UNL     1      -3.421   3.059  -1.285  0.00  0.00    +0.108 C 
ATOM      6  C   UNL     1      -3.641   3.459  -2.752  0.00  0.00    +0.030 C 
ATOM      7  C   UNL     1      -4.921   2.808  -3.268  0.00  0.00    -0.001 C 
ATOM      8  C   UNL     1      -6.128   3.302  -2.449  0.00  0.00    +0.016 C 
ATOM      9  C   UNL     1      -7.247   3.359  -3.512  0.00  0.00    +0.036 C 
ATOM     10  C   UNL     1      -6.531   3.559  -4.831  0.00  0.00    -0.044 A 
ATOM     11  C   UNL     1      -5.192   3.240  -4.690  0.00  0.00    -0.038 A 
ATOM     12  C   UNL     1      -4.341   3.345  -5.777  0.00  0.00    +0.004 A 
ATOM     13  C   UNL     1      -4.823   3.771  -6.999  0.00  0.00    +0.000 A 
ATOM     14  C   UNL     1      -6.160   4.092  -7.140  0.00  0.00    +0.000 A 
ATOM     15  C   UNL     1      -7.011   3.986  -6.057  0.00  0.00    +0.004 A 
ATOM     16  C   UNL     1      -4.822   1.288  -3.185  0.00  0.00    +0.030 C 
ATOM     17  C   UNL     1      -4.609   0.870  -1.726  0.00  0.00    +0.108 C 
ENDBRANCH   1   2
BRANCH   1  20
ATOM     18  C   UNL     1       1.108   1.312   0.230  0.00  0.00    +0.212 C 
ATOM     19  O   UNL     1       1.270   2.512   0.160  0.00  0.00    -0.276 OA
ATOM     20  N   UNL     1      -0.135   0.795   0.171  0.00  0.00    -0.302 N 
ATOM     21  H   UNL     1      -0.282  -0.293   0.239  0.00  0.00    +0.150 HD
BRANCH  18  22
ATOM     22  C   UNL     1       2.298   0.400   0.383  0.00  0.00    +0.083 C 
BRANCH  22  23
ATOM     23  C   UNL     1       3.579   1.234   0.423  0.00  0.00    -0.066 C 
ATOM     24  C   UNL     1       3.710   2.030  -0.877  0.00  0.00    -0.010 C 
ATOM     25  C   UNL     1       3.522   2.200   1.608  0.00  0.00    -0.010 C 
BRANCH  23  26
ATOM     26  N   UNL     1       4.739   0.345   0.572  0.00  0.00    +0.384 N 
ATOM     27  H   UNL     1       4.763  -0.349  -0.282  0.00  0.00    -0.085 HD
ATOM     28  H   UNL     1       4.628  -0.227   1.505  0.00  0.00    -0.085 HD
BRANCH  26  29
ATOM     29  C   UNL     1       5.990   1.113   0.614  0.00  0.00    -0.050 C 
BRANCH  29  31
ATOM     30  C   UNL     1       8.475   0.955   0.813  0.00  0.00    +0.035 C 
ATOM     31  C   UNL     1       7.172   0.155   0.769  0.00  0.00    +0.095 C 
BRANCH  31  32
ATOM     32  O   UNL     1       7.028  -0.587   1.982  0.00  0.00    -0.394 OA
ATOM     33  H   UNL     1       6.146  -1.227   2.134  0.00  0.00    +0.210 HD
ENDBRANCH  31  32
ENDBRANCH  29  31
ENDBRANCH  26  29
ENDBRANCH  23  26
ENDBRANCH  22  23
ENDBRANCH  18  22
ENDBRANCH   1  20
BRANCH   1  34
ATOM     34  C   UNL     1      -1.732   2.188   1.391  0.00  0.00    +0.192 C 
BRANCH  34  35
ATOM     35  O   UNL     1      -2.186   1.088   2.182  0.00  0.00    -0.373 OA
BRANCH  35  36
ATOM     36  C   UNL     1      -2.623   1.455   3.492  0.00  0.00    +0.195 C 
BRANCH  36  37
ATOM     37  C   UNL     1      -3.077   0.224   4.233  0.00  0.00    -0.022 A 
ATOM     38  C   UNL     1      -4.398  -0.178   4.162  0.00  0.00    +0.006 A 
ATOM     39  C   UNL     1      -4.814  -1.310   4.837  0.00  0.00    +0.000 A 
ATOM     40  C   UNL     1      -3.911  -2.035   5.593  0.00  0.00    +0.000 A 
ATOM     41  C   UNL     1      -2.591  -1.630   5.668  0.00  0.00    +0.000 A 
ATOM     42  C   UNL     1      -2.174  -0.501   4.989  0.00  0.00    +0.006 A 
ENDBRANCH  36  37
ENDBRANCH  35  36
ENDBRANCH  34  35
ENDBRANCH   1  34
TORSDOF 12
