REMARK  Name = ZINC60091045
REMARK  11 active torsions:
REMARK  status: ('A' for Active; 'I' for Inactive)
REMARK    1  A    between atoms: C_1  and  C_2
REMARK    2  A    between atoms: C_2  and  C_3
REMARK    3  A    between atoms: C_3  and  C_4
REMARK    4  A    between atoms: C_4  and  C_6
REMARK    5  A    between atoms: C_4  and  N_26
REMARK    6  A    between atoms: N_8  and  C_9
REMARK    7  A    between atoms: C_12  and  O_23
REMARK    8  A    between atoms: C_13  and  S_15
REMARK    9  A    between atoms: S_15  and  N_18
REMARK   10  A    between atoms: O_23  and  C_24
REMARK   11  A    between atoms: C_24  and  C_25
REMARK                            x       y       z     vdW  Elec       q    Type
REMARK                         _______ _______ _______ _____ _____    ______ ____
ROOT
ATOM      1  C   UNL     1      -4.821  -2.859   1.345  0.00  0.00    +0.036 A 
ATOM      2  C   UNL     1      -5.276  -3.736   0.369  0.00  0.00    +0.027 A 
ATOM      3  C   UNL     1      -6.526  -4.310   0.487  0.00  0.00    +0.049 A 
ATOM      4  C   UNL     1      -7.327  -4.012   1.580  0.00  0.00    +0.147 A 
ATOM      5  C   UNL     1      -6.873  -3.137   2.555  0.00  0.00    +0.149 A 
ATOM      6  C   UNL     1      -5.620  -2.566   2.442  0.00  0.00    +0.055 A 
ENDROOT
BRANCH   1   9
ATOM      7  C   UNL     1      -2.810  -2.049   2.328  0.00  0.00    +0.238 C 
ATOM      8  O   UNL     1      -3.271  -2.271   3.428  0.00  0.00    -0.273 OA
ATOM      9  N   UNL     1      -3.552  -2.276   1.227  0.00  0.00    -0.284 N 
ATOM     10  H   UNL     1      -3.209  -2.035   0.352  0.00  0.00    +0.155 HD
BRANCH   7  11
ATOM     11  C   UNL     1      -1.405  -1.519   2.194  0.00  0.00    +0.161 C 
BRANCH  11  12
ATOM     12  N   UNL     1      -0.814  -1.359   3.525  0.00  0.00    -0.288 N 
ATOM     13  C   UNL     1       0.180  -0.470   3.719  0.00  0.00    +0.298 C 
ATOM     14  O   UNL     1       0.586   0.200   2.788  0.00  0.00    -0.253 OA
ATOM     15  N   UNL     1       0.724  -0.323   4.943  0.00  0.00    -0.313 N 
ATOM     16  H   UNL     1      -1.139  -1.893   4.267  0.00  0.00    +0.151 HD
ATOM     17  H   UNL     1       0.399  -0.857   5.685  0.00  0.00    +0.146 HD
ATOM     18  H   UNL     1       1.439   0.317   5.082  0.00  0.00    +0.146 HD
ENDBRANCH  11  12
BRANCH  11  19
ATOM     19  C   UNL     1      -0.565  -2.503   1.378  0.00  0.00    +0.031 C 
BRANCH  19  21
ATOM     20  C   UNL     1       1.665  -2.892   0.319  0.00  0.00    +0.004 C 
ATOM     21  C   UNL     1       0.824  -1.908   1.135  0.00  0.00    -0.001 C 
ENDBRANCH  19  21
ENDBRANCH  11  19
ENDBRANCH   7  11
ENDBRANCH   1   9
BRANCH   5  22
ATOM     22  S   UNL     1      -7.891  -2.758   3.942  0.00  0.00    +0.064 S 
ATOM     23  O   UNL     1      -8.354  -3.999   4.457  0.00  0.00    -0.153 OA
ATOM     24  O   UNL     1      -7.168  -1.827   4.735  0.00  0.00    -0.153 OA
BRANCH  22  25
ATOM     25  N   UNL     1      -9.223  -1.958   3.368  0.00  0.00    -0.176 NA
ATOM     26  C   UNL     1      -9.340  -0.502   3.199  0.00  0.00    +0.109 C 
ATOM     27  C   UNL     1     -10.759  -0.216   2.664  0.00  0.00    +0.018 C 
ATOM     28  C   UNL     1     -11.554  -1.476   3.097  0.00  0.00    +0.018 C 
ATOM     29  C   UNL     1     -10.484  -2.587   2.937  0.00  0.00    +0.109 C 
ENDBRANCH  22  25
ENDBRANCH   5  22
BRANCH   4  30
ATOM     30  O   UNL     1      -8.558  -4.579   1.694  0.00  0.00    -0.490 OA
BRANCH  30  31
ATOM     31  C   UNL     1      -8.962  -5.470   0.653  0.00  0.00    +0.226 C 
ATOM     32  C   UNL     1     -10.364  -6.004   0.954  0.00  0.00    +0.048 C 
ENDBRANCH  30  31
ENDBRANCH   4  30
TORSDOF 9
