REMARK  Name = ZINC40132501
REMARK  8 active torsions:
REMARK  status: ('A' for Active; 'I' for Inactive)
REMARK    1  A    between atoms: C_1  and  C_2
REMARK    2  A    between atoms: C_5  and  C_8
REMARK    3  A    between atoms: C_9  and  C_10
REMARK    4  A    between atoms: C_10  and  O_12
REMARK    5  A    between atoms: O_12  and  C_13
REMARK    6  A    between atoms: C_16  and  C_19
REMARK    7  A    between atoms: C_26  and  C_31
REMARK    8  A    between atoms: C_27  and  C_30
REMARK                            x       y       z     vdW  Elec       q    Type
REMARK                         _______ _______ _______ _____ _____    ______ ____
ROOT
ATOM      1  C   UNL     1       0.110  -8.426   2.346  0.00  0.00    +0.132 A 
ATOM      2  C   UNL     1       0.133  -9.158   1.164  0.00  0.00    +0.047 A 
ATOM      3  C   UNL     1       0.113 -10.533   1.202  0.00  0.00    +0.011 A 
ATOM      4  C   UNL     1       0.070 -11.196   2.436  0.00  0.00    -0.021 A 
ATOM      5  C   UNL     1       0.047 -10.454   3.624  0.00  0.00    +0.011 A 
ATOM      6  C   UNL     1       0.073  -9.079   3.574  0.00  0.00    +0.047 A 
ENDROOT
BRANCH   4   7
ATOM      7  C   UNL     1       0.048 -12.663   2.483  0.00  0.00    +0.058 C 
ATOM      8  C   UNL     1       0.196 -13.382   1.340  0.00  0.00    +0.176 C 
ATOM      9  C   UNL     1       0.297 -14.845   1.240  0.00  0.00    +0.231 C 
ATOM     10  O   UNL     1       0.267 -15.658   2.147  0.00  0.00    -0.283 OA
ATOM     11  C   UNL     1       0.443 -15.107  -0.205  0.00  0.00    +0.068 A 
ATOM     12  C   UNL     1       0.584 -16.275  -0.953  0.00  0.00    +0.016 A 
ATOM     13  C   UNL     1       0.703 -16.197  -2.324  0.00  0.00    +0.004 A 
ATOM     14  C   UNL     1       0.681 -14.962  -2.954  0.00  0.00    -0.044 A 
ATOM     15  C   UNL     1       0.543 -13.801  -2.224  0.00  0.00    -0.005 A 
ATOM     16  C   UNL     1       0.421 -13.856  -0.838  0.00  0.00    +0.143 A 
ATOM     17  O   UNL     1       0.271 -12.881   0.084  0.00  0.00    -0.451 OA
ATOM     18  C   UNL     1       0.523 -12.468  -2.927  0.00  0.00    +0.048 C 
ATOM     19  C   UNL     1       0.812 -14.888  -4.454  0.00  0.00    +0.044 C 
ENDBRANCH   4   7
BRANCH   1  20
ATOM     20  O   UNL     1       0.130  -7.069   2.303  0.00  0.00    -0.423 OA
BRANCH  20  21
ATOM     21  C   UNL     1      -1.007  -6.430   1.954  0.00  0.00    +0.337 C 
ATOM     22  O   UNL     1      -1.980  -7.069   1.603  0.00  0.00    -0.245 OA
BRANCH  21  24
ATOM     23  C   UNL     1      -2.203  -4.331   1.649  0.00  0.00    +0.015 C 
ATOM     24  C   UNL     1      -1.067  -4.970   1.998  0.00  0.00    +0.092 C 
BRANCH  23  29
ATOM     25  C   UNL     1      -2.441   1.410   1.824  0.00  0.00    +0.044 C 
ATOM     26  C   UNL     1      -2.379  -0.095   1.778  0.00  0.00    -0.050 A 
ATOM     27  C   UNL     1      -3.489  -0.818   1.378  0.00  0.00    +0.004 A 
ATOM     28  C   UNL     1      -3.440  -2.195   1.333  0.00  0.00    +0.008 A 
ATOM     29  C   UNL     1      -2.264  -2.861   1.694  0.00  0.00    -0.025 A 
ATOM     30  C   UNL     1      -1.147  -2.123   2.098  0.00  0.00    +0.008 A 
ATOM     31  C   UNL     1      -1.210  -0.747   2.132  0.00  0.00    +0.004 A 
ENDBRANCH  23  29
ENDBRANCH  21  24
ENDBRANCH  20  21
ENDBRANCH   1  20
TORSDOF 5
