REMARK  Name = ZINC13064928
REMARK  13 active torsions:
REMARK  status: ('A' for Active; 'I' for Inactive)
REMARK    1  A    between atoms: C_1  and  C_2
REMARK    2  A    between atoms: C_2  and  C_3
REMARK    3  A    between atoms: C_3  and  C_5
REMARK    4  A    between atoms: C_3  and  N_73
REMARK    5  A    between atoms: N_9  and  C_10
REMARK    6  A    between atoms: C_10  and  C_11
REMARK    7  A    between atoms: C_17  and  C_18
REMARK    8  A    between atoms: C_17  and  N_73
REMARK    9  A    between atoms: C_21  and  C_24
REMARK   10  A    between atoms: C_25  and  C_26
REMARK   11  A    between atoms: C_25  and  N_73
REMARK   12  A    between atoms: C_29  and  C_39
REMARK   13  A    between atoms: C_31  and  C_38
REMARK                            x       y       z     vdW  Elec       q    Type
REMARK                         _______ _______ _______ _____ _____    ______ ____
ROOT
ATOM      1  N   UNL     1       1.469  -2.593  -1.468  0.00  0.00    +0.392 N 
ATOM      2  H   UNL     1       2.290  -2.113  -1.856  0.00  0.00    -0.080 HD
ENDROOT
BRANCH   1   3
ATOM      3  C   UNL     1       1.529  -4.022  -1.838  0.00  0.00    +0.003 C 
BRANCH   3   4
ATOM      4  C   UNL     1       0.196  -4.685  -1.605  0.00  0.00    +0.138 A 
ATOM      5  N   UNL     1      -0.970  -4.269  -2.036  0.00  0.00    -0.115 NA
ATOM      6  N   UNL     1      -1.864  -5.104  -1.632  0.00  0.00    -0.023 NA
ATOM      7  N   UNL     1      -1.300  -6.037  -0.948  0.00  0.00    -0.044 NA
ATOM      8  N   UNL     1      -0.030  -5.814  -0.908  0.00  0.00    -0.228 N 
BRANCH   8   9
ATOM      9  C   UNL     1       0.977  -6.635  -0.232  0.00  0.00    +0.178 C 
BRANCH   9  10
ATOM     10  C   UNL     1       1.154  -6.145   1.206  0.00  0.00    +0.140 C 
ATOM     11  C   UNL     1       2.294  -6.929   1.891  0.00  0.00    +0.035 C 
ATOM     12  C   UNL     1       1.738  -7.134   3.326  0.00  0.00    +0.031 C 
ATOM     13  C   UNL     1       0.224  -7.289   3.035  0.00  0.00    +0.160 C 
ATOM     14  O   UNL     1      -0.045  -6.385   1.952  0.00  0.00    -0.375 OA
ENDBRANCH   9  10
ENDBRANCH   8   9
ENDBRANCH   3   4
BRANCH   3  16
ATOM     15  C   UNL     1       3.308  -3.569  -3.533  0.00  0.00    +0.002 C 
ATOM     16  C   UNL     1       1.901  -4.132  -3.318  0.00  0.00    -0.011 C 
ENDBRANCH   3  16
ENDBRANCH   1   3
BRANCH   1  17
ATOM     17  C   UNL     1       1.481  -2.450   0.003  0.00  0.00    -0.042 C 
BRANCH  17  18
ATOM     18  C   UNL     1       2.908  -2.532   0.483  0.00  0.00    -0.064 A 
ATOM     19  C   UNL     1       3.632  -1.374   0.694  0.00  0.00    +0.002 A 
ATOM     20  C   UNL     1       4.941  -1.448   1.135  0.00  0.00    +0.003 A 
ATOM     21  C   UNL     1       5.524  -2.680   1.365  0.00  0.00    -0.050 A 
ATOM     22  C   UNL     1       4.799  -3.838   1.152  0.00  0.00    +0.003 A 
ATOM     23  C   UNL     1       3.491  -3.764   0.712  0.00  0.00    +0.002 A 
ATOM     24  C   UNL     1       6.950  -2.762   1.845  0.00  0.00    +0.044 C 
ENDBRANCH  17  18
ENDBRANCH   1  17
BRANCH   1  25
ATOM     25  C   UNL     1       0.245  -1.978  -2.025  0.00  0.00    -0.036 C 
BRANCH  25  26
ATOM     26  C   UNL     1       0.440  -0.485  -2.084  0.00  0.00    +0.001 A 
ATOM     27  C   UNL     1       0.934   0.088  -3.209  0.00  0.00    +0.017 A 
ATOM     28  C   UNL     1       1.106   1.542  -3.236  0.00  0.00    +0.002 A 
ATOM     29  C   UNL     1       1.607   2.190  -4.370  0.00  0.00    -0.041 A 
ATOM     30  C   UNL     1       1.760   3.547  -4.362  0.00  0.00    +0.007 A 
ATOM     31  C   UNL     1       1.424   4.289  -3.237  0.00  0.00    -0.048 A 
ATOM     32  C   UNL     1       0.930   3.672  -2.109  0.00  0.00    +0.029 A 
ATOM     33  C   UNL     1       0.765   2.290  -2.094  0.00  0.00    +0.050 A 
ATOM     34  N   UNL     1       0.272   1.646  -0.979  0.00  0.00    -0.322 N 
ATOM     35  H   UNL     1       0.037   2.164  -0.193  0.00  0.00    +0.169 HD
ATOM     36  C   UNL     1       0.112   0.311  -0.966  0.00  0.00    +0.251 A 
ATOM     37  O   UNL     1      -0.326  -0.224   0.037  0.00  0.00    -0.268 OA
ATOM     38  C   UNL     1       1.602   5.786  -3.251  0.00  0.00    +0.044 C 
ATOM     39  C   UNL     1       1.975   1.395  -5.596  0.00  0.00    +0.044 C 
ENDBRANCH  25  26
ENDBRANCH   1  25
TORSDOF 9
