REMARK  Name = ZINC36450985
REMARK  8 active torsions:
REMARK  status: ('A' for Active; 'I' for Inactive)
REMARK    1  A    between atoms: C_1  and  C_2
REMARK    2  A    between atoms: C_2  and  N_3
REMARK    3  A    between atoms: N_3  and  C_4
REMARK    4  A    between atoms: N_3  and  C_17
REMARK    5  A    between atoms: C_4  and  C_5
REMARK    6  A    between atoms: C_17  and  C_18
REMARK    7  A    between atoms: C_21  and  C_33
REMARK    8  A    between atoms: C_24  and  C_26
REMARK                            x       y       z     vdW  Elec       q    Type
REMARK                         _______ _______ _______ _____ _____    ______ ____
ROOT
ATOM      1  C   UNL     1      -0.118   1.216  -2.846  0.00  0.00    +0.250 C 
ATOM      2  O   UNL     1       0.484   1.986  -2.129  0.00  0.00    -0.272 OA
ATOM      3  N   UNL     1      -0.735   1.669  -3.956  0.00  0.00    -0.181 N 
ATOM      4  C   UNL     1      -0.752   3.067  -4.414  0.00  0.00    +0.173 C 
ATOM      5  C   UNL     1      -1.585   3.013  -5.710  0.00  0.00    +0.090 C 
ATOM      6  C   UNL     1      -1.957   1.553  -5.843  0.00  0.00    +0.069 C 
ATOM      7  N   UNL     1      -1.455   0.890  -4.859  0.00  0.00    -0.181 NA
ENDROOT
BRANCH   6   8
ATOM      8  C   UNL     1      -2.763   0.976  -6.934  0.00  0.00    -0.002 A 
ATOM      9  C   UNL     1      -3.246   1.795  -7.958  0.00  0.00    +0.011 A 
ATOM     10  C   UNL     1      -3.999   1.249  -8.976  0.00  0.00    +0.020 A 
ATOM     11  C   UNL     1      -4.278  -0.107  -8.985  0.00  0.00    +0.041 A 
ATOM     12  C   UNL     1      -3.803  -0.924  -7.973  0.00  0.00    +0.020 A 
ATOM     13  C   UNL     1      -3.043  -0.392  -6.952  0.00  0.00    +0.011 A 
ATOM     14 CL   UNL     1      -5.228  -0.786 -10.269  0.00  0.00    -0.084 Cl
ENDBRANCH   6   8
BRANCH   4  15
ATOM     15  C   UNL     1       0.647   3.549  -4.700  0.00  0.00    +0.128 A 
ATOM     16  C   UNL     1       1.130   4.774  -4.424  0.00  0.00    +0.046 A 
ATOM     17  C   UNL     1       2.476   4.791  -4.857  0.00  0.00    +0.041 A 
ATOM     18  C   UNL     1       2.735   3.576  -5.371  0.00  0.00    +0.195 A 
ATOM     19  O   UNL     1       1.626   2.825  -5.268  0.00  0.00    -0.466 OA
ENDBRANCH   4  15
BRANCH   1  20
ATOM     20  C   UNL     1      -0.177  -0.249  -2.498  0.00  0.00    +0.182 C 
BRANCH  20  21
ATOM     21  N   UNL     1       0.682  -0.510  -1.335  0.00  0.00    -0.287 NA
BRANCH  21  23
ATOM     22  C   UNL     1      -0.985  -1.739  -0.028  0.00  0.00    +0.020 C 
ATOM     23  C   UNL     1       0.371  -1.814  -0.733  0.00  0.00    +0.082 C 
ENDBRANCH  21  23
BRANCH  21  24
ATOM     24  C   UNL     1       2.102  -0.425  -1.700  0.00  0.00    +0.159 C 
BRANCH  24  25
ATOM     25  C   UNL     1       2.944  -0.453  -0.450  0.00  0.00    +0.125 A 
ATOM     26  N   UNL     1       4.295  -0.377  -0.581  0.00  0.00    -0.309 N 
ATOM     27  H   UNL     1       4.689  -0.308  -1.465  0.00  0.00    +0.170 HD
ATOM     28  C   UNL     1       5.095  -0.398   0.510  0.00  0.00    +0.259 A 
ATOM     29  O   UNL     1       6.306  -0.331   0.407  0.00  0.00    -0.267 OA
ATOM     30  C   UNL     1       4.445  -0.504   1.825  0.00  0.00    +0.065 A 
ATOM     31  C   UNL     1       5.177  -0.534   3.009  0.00  0.00    +0.015 A 
ATOM     32  C   UNL     1       4.516  -0.635   4.214  0.00  0.00    +0.001 A 
ATOM     33  C   UNL     1       3.130  -0.707   4.255  0.00  0.00    +0.002 A 
ATOM     34  C   UNL     1       2.388  -0.680   3.096  0.00  0.00    +0.028 A 
ATOM     35  C   UNL     1       3.034  -0.578   1.863  0.00  0.00    +0.078 A 
ATOM     36  N   UNL     1       2.342  -0.542   0.697  0.00  0.00    -0.232 NA
ENDBRANCH  24  25
ENDBRANCH  21  24
ENDBRANCH  20  21
ENDBRANCH   1  20
TORSDOF 7
