REMARK  Name = ZINC15988785
REMARK  7 active torsions:
REMARK  status: ('A' for Active; 'I' for Inactive)
REMARK    1  A    between atoms: C_3  and  C_6
REMARK    2  A    between atoms: C_6  and  C_8
REMARK    3  A    between atoms: C_6  and  N_65
REMARK    4  A    between atoms: C_8  and  N_9
REMARK    5  A    between atoms: C_10  and  C_12
REMARK    6  A    between atoms: C_16  and  S_18
REMARK    7  A    between atoms: S_18  and  N_21
REMARK                            x       y       z     vdW  Elec       q    Type
REMARK                         _______ _______ _______ _____ _____    ______ ____
ROOT
ATOM      1  N   UNL     1      -7.739   2.622   0.345  0.00  0.00    -0.312 N 
ATOM      2  C   UNL     1      -6.749   2.792   1.244  0.00  0.00    +0.244 C 
ATOM      3  O   UNL     1      -7.016   2.921   2.423  0.00  0.00    -0.270 OA
ATOM      4  H   UNL     1      -7.526   2.519  -0.596  0.00  0.00    +0.149 HD
ENDROOT
BRANCH   2   5
ATOM      5  C   UNL     1      -5.341   2.821   0.797  0.00  0.00    +0.039 A 
ATOM      6  C   UNL     1      -5.032   2.673  -0.556  0.00  0.00    +0.014 A 
ATOM      7  C   UNL     1      -3.716   2.700  -0.967  0.00  0.00    +0.023 A 
ATOM      8  C   UNL     1      -2.702   2.875  -0.040  0.00  0.00    +0.067 A 
ATOM      9  C   UNL     1      -3.002   3.022   1.304  0.00  0.00    +0.124 A 
ATOM     10  C   UNL     1      -4.314   2.991   1.727  0.00  0.00    +0.043 A 
ATOM     11 CL   UNL     1      -1.047   2.909  -0.566  0.00  0.00    -0.082 Cl
BRANCH   9  12
ATOM     12  S   UNL     1      -1.704   3.242   2.475  0.00  0.00    +0.062 S 
ATOM     13  O   UNL     1      -2.324   3.381   3.746  0.00  0.00    -0.153 OA
ATOM     14  O   UNL     1      -0.836   4.231   1.939  0.00  0.00    -0.153 OA
BRANCH  12  15
ATOM     15  N   UNL     1      -0.842   1.830   2.522  0.00  0.00    -0.177 NA
ATOM     16  C   UNL     1       0.426   1.683   1.729  0.00  0.00    +0.109 C 
ATOM     17  C   UNL     1       1.538   1.658   2.675  0.00  0.00    +0.017 C 
ATOM     18  C   UNL     1       1.457   0.542   3.713  0.00  0.00    +0.001 C 
ATOM     19  C   UNL     1       0.685   1.120   4.864  0.00  0.00    +0.001 C 
ATOM     20  C   UNL     1      -0.805   0.706   4.790  0.00  0.00    +0.017 C 
ATOM     21  C   UNL     1      -1.292   0.726   3.320  0.00  0.00    +0.109 C 
ENDBRANCH  12  15
ENDBRANCH   9  12
ENDBRANCH   2   5
BRANCH   1  22
ATOM     22  C   UNL     1      -9.134   2.594   0.788  0.00  0.00    +0.097 C 
BRANCH  22  23
ATOM     23  C   UNL     1     -10.040   2.264  -0.401  0.00  0.00    +0.016 C 
BRANCH  23  29
ATOM     24  C   UNL     1     -10.404   0.694  -2.207  0.00  0.00    -0.078 C 
ATOM     25  C   UNL     1      -9.825  -0.538  -2.907  0.00  0.00    -0.019 C 
ATOM     26  C   UNL     1      -9.830  -1.721  -1.935  0.00  0.00    -0.004 C 
ATOM     27  C   UNL     1      -9.024  -1.350  -0.687  0.00  0.00    -0.019 C 
ATOM     28  C   UNL     1      -9.626  -0.095  -0.051  0.00  0.00    -0.078 C 
ATOM     29  N   UNL     1      -9.569   1.013  -1.028  0.00  0.00    +0.387 N 
ATOM     30  H   UNL     1      -8.597   1.138  -1.333  0.00  0.00    -0.081 HD
ENDBRANCH  23  29
BRANCH  23  33
ATOM     31  C   UNL     1     -13.618   2.447   0.464  0.00  0.00    +0.041 A 
ATOM     32  C   UNL     1     -12.467   2.975  -0.165  0.00  0.00    +0.043 A 
ATOM     33  C   UNL     1     -11.462   2.115   0.077  0.00  0.00    +0.093 A 
ATOM     34  O   UNL     1     -11.938   1.104   0.822  0.00  0.00    -0.469 OA
ATOM     35  C   UNL     1     -13.245   1.300   1.059  0.00  0.00    +0.195 A 
ENDBRANCH  23  33
ENDBRANCH  22  23
ENDBRANCH   1  22
TORSDOF 7
