REMARK  Name = ZINC35807119
REMARK  6 active torsions:
REMARK  status: ('A' for Active; 'I' for Inactive)
REMARK    1  A    between atoms: C_1  and  C_2
REMARK    2  A    between atoms: C_7  and  C_8
REMARK    3  A    between atoms: C_23  and  C_31
REMARK    4  A    between atoms: C_31  and  C_33
REMARK    5  A    between atoms: C_38  and  O_39
REMARK    6  A    between atoms: O_39  and  C_40
REMARK                            x       y       z     vdW  Elec       q    Type
REMARK                         _______ _______ _______ _____ _____    ______ ____
ROOT
ATOM      1  C   UNL     1      -0.049   1.490   0.102  0.00  0.00    +0.044 C 
ATOM      2  C   UNL     1      -0.021  -0.017   0.075  0.00  0.00    -0.046 A 
ATOM      3  C   UNL     1      -0.024  -0.683  -1.136  0.00  0.00    +0.004 A 
ATOM      4  C   UNL     1       0.003  -2.067  -1.161  0.00  0.00    +0.005 A 
ATOM      5  C   UNL     1       0.032  -2.775   0.019  0.00  0.00    -0.026 A 
ATOM      6  C   UNL     1       0.033  -2.116   1.244  0.00  0.00    +0.039 A 
ATOM      7  C   UNL     1       0.013  -0.723   1.260  0.00  0.00    -0.026 A 
ATOM      8  C   UNL     1       0.021   0.014   2.574  0.00  0.00    +0.046 C 
ATOM      9  N   UNL     1       0.063  -3.041   2.289  0.00  0.00    -0.286 N 
ATOM     10  C   UNL     1       0.082  -4.310   1.845  0.00  0.00    +0.212 C 
ATOM     11  O   UNL     1       0.107  -5.314   2.526  0.00  0.00    -0.277 OA
ATOM     12  C   UNL     1       0.066  -4.248   0.338  0.00  0.00    +0.060 C 
ATOM     13  C   UNL     1      -1.149  -4.966  -0.233  0.00  0.00    +0.085 C 
ATOM     14  C   UNL     1      -1.782  -5.890   0.769  0.00  0.00    -0.011 A 
ATOM     15  C   UNL     1      -1.318  -6.966   1.491  0.00  0.00    +0.006 A 
ATOM     16  C   UNL     1      -2.164  -7.636   2.358  0.00  0.00    +0.000 A 
ATOM     17  C   UNL     1      -3.476  -7.221   2.496  0.00  0.00    +0.002 A 
ATOM     18  C   UNL     1      -3.945  -6.142   1.775  0.00  0.00    +0.023 A 
ATOM     19  C   UNL     1      -3.100  -5.463   0.901  0.00  0.00    +0.038 A 
ATOM     20  N   UNL     1      -3.336  -4.362   0.075  0.00  0.00    -0.285 N 
ATOM     21  C   UNL     1      -2.240  -4.008  -0.625  0.00  0.00    +0.228 C 
ATOM     22  O   UNL     1      -2.151  -3.093  -1.417  0.00  0.00    -0.275 OA
ATOM     23  C   UNL     1      -0.626  -5.744  -1.450  0.00  0.00    +0.066 C 
ATOM     24  C   UNL     1       0.857  -5.978  -1.116  0.00  0.00    -0.055 C 
ATOM     25  N   UNL     1       1.275  -4.873  -0.222  0.00  0.00    +0.395 N 
ATOM     26  C   UNL     1       1.956  -3.876  -1.088  0.00  0.00    -0.076 C 
ATOM     27  C   UNL     1       2.695  -4.736  -2.141  0.00  0.00    -0.020 C 
ATOM     28  C   UNL     1       1.706  -5.919  -2.393  0.00  0.00    -0.016 C 
ATOM     29  H   UNL     1       0.069  -2.796   3.228  0.00  0.00    +0.155 HD
ATOM     30  H   UNL     1      -4.189  -3.905   0.011  0.00  0.00    +0.155 HD
ATOM     31  H   UNL     1       1.881  -5.210   0.511  0.00  0.00    -0.079 HD
ENDROOT
BRANCH  23  32
ATOM     32  C   UNL     1      -1.355  -7.055  -1.595  0.00  0.00    +0.169 C 
ATOM     33  O   UNL     1      -0.886  -8.066  -1.115  0.00  0.00    -0.292 OA
BRANCH  32  34
ATOM     34  C   UNL     1      -2.632  -7.110  -2.317  0.00  0.00    +0.059 A 
ATOM     35  C   UNL     1      -3.118  -5.974  -2.975  0.00  0.00    +0.015 A 
ATOM     36  C   UNL     1      -4.317  -6.034  -3.651  0.00  0.00    +0.001 A 
ATOM     37  C   UNL     1      -5.045  -7.213  -3.681  0.00  0.00    +0.004 A 
ATOM     38  C   UNL     1      -4.579  -8.340  -3.036  0.00  0.00    +0.046 A 
ATOM     39  C   UNL     1      -3.371  -8.303  -2.356  0.00  0.00    +0.131 A 
BRANCH  39  40
ATOM     40  O   UNL     1      -2.909  -9.412  -1.727  0.00  0.00    -0.494 OA
ATOM     41  C   UNL     1      -3.716 -10.589  -1.810  0.00  0.00    +0.277 C 
ENDBRANCH  39  40
ENDBRANCH  32  34
ENDBRANCH  23  32
TORSDOF 3
