REMARK  Name = ZINC20206652
REMARK  9 active torsions:
REMARK  status: ('A' for Active; 'I' for Inactive)
REMARK    1  A    between atoms: C_1  and  C_2
REMARK    2  A    between atoms: C_2  and  S_3
REMARK    3  A    between atoms: S_3  and  C_6
REMARK    4  A    between atoms: C_14  and  C_15
REMARK    5  A    between atoms: C_18  and  O_23
REMARK    6  A    between atoms: C_19  and  O_21
REMARK    7  A    between atoms: O_21  and  C_22
REMARK    8  A    between atoms: O_23  and  C_24
REMARK    9  A    between atoms: C_24  and  C_26
REMARK                            x       y       z     vdW  Elec       q    Type
REMARK                         _______ _______ _______ _____ _____    ______ ____
ROOT
ATOM      1  C   UNL     1      -0.495   2.079  -3.963  0.00  0.00    +0.257 C 
ATOM      2  N   UNL     1       0.044   3.183  -4.379  0.00  0.00    -0.174 NA
ATOM      3  S   UNL     1       1.585   2.733  -4.862  0.00  0.00    +0.049 S 
ATOM      4  C   UNL     1       1.494   1.095  -4.565  0.00  0.00    +0.183 C 
ATOM      5  N   UNL     1       2.374   0.144  -4.784  0.00  0.00    -0.152 NA
ATOM      6  C   UNL     1       2.048  -1.135  -4.519  0.00  0.00    +0.273 C 
ATOM      7  O   UNL     1       2.885  -2.020  -4.586  0.00  0.00    -0.268 OA
ATOM      8  C   UNL     1       0.646  -1.441  -4.141  0.00  0.00    +0.078 C 
ATOM      9  C   UNL     1       0.092  -2.684  -4.348  0.00  0.00    +0.024 C 
ATOM     10  C   UNL     1      -0.130  -0.326  -3.524  0.00  0.00    +0.117 C 
ATOM     11  N   UNL     1      -1.058  -0.509  -2.625  0.00  0.00    -0.386 N 
ATOM     12  N   UNL     1       0.243   0.945  -4.003  0.00  0.00    -0.203 N 
ATOM     13  H   UNL     1      -1.341  -1.408  -2.395  0.00  0.00    +0.157 HD
ATOM     14  H   UNL     1      -1.466   0.255  -2.187  0.00  0.00    +0.157 HD
ENDROOT
BRANCH   9  15
ATOM     15  C   UNL     1       0.821  -3.690  -5.125  0.00  0.00    -0.021 A 
ATOM     16  C   UNL     1       0.791  -5.037  -4.736  0.00  0.00    +0.012 A 
ATOM     17  C   UNL     1       1.476  -5.979  -5.468  0.00  0.00    +0.051 A 
ATOM     18  C   UNL     1       2.197  -5.601  -6.594  0.00  0.00    +0.173 A 
ATOM     19  C   UNL     1       2.232  -4.263  -6.988  0.00  0.00    +0.163 A 
ATOM     20  C   UNL     1       1.544  -3.310  -6.264  0.00  0.00    +0.057 A 
BRANCH  19  21
ATOM     21  O   UNL     1       2.940  -3.898  -8.091  0.00  0.00    -0.491 OA
ATOM     22  C   UNL     1       2.932  -2.511  -8.437  0.00  0.00    +0.277 C 
ENDBRANCH  19  21
BRANCH  18  23
ATOM     23  O   UNL     1       2.871  -6.536  -7.312  0.00  0.00    -0.419 OA
BRANCH  23  24
ATOM     24  C   UNL     1       4.196  -6.663  -7.099  0.00  0.00    +0.345 C 
ATOM     25  O   UNL     1       4.735  -6.018  -6.223  0.00  0.00    -0.245 OA
BRANCH  24  26
ATOM     26  C   UNL     1       4.991  -7.586  -7.931  0.00  0.00    +0.060 A 
ATOM     27  C   UNL     1       4.375  -8.325  -8.944  0.00  0.00    +0.018 A 
ATOM     28  C   UNL     1       5.122  -9.186  -9.718  0.00  0.00    +0.039 A 
ATOM     29  C   UNL     1       6.484  -9.320  -9.494  0.00  0.00    +0.123 A 
ATOM     30  C   UNL     1       7.101  -8.589  -8.490  0.00  0.00    +0.039 A 
ATOM     31  C   UNL     1       6.365  -7.721  -7.713  0.00  0.00    +0.018 A 
ATOM     32  F   UNL     1       7.212 -10.165 -10.255  0.00  0.00    -0.205 F 
ENDBRANCH  24  26
ENDBRANCH  23  24
ENDBRANCH  18  23
ENDBRANCH   9  15
BRANCH   1  33
ATOM     33  S   UNL     1      -2.148   2.057  -3.352  0.00  0.00    +0.029 S 
ATOM     34  O   UNL     1      -2.631   0.757  -3.660  0.00  0.00    -0.167 OA
ATOM     35  O   UNL     1      -2.759   3.209  -3.917  0.00  0.00    -0.167 OA
BRANCH  33  37
ATOM     36  C   UNL     1      -3.357   2.103  -0.899  0.00  0.00    +0.028 C 
ATOM     37  C   UNL     1      -1.984   2.254  -1.556  0.00  0.00    +0.172 C 
ENDBRANCH  33  37
ENDBRANCH   1  33
TORSDOF 7
