REMARK  Name = ZINC13573053
REMARK  4 active torsions:
REMARK  status: ('A' for Active; 'I' for Inactive)
REMARK    1  A    between atoms: C_3  and  O_38
REMARK    2  A    between atoms: C_6  and  C_7
REMARK    3  A    between atoms: N_32  and  C_35
REMARK    4  A    between atoms: C_35  and  C_36
REMARK                            x       y       z     vdW  Elec       q    Type
REMARK                         _______ _______ _______ _____ _____    ______ ____
ROOT
ATOM      1  C   UNL     1      -2.553   3.867   0.046  0.00  0.00    +0.063 C 
ATOM      2  C   UNL     1      -3.305   3.600  -1.234  0.00  0.00    +0.032 A 
ATOM      3  C   UNL     1      -4.308   2.734  -1.511  0.00  0.00    +0.087 A 
ATOM      4  N   UNL     1      -4.814   2.770  -2.784  0.00  0.00    -0.311 N 
ATOM      5  H   UNL     1      -5.558   2.196  -3.026  0.00  0.00    +0.170 HD
ATOM      6  C   UNL     1      -4.279   3.602  -3.702  0.00  0.00    +0.289 A 
ATOM      7  O   UNL     1      -4.585   3.746  -4.872  0.00  0.00    -0.260 OA
ATOM      8  S   UNL     1      -3.043   4.413  -2.792  0.00  0.00    -0.030 S 
ATOM      9  S   UNL     1      -4.883   1.585  -0.254  0.00  0.00    -0.103 S 
ATOM     10  C   UNL     1      -3.594   1.839   0.945  0.00  0.00    +0.061 C 
ATOM     11  C   UNL     1      -3.413   3.361   1.190  0.00  0.00    +0.019 C 
ATOM     12  C   UNL     1      -2.798   3.359   2.612  0.00  0.00    +0.007 C 
ATOM     13  C   UNL     1      -2.106   1.942   2.651  0.00  0.00    +0.010 C 
ATOM     14  C   UNL     1      -3.425   1.101   2.231  0.00  0.00    +0.015 C 
ATOM     15  C   UNL     1      -4.173   1.571   3.410  0.00  0.00    +0.092 C 
ATOM     16  C   UNL     1      -4.118   3.147   3.388  0.00  0.00    +0.091 C 
ATOM     17  C   UNL     1      -4.206   3.292   4.876  0.00  0.00    +0.226 C 
ATOM     18  O   UNL     1      -3.638   4.106   5.571  0.00  0.00    -0.275 OA
ATOM     19  N   UNL     1      -5.069   2.303   5.282  0.00  0.00    -0.231 N 
ATOM     20  C   UNL     1      -5.271   1.337   4.311  0.00  0.00    +0.226 C 
ATOM     21  O   UNL     1      -6.151   0.505   4.238  0.00  0.00    -0.275 OA
ENDROOT
BRANCH   1  27
ATOM     22  C   UNL     1      -1.074   2.027  -0.782  0.00  0.00    +0.008 A 
ATOM     23  C   UNL     1       0.130   1.349  -0.795  0.00  0.00    +0.045 A 
ATOM     24  C   UNL     1       1.179   1.787   0.001  0.00  0.00    +0.117 A 
ATOM     25  C   UNL     1       1.014   2.901   0.811  0.00  0.00    +0.045 A 
ATOM     26  C   UNL     1      -0.193   3.571   0.824  0.00  0.00    +0.008 A 
ATOM     27  C   UNL     1      -1.237   3.133   0.030  0.00  0.00    -0.039 A 
BRANCH  24  28
ATOM     28  O   UNL     1       2.366   1.125  -0.015  0.00  0.00    -0.507 OA
ATOM     29  H   UNL     1       2.991   1.454  -0.676  0.00  0.00    +0.292 HD
ENDBRANCH  24  28
ENDBRANCH   1  27
BRANCH  19  30
ATOM     30  C   UNL     1      -5.708   2.275   6.600  0.00  0.00    +0.241 C 
BRANCH  30  31
ATOM     31  C   UNL     1      -7.021   3.011   6.538  0.00  0.00    +0.373 C 
ATOM     32  O   UNL     1      -7.387   3.507   5.499  0.00  0.00    -0.245 OA
ATOM     33  O   UNL     1      -7.786   3.114   7.637  0.00  0.00    -0.245 OA
ENDBRANCH  30  31
ENDBRANCH  19  30
TORSDOF 4
