REMARK  Name = ZINC09243080
REMARK  11 active torsions:
REMARK  status: ('A' for Active; 'I' for Inactive)
REMARK    1  A    between atoms: C_1  and  C_2
REMARK    2  A    between atoms: C_2  and  C_3
REMARK    3  A    between atoms: C_2  and  C_4
REMARK    4  A    between atoms: C_7  and  C_10
REMARK    5  A    between atoms: C_13  and  C_31
REMARK    6  A    between atoms: N_20  and  C_21
REMARK    7  A    between atoms: C_21  and  C_22
REMARK    8  A    between atoms: C_22  and  C_23
REMARK    9  A    between atoms: C_26  and  O_29
REMARK   10  A    between atoms: O_29  and  C_30
REMARK   11  A    between atoms: C_36  and  O_37
REMARK                            x       y       z     vdW  Elec       q    Type
REMARK                         _______ _______ _______ _____ _____    ______ ____
ROOT
ATOM      1  C   UNL     1      -5.419  -2.005   0.043  0.00  0.00    +0.141 C 
ATOM      2  C   UNL     1      -6.274  -1.201  -0.898  0.00  0.00    +0.035 A 
ATOM      3  C   UNL     1      -6.790   0.011  -1.228  0.00  0.00    +0.075 A 
ATOM      4  N   UNL     1      -7.545  -0.177  -2.350  0.00  0.00    -0.276 N 
ATOM      5  H   UNL     1      -8.036   0.519  -2.814  0.00  0.00    +0.189 HD
ATOM      6  N   UNL     1      -7.508  -1.413  -2.701  0.00  0.00    -0.168 NA
ATOM      7  C   UNL     1      -6.756  -2.106  -1.870  0.00  0.00    +0.153 A 
ATOM      8  C   UNL     1      -6.218  -3.441  -1.550  0.00  0.00    +0.268 C 
ATOM      9  O   UNL     1      -6.441  -4.450  -2.192  0.00  0.00    -0.268 OA
ATOM     10  N   UNL     1      -5.449  -3.387  -0.448  0.00  0.00    -0.285 N 
ENDROOT
BRANCH   1  14
ATOM     11  C   UNL     1      -1.412  -0.526   0.013  0.00  0.00    -0.045 A 
ATOM     12  C   UNL     1      -2.259  -0.204   1.056  0.00  0.00    +0.004 A 
ATOM     13  C   UNL     1      -3.556  -0.683   1.066  0.00  0.00    +0.006 A 
ATOM     14  C   UNL     1      -4.006  -1.482   0.032  0.00  0.00    -0.022 A 
ATOM     15  C   UNL     1      -3.159  -1.803  -1.012  0.00  0.00    +0.006 A 
ATOM     16  C   UNL     1      -1.863  -1.321  -1.024  0.00  0.00    +0.004 A 
BRANCH  11  18
ATOM     17  C   UNL     1      -0.019   1.526   0.010  0.00  0.00    +0.012 C 
ATOM     18  C   UNL     1       0.002  -0.004   0.002  0.00  0.00    +0.013 C 
ATOM     19  C   UNL     1       0.742  -0.511   1.242  0.00  0.00    +0.012 C 
ENDBRANCH  11  18
ENDBRANCH   1  14
BRANCH   3  20
ATOM     20  C   UNL     1      -6.576   1.288  -0.511  0.00  0.00    +0.042 A 
ATOM     21  C   UNL     1      -7.645   1.926   0.118  0.00  0.00    +0.013 A 
ATOM     22  C   UNL     1      -7.440   3.116   0.786  0.00  0.00    +0.001 A 
ATOM     23  C   UNL     1      -6.176   3.679   0.834  0.00  0.00    +0.004 A 
ATOM     24  C   UNL     1      -5.110   3.056   0.214  0.00  0.00    +0.046 A 
ATOM     25  C   UNL     1      -5.299   1.857  -0.455  0.00  0.00    +0.126 A 
BRANCH  25  26
ATOM     26  O   UNL     1      -4.251   1.241  -1.059  0.00  0.00    -0.506 OA
ATOM     27  H   UNL     1      -4.114   1.508  -1.978  0.00  0.00    +0.292 HD
ENDBRANCH  25  26
ENDBRANCH   3  20
BRANCH  10  28
ATOM     28  C   UNL     1      -4.753  -4.523   0.162  0.00  0.00    +0.114 C 
BRANCH  28  29
ATOM     29  C   UNL     1      -5.666  -5.185   1.196  0.00  0.00    +0.054 C 
BRANCH  29  30
ATOM     30  C   UNL     1      -4.950  -6.353   1.823  0.00  0.00    -0.046 A 
ATOM     31  C   UNL     1      -5.054  -7.611   1.259  0.00  0.00    +0.007 A 
ATOM     32  C   UNL     1      -4.399  -8.683   1.832  0.00  0.00    +0.046 A 
ATOM     33  C   UNL     1      -3.635  -8.497   2.976  0.00  0.00    +0.120 A 
ATOM     34  C   UNL     1      -3.532  -7.234   3.540  0.00  0.00    +0.046 A 
ATOM     35  C   UNL     1      -4.185  -6.164   2.960  0.00  0.00    +0.007 A 
BRANCH  33  36
ATOM     36  O   UNL     1      -2.990  -9.550   3.542  0.00  0.00    -0.495 OA
ATOM     37  C   UNL     1      -2.223  -9.285   4.718  0.00  0.00    +0.277 C 
ENDBRANCH  33  36
ENDBRANCH  29  30
ENDBRANCH  28  29
ENDBRANCH  10  28
TORSDOF 8
