REMARK  Name = ZINC09295236
REMARK  8 active torsions:
REMARK  status: ('A' for Active; 'I' for Inactive)
REMARK    1  A    between atoms: C_1  and  C_2
REMARK    2  A    between atoms: C_2  and  C_3
REMARK    3  A    between atoms: C_6  and  N_9
REMARK    4  A    between atoms: C_10  and  C_12
REMARK    5  A    between atoms: C_14  and  C_31
REMARK    6  A    between atoms: C_18  and  C_23
REMARK    7  A    between atoms: C_23  and  O_24
REMARK    8  A    between atoms: O_24  and  C_25
REMARK                            x       y       z     vdW  Elec       q    Type
REMARK                         _______ _______ _______ _____ _____    ______ ____
ROOT
ATOM      1  C   UNL     1       1.898   1.224  -1.179  0.00  0.00    +0.166 C 
ATOM      2  C   UNL     1       1.083   1.592   0.069  0.00  0.00    +0.140 C 
ATOM      3  N   UNL     1      -0.279   1.066  -0.036  0.00  0.00    -0.272 N 
ATOM      4  N   UNL     1      -0.963   1.532  -1.113  0.00  0.00    -0.222 N 
ATOM      5  C   UNL     1      -2.317   1.575  -1.284  0.00  0.00    +0.189 A 
ATOM      6  N   UNL     1      -2.543   2.082  -2.465  0.00  0.00    -0.128 NA
ATOM      7  N   UNL     1      -1.429   2.365  -3.047  0.00  0.00    -0.121 NA
ATOM      8  C   UNL     1      -0.436   2.052  -2.261  0.00  0.00    +0.209 A 
ATOM      9  S   UNL     1       1.293   2.241  -2.559  0.00  0.00    -0.069 S 
ATOM     10  H   UNL     1      -0.279   0.057  -0.016  0.00  0.00    +0.167 HD
ENDROOT
BRANCH   2  11
ATOM     11  C   UNL     1       1.750   1.010   1.289  0.00  0.00    -0.024 A 
ATOM     12  C   UNL     1       1.549  -0.317   1.620  0.00  0.00    +0.005 A 
ATOM     13  C   UNL     1       2.164  -0.852   2.736  0.00  0.00    +0.000 A 
ATOM     14  C   UNL     1       2.972  -0.057   3.527  0.00  0.00    +0.000 A 
ATOM     15  C   UNL     1       3.169   1.272   3.199  0.00  0.00    +0.000 A 
ATOM     16  C   UNL     1       2.558   1.805   2.080  0.00  0.00    +0.005 A 
ENDBRANCH   2  11
BRANCH   1  18
ATOM     17  N   UNL     1       0.777  -0.613  -2.399  0.00  0.00    -0.285 N 
ATOM     18  C   UNL     1       1.707  -0.236  -1.499  0.00  0.00    +0.233 C 
ATOM     19  O   UNL     1       2.391  -1.073  -0.948  0.00  0.00    -0.274 OA
ATOM     20  H   UNL     1       0.278   0.058  -2.890  0.00  0.00    +0.155 HD
BRANCH  17  24
ATOM     21  C   UNL     1       0.048  -4.659  -3.072  0.00  0.00    -0.048 A 
ATOM     22  C   UNL     1      -0.996  -3.753  -3.119  0.00  0.00    +0.005 A 
ATOM     23  C   UNL     1      -0.757  -2.411  -2.897  0.00  0.00    +0.023 A 
ATOM     24  C   UNL     1       0.532  -1.972  -2.625  0.00  0.00    +0.033 A 
ATOM     25  C   UNL     1       1.579  -2.884  -2.584  0.00  0.00    +0.023 A 
ATOM     26  C   UNL     1       1.333  -4.225  -2.802  0.00  0.00    +0.005 A 
BRANCH  21  28
ATOM     27  C   UNL     1      -0.074  -6.426  -4.808  0.00  0.00    +0.009 C 
ATOM     28  C   UNL     1      -0.216  -6.123  -3.315  0.00  0.00    +0.032 C 
ENDBRANCH  21  28
ENDBRANCH  17  24
ENDBRANCH   1  18
BRANCH   5  29
ATOM     29  C   UNL     1      -3.358   1.122  -0.293  0.00  0.00    +0.306 C 
BRANCH  29  30
ATOM     30  O   UNL     1      -3.659  -0.257  -0.516  0.00  0.00    -0.484 OA
BRANCH  30  31
ATOM     31  C   UNL     1      -4.586  -0.826   0.300  0.00  0.00    +0.121 A 
ATOM     32  C   UNL     1      -5.189  -0.073   1.297  0.00  0.00    +0.045 A 
ATOM     33  C   UNL     1      -6.135  -0.652   2.121  0.00  0.00    +0.004 A 
ATOM     34  C   UNL     1      -6.473  -1.983   1.959  0.00  0.00    +0.000 A 
ATOM     35  C   UNL     1      -5.869  -2.736   0.970  0.00  0.00    +0.004 A 
ATOM     36  C   UNL     1      -4.926  -2.161   0.140  0.00  0.00    +0.045 A 
ENDBRANCH  30  31
ENDBRANCH  29  30
ENDBRANCH   5  29
TORSDOF 7
