REMARK  Name = ZINC06146681
REMARK  12 active torsions:
REMARK  status: ('A' for Active; 'I' for Inactive)
REMARK    1  A    between atoms: C_1  and  C_2
REMARK    2  A    between atoms: C_5  and  C_30
REMARK    3  A    between atoms: C_6  and  S_8
REMARK    4  A    between atoms: S_8  and  N_11
REMARK    5  A    between atoms: N_11  and  C_12
REMARK    6  A    between atoms: C_17  and  C_18
REMARK    7  A    between atoms: C_18  and  O_29
REMARK    8  A    between atoms: N_19  and  C_20
REMARK    9  A    between atoms: C_20  and  C_21
REMARK   10  A    between atoms: C_21  and  C_22
REMARK   11  A    between atoms: C_22  and  N_63
REMARK   12  A    between atoms: C_23  and  N_63
REMARK                            x       y       z     vdW  Elec       q    Type
REMARK                         _______ _______ _______ _____ _____    ______ ____
ROOT
ATOM      1  C   UNL     1       1.976  -0.725   1.486  0.00  0.00    +0.060 A 
ATOM      2  C   UNL     1       1.583  -1.438   0.361  0.00  0.00    +0.025 A 
ATOM      3  C   UNL     1       0.832  -2.588   0.500  0.00  0.00    +0.002 A 
ATOM      4  C   UNL     1       0.458  -3.034   1.757  0.00  0.00    +0.001 A 
ATOM      5  C   UNL     1       0.836  -2.336   2.884  0.00  0.00    +0.015 A 
ATOM      6  C   UNL     1       1.599  -1.174   2.760  0.00  0.00    +0.058 A 
ENDROOT
BRANCH   1   7
ATOM      7  N   UNL     1       2.736   0.432   1.350  0.00  0.00    -0.216 N 
ATOM      8  H   UNL     1       3.419   0.644   2.006  0.00  0.00    +0.174 HD
BRANCH   7   9
ATOM      9  S   UNL     1       2.476   1.447   0.068  0.00  0.00    +0.073 S 
ATOM     10  O   UNL     1       2.577   0.653  -1.106  0.00  0.00    -0.150 OA
ATOM     11  O   UNL     1       3.288   2.592   0.285  0.00  0.00    -0.150 OA
BRANCH   9  17
ATOM     12  C   UNL     1      -2.404   1.632  -1.795  0.00  0.00    +0.044 C 
ATOM     13  C   UNL     1      -1.416   2.041  -0.733  0.00  0.00    -0.049 A 
ATOM     14  C   UNL     1      -1.823   2.842   0.318  0.00  0.00    +0.004 A 
ATOM     15  C   UNL     1      -0.918   3.214   1.294  0.00  0.00    +0.005 A 
ATOM     16  C   UNL     1       0.396   2.792   1.215  0.00  0.00    -0.024 A 
ATOM     17  C   UNL     1       0.803   1.990   0.165  0.00  0.00    +0.112 A 
ATOM     18  C   UNL     1      -0.104   1.615  -0.810  0.00  0.00    +0.032 A 
ATOM     19  C   UNL     1       1.384   3.201   2.277  0.00  0.00    +0.046 C 
ENDBRANCH   9  17
ENDBRANCH   7   9
ENDBRANCH   1   7
BRANCH   6  20
ATOM     20  C   UNL     1       2.007  -0.421   3.964  0.00  0.00    +0.217 C 
ATOM     21  N   UNL     1       2.719   0.661   3.844  0.00  0.00    -0.250 NA
BRANCH  20  22
ATOM     22  O   UNL     1       1.641  -0.858   5.191  0.00  0.00    -0.492 OA
ATOM     23  H   UNL     1       2.308  -1.405   5.628  0.00  0.00    +0.294 HD
ENDBRANCH  20  22
BRANCH  21  24
ATOM     24  C   UNL     1       3.221   1.344   5.039  0.00  0.00    +0.143 C 
BRANCH  24  25
ATOM     25  C   UNL     1       4.750   1.313   5.040  0.00  0.00    +0.004 C 
BRANCH  25  26
ATOM     26  C   UNL     1       5.274   2.026   6.288  0.00  0.00    -0.080 C 
BRANCH  26  27
ATOM     27  N   UNL     1       6.749   1.992   6.281  0.00  0.00    +0.381 N 
ATOM     28  H   UNL     1       7.095   2.465   5.438  0.00  0.00    -0.086 HD
ATOM     29  H   UNL     1       7.065   1.015   6.279  0.00  0.00    -0.086 HD
BRANCH  27  30
ATOM     30  C   UNL     1       7.283   2.673   7.476  0.00  0.00    -0.072 C 
ATOM     31  C   UNL     1       7.379   4.176   7.206  0.00  0.00    -0.016 C 
ATOM     32  C   UNL     1       7.941   4.881   8.442  0.00  0.00    -0.002 C 
ATOM     33  C   UNL     1       9.333   4.329   8.755  0.00  0.00    -0.000 C 
ATOM     34  C   UNL     1       9.237   2.826   9.025  0.00  0.00    -0.002 C 
ATOM     35  C   UNL     1       8.675   2.121   7.789  0.00  0.00    -0.016 C 
ENDBRANCH  27  30
ENDBRANCH  26  27
ENDBRANCH  25  26
ENDBRANCH  24  25
ENDBRANCH  21  24
ENDBRANCH   6  20
TORSDOF 10
