REMARK  Name = ZINC02461293
REMARK  10 active torsions:
REMARK  status: ('A' for Active; 'I' for Inactive)
REMARK    1  A    between atoms: C_1  and  C_2
REMARK    2  A    between atoms: C_2  and  C_3
REMARK    3  A    between atoms: C_2  and  C_4
REMARK    4  A    between atoms: C_2  and  C_5
REMARK    5  A    between atoms: C_5  and  C_7
REMARK    6  A    between atoms: C_5  and  N_17
REMARK    7  A    between atoms: C_8  and  C_9
REMARK    8  A    between atoms: C_18  and  C_22
REMARK    9  A    between atoms: C_22  and  C_24
REMARK   10  A    between atoms: C_22  and  N_62
REMARK                            x       y       z     vdW  Elec       q    Type
REMARK                         _______ _______ _______ _____ _____    ______ ____
ROOT
ATOM      1  N   UNL     1      -0.712  -0.307  -2.011  0.00  0.00    -0.223 N 
ATOM      2  C   UNL     1      -0.653   0.856  -1.337  0.00  0.00    +0.143 A 
ATOM      3  N   UNL     1      -1.265   1.750  -2.075  0.00  0.00    -0.115 NA
ATOM      4  N   UNL     1      -1.671   1.167  -3.150  0.00  0.00    -0.023 NA
ATOM      5  N   UNL     1      -1.341  -0.076  -3.113  0.00  0.00    -0.043 NA
ENDROOT
BRANCH   1   6
ATOM      6  C   UNL     1      -0.163  -1.594  -1.575  0.00  0.00    +0.139 C 
BRANCH   6   8
ATOM      7  C   UNL     1      -1.962  -2.787  -2.835  0.00  0.00    +0.013 C 
ATOM      8  C   UNL     1      -1.294  -2.620  -1.468  0.00  0.00    -0.012 C 
ATOM      9  C   UNL     1      -0.721  -3.964  -1.013  0.00  0.00    +0.013 C 
ATOM     10  C   UNL     1      -2.328  -2.135  -0.451  0.00  0.00    +0.013 C 
ENDBRANCH   6   8
BRANCH   6  11
ATOM     11  C   UNL     1       0.856  -2.071  -2.577  0.00  0.00    +0.001 C 
ATOM     12  C   UNL     1       2.110  -2.277  -2.201  0.00  0.00    +0.007 C 
BRANCH  12  13
ATOM     13  C   UNL     1       3.109  -2.745  -3.184  0.00  0.00    -0.007 A 
ATOM     14  C   UNL     1       2.734  -2.977  -4.508  0.00  0.00    +0.011 A 
ATOM     15  C   UNL     1       3.672  -3.409  -5.422  0.00  0.00    +0.020 A 
ATOM     16  C   UNL     1       4.982  -3.623  -5.027  0.00  0.00    +0.042 A 
ATOM     17  C   UNL     1       5.360  -3.401  -3.714  0.00  0.00    +0.040 A 
ATOM     18  C   UNL     1       4.431  -2.963  -2.790  0.00  0.00    +0.049 A 
ATOM     19 CL   UNL     1       4.906  -2.685  -1.144  0.00  0.00    -0.083 Cl
ATOM     20 CL   UNL     1       6.155  -4.172  -6.182  0.00  0.00    -0.083 Cl
ENDBRANCH  12  13
ENDBRANCH   6  11
ENDBRANCH   1   6
BRANCH   2  21
ATOM     21  C   UNL     1      -0.013   1.086   0.008  0.00  0.00    +0.034 C 
BRANCH  21  22
ATOM     22  C   UNL     1       1.294   1.814  -0.175  0.00  0.00    -0.054 A 
ATOM     23  C   UNL     1       1.357   2.925  -0.995  0.00  0.00    +0.004 A 
ATOM     24  C   UNL     1       2.554   3.596  -1.159  0.00  0.00    +0.020 A 
ATOM     25  C   UNL     1       3.692   3.149  -0.511  0.00  0.00    +0.041 A 
ATOM     26  C   UNL     1       3.630   2.034   0.305  0.00  0.00    +0.020 A 
ATOM     27  C   UNL     1       2.431   1.366   0.473  0.00  0.00    +0.004 A 
ATOM     28 CL   UNL     1       5.197   3.987  -0.722  0.00  0.00    -0.084 Cl
ENDBRANCH  21  22
BRANCH  21  34
ATOM     29  C   UNL     1      -1.029   3.262   0.323  0.00  0.00    -0.049 C 
ATOM     30  C   UNL     1      -2.016   4.049   1.189  0.00  0.00    +0.141 C 
ATOM     31  O   UNL     1      -1.574   4.025   2.549  0.00  0.00    -0.383 OA
ATOM     32  C   UNL     1      -1.448   2.708   3.090  0.00  0.00    +0.141 C 
ATOM     33  C   UNL     1      -0.455   1.907   2.244  0.00  0.00    -0.049 C 
ATOM     34  N   UNL     1      -0.935   1.883   0.846  0.00  0.00    +0.392 N 
ATOM     35  H   UNL     1      -1.866   1.452   0.820  0.00  0.00    -0.080 HD
ENDBRANCH  21  34
ENDBRANCH   2  21
TORSDOF 7
