REMARK  Name = ZINC24071664
REMARK  6 active torsions:
REMARK  status: ('A' for Active; 'I' for Inactive)
REMARK    1  A    between atoms: C_8  and  C_10
REMARK    2  A    between atoms: N_13  and  C_16
REMARK    3  A    between atoms: C_16  and  C_17
REMARK    4  A    between atoms: N_19  and  C_20
REMARK    5  A    between atoms: C_20  and  C_21
REMARK    6  A    between atoms: C_24  and  C_26
REMARK                            x       y       z     vdW  Elec       q    Type
REMARK                         _______ _______ _______ _____ _____    ______ ____
ROOT
ATOM      1  C   UNL     1       3.474   2.142   1.275  0.00  0.00    +0.019 C 
ENDROOT
BRANCH   1   5
ATOM      2  C   UNL     1       0.002  -0.004   0.002  0.00  0.00    +0.072 C 
ATOM      3  C   UNL     1      -0.019   1.527   0.010  0.00  0.00    -0.006 C 
ATOM      4  C   UNL     1       1.419   2.052  -0.001  0.00  0.00    -0.077 C 
ATOM      5  N   UNL     1       2.134   1.548   1.179  0.00  0.00    +0.385 N 
ATOM      6  C   UNL     1       2.208   0.081   1.168  0.00  0.00    -0.077 C 
ATOM      7  C   UNL     1       0.794  -0.503   1.214  0.00  0.00    -0.006 C 
ATOM      8  H   UNL     1       1.565   1.848   2.070  0.00  0.00    -0.081 HD
BRANCH   2  16
ATOM      9  C   UNL     1      -5.665  -1.746   0.896  0.00  0.00    +0.002 A 
ATOM     10  C   UNL     1      -5.494  -2.393  -0.319  0.00  0.00    +0.004 A 
ATOM     11  C   UNL     1      -4.294  -2.310  -0.993  0.00  0.00    +0.048 A 
ATOM     12  C   UNL     1      -3.249  -1.575  -0.455  0.00  0.00    +0.155 A 
ATOM     13  C   UNL     1      -3.418  -0.918   0.774  0.00  0.00    +0.110 A 
ATOM     14  C   UNL     1      -4.638  -1.012   1.445  0.00  0.00    +0.031 A 
ATOM     15  N   UNL     1      -2.240  -0.294   1.045  0.00  0.00    -0.213 NA
ATOM     16  C   UNL     1      -1.409  -0.527   0.073  0.00  0.00    +0.200 A 
ATOM     17  O   UNL     1      -1.987  -1.306  -0.856  0.00  0.00    -0.439 OA
ENDBRANCH   2  16
ENDBRANCH   1   5
BRANCH   1  18
ATOM     18  C   UNL     1       3.351   3.622   1.530  0.00  0.00    +0.197 C 
ATOM     19  O   UNL     1       2.254   4.132   1.622  0.00  0.00    -0.278 OA
ATOM     20  N   UNL     1       4.459   4.379   1.655  0.00  0.00    -0.310 N 
ATOM     21  H   UNL     1       5.453   3.917   1.572  0.00  0.00    +0.149 HD
BRANCH  20  22
ATOM     22  C   UNL     1       4.338   5.818   1.903  0.00  0.00    +0.178 C 
BRANCH  22  23
ATOM     23  C   UNL     1       5.713   6.427   2.002  0.00  0.00    +0.123 A 
ATOM     24  C   UNL     1       6.425   6.930   0.975  0.00  0.00    +0.047 A 
ATOM     25  C   UNL     1       7.645   7.394   1.506  0.00  0.00    +0.050 A 
ATOM     26  C   UNL     1       7.610   7.146   2.842  0.00  0.00    +0.135 A 
ATOM     27  O   UNL     1       6.429   6.564   3.130  0.00  0.00    -0.458 OA
BRANCH  26  28
ATOM     28  C   UNL     1       8.679   7.464   3.812  0.00  0.00    +0.017 A 
ATOM     29  C   UNL     1       9.859   8.071   3.380  0.00  0.00    +0.013 A 
ATOM     30  C   UNL     1      10.851   8.371   4.290  0.00  0.00    +0.021 A 
ATOM     31  C   UNL     1      10.682   8.061   5.630  0.00  0.00    +0.041 A 
ATOM     32  C   UNL     1       9.515   7.455   6.064  0.00  0.00    +0.021 A 
ATOM     33  C   UNL     1       8.514   7.155   5.163  0.00  0.00    +0.013 A 
ATOM     34 CL   UNL     1      11.937   8.434   6.769  0.00  0.00    -0.084 Cl
ENDBRANCH  26  28
ENDBRANCH  22  23
ENDBRANCH  20  22
ENDBRANCH   1  18
TORSDOF 6
