REMARK  Name = ZINC10335621
REMARK  12 active torsions:
REMARK  status: ('A' for Active; 'I' for Inactive)
REMARK    1  A    between atoms: C_1  and  C_2
REMARK    2  A    between atoms: C_4  and  O_28
REMARK    3  A    between atoms: C_5  and  S_9
REMARK    4  A    between atoms: C_7  and  C_8
REMARK    5  A    between atoms: S_9  and  N_12
REMARK    6  A    between atoms: N_12  and  C_13
REMARK    7  A    between atoms: C_13  and  C_14
REMARK    8  A    between atoms: C_14  and  C_16
REMARK    9  A    between atoms: C_14  and  N_57
REMARK   10  A    between atoms: C_26  and  N_57
REMARK   11  A    between atoms: C_27  and  N_57
REMARK   12  A    between atoms: O_28  and  C_29
REMARK                            x       y       z     vdW  Elec       q    Type
REMARK                         _______ _______ _______ _____ _____    ______ ____
ROOT
ATOM      1  C   UNL     1       3.231   2.789   0.757  0.00  0.00    +0.095 C 
ENDROOT
BRANCH   1   2
ATOM      2  N   UNL     1       4.218   3.871   0.724  0.00  0.00    -0.191 NA
ATOM      3  H   UNL     1       4.913   3.873   0.047  0.00  0.00    +0.148 HD
BRANCH   2   4
ATOM      4  S   UNL     1       4.147   5.091   1.841  0.00  0.00    +0.062 S 
ATOM      5  O   UNL     1       5.238   5.959   1.566  0.00  0.00    -0.153 OA
ATOM      6  O   UNL     1       2.800   5.544   1.863  0.00  0.00    -0.153 OA
BRANCH   4  11
ATOM      7  C   UNL     1       5.228   2.628   7.246  0.00  0.00    +0.044 C 
ATOM      8  C   UNL     1       4.955   3.241   5.897  0.00  0.00    -0.044 A 
ATOM      9  C   UNL     1       3.820   2.886   5.194  0.00  0.00    +0.051 A 
ATOM     10  C   UNL     1       3.570   3.451   3.952  0.00  0.00    +0.147 A 
ATOM     11  C   UNL     1       4.461   4.372   3.419  0.00  0.00    +0.147 A 
ATOM     12  C   UNL     1       5.597   4.719   4.123  0.00  0.00    +0.036 A 
ATOM     13  C   UNL     1       5.841   4.159   5.364  0.00  0.00    -0.045 A 
ATOM     14  C   UNL     1       7.078   4.545   6.133  0.00  0.00    +0.044 C 
BRANCH  10  15
ATOM     15  O   UNL     1       2.454   3.104   3.259  0.00  0.00    -0.493 OA
ATOM     16  C   UNL     1       1.581   2.151   3.869  0.00  0.00    +0.277 C 
ENDBRANCH  10  15
ENDBRANCH   4  11
ENDBRANCH   2   4
ENDBRANCH   1   2
BRANCH   1  17
ATOM     17  C   UNL     1       3.285   2.010  -0.559  0.00  0.00    -0.022 C 
BRANCH  17  18
ATOM     18  C   UNL     1       2.158   1.010  -0.597  0.00  0.00    -0.052 A 
ATOM     19  C   UNL     1       2.403  -0.306  -0.347  0.00  0.00    +0.002 A 
ATOM     20  C   UNL     1       1.374  -1.245  -0.377  0.00  0.00    +0.001 A 
ATOM     21  C   UNL     1       0.094  -0.875  -0.656  0.00  0.00    +0.008 A 
ATOM     22  C   UNL     1      -0.197   0.475  -0.919  0.00  0.00    -0.018 A 
ATOM     23  C   UNL     1       0.850   1.430  -0.889  0.00  0.00    -0.016 A 
ATOM     24  C   UNL     1       0.559   2.780  -1.152  0.00  0.00    +0.009 A 
ATOM     25  C   UNL     1      -0.721   3.150  -1.431  0.00  0.00    +0.001 A 
ATOM     26  C   UNL     1      -1.750   2.211  -1.461  0.00  0.00    +0.001 A 
ATOM     27  C   UNL     1      -1.505   0.895  -1.217  0.00  0.00    +0.008 A 
ENDBRANCH  17  18
BRANCH  17  30
ATOM     28  C   UNL     1       5.598   2.165  -1.259  0.00  0.00    -0.096 C 
ATOM     29  C   UNL     1       5.000   0.808   0.656  0.00  0.00    -0.096 C 
ATOM     30  N   UNL     1       4.566   1.282  -0.675  0.00  0.00    +0.381 N 
ATOM     31  H   UNL     1       4.434   0.471  -1.291  0.00  0.00    -0.082 HD
ENDBRANCH  17  30
ENDBRANCH   1  17
TORSDOF 7
