REMARK  Name = ZINC39328116
REMARK  10 active torsions:
REMARK  status: ('A' for Active; 'I' for Inactive)
REMARK    1  A    between atoms: C_1  and  C_2
REMARK    2  A    between atoms: C_2  and  C_3
REMARK    3  A    between atoms: C_2  and  C_4
REMARK    4  A    between atoms: C_7  and  C_10
REMARK    5  A    between atoms: C_11  and  C_25
REMARK    6  A    between atoms: C_12  and  N_24
REMARK    7  A    between atoms: C_16  and  N_23
REMARK    8  A    between atoms: C_17  and  C_19
REMARK    9  A    between atoms: C_19  and  O_21
REMARK   10  A    between atoms: O_21  and  C_22
REMARK                            x       y       z     vdW  Elec       q    Type
REMARK                         _______ _______ _______ _____ _____    ______ ____
ROOT
ATOM      1  C   UNL     1       1.927  -2.592   4.950  0.00  0.00    +0.014 A 
ATOM      2  C   UNL     1       2.599  -3.822   4.947  0.00  0.00    +0.100 A 
ATOM      3  C   UNL     1       3.356  -4.208   6.071  0.00  0.00    +0.136 A 
ATOM      4  N   UNL     1       3.432  -3.414   7.127  0.00  0.00    -0.224 NA
ATOM      5  C   UNL     1       2.815  -2.250   7.169  0.00  0.00    +0.114 A 
ATOM      6  C   UNL     1       2.033  -1.755   6.100  0.00  0.00    +0.038 A 
ATOM      7  C   UNL     1       1.435  -0.451   6.323  0.00  0.00    +0.056 A 
ATOM      8  C   UNL     1       1.677   0.183   7.526  0.00  0.00    +0.119 A 
ATOM      9  S   UNL     1       2.711  -0.974   8.401  0.00  0.00    -0.060 S 
ENDROOT
BRANCH   1  13
ATOM     10  C   UNL     1      -0.370  -1.372   1.591  0.00  0.00    -0.045 A 
ATOM     11  C   UNL     1      -1.006  -1.731   2.767  0.00  0.00    +0.004 A 
ATOM     12  C   UNL     1      -0.266  -2.128   3.861  0.00  0.00    +0.009 A 
ATOM     13  C   UNL     1       1.127  -2.168   3.781  0.00  0.00    -0.016 A 
ATOM     14  C   UNL     1       1.762  -1.805   2.592  0.00  0.00    +0.009 A 
ATOM     15  C   UNL     1       1.010  -1.415   1.503  0.00  0.00    +0.004 A 
BRANCH  10  17
ATOM     16  C   UNL     1      -2.127  -2.071  -0.013  0.00  0.00    +0.012 C 
ATOM     17  C   UNL     1      -1.185  -0.939   0.400  0.00  0.00    +0.013 C 
ATOM     18  C   UNL     1      -2.005   0.300   0.766  0.00  0.00    +0.012 C 
ENDBRANCH  10  17
ENDBRANCH   1  13
BRANCH   7  19
ATOM     19  N   UNL     1       0.641   0.143   5.353  0.00  0.00    -0.356 N 
ATOM     20  H   UNL     1       0.709  -0.144   4.429  0.00  0.00    +0.142 HD
ATOM     21  H   UNL     1       0.019   0.845   5.599  0.00  0.00    +0.142 HD
ENDBRANCH   7  19
BRANCH   3  22
ATOM     22  N   UNL     1       4.020  -5.420   6.071  0.00  0.00    -0.342 N 
ATOM     23  H   UNL     1       3.965  -6.004   5.298  0.00  0.00    +0.144 HD
ATOM     24  H   UNL     1       4.542  -5.688   6.844  0.00  0.00    +0.144 HD
ENDBRANCH   3  22
BRANCH   8  25
ATOM     25  C   UNL     1       1.207   1.442   7.962  0.00  0.00    +0.348 C 
ATOM     26  O   UNL     1       0.493   2.110   7.236  0.00  0.00    -0.244 OA
BRANCH  25  27
ATOM     27  O   UNL     1       1.551   1.905   9.182  0.00  0.00    -0.464 OA
ATOM     28  C   UNL     1       1.040   3.186   9.558  0.00  0.00    +0.280 C 
ENDBRANCH  25  27
ENDBRANCH   8  25
BRANCH   2  29
ATOM     29  C   UNL     1       2.517  -4.683   3.806  0.00  0.00    +0.103 C 
ATOM     30  N   UNL     1       2.452  -5.366   2.900  0.00  0.00    -0.191 NA
ENDBRANCH   2  29
TORSDOF 7
