REMARK  Name = ZINC14470769
REMARK  8 active torsions:
REMARK  status: ('A' for Active; 'I' for Inactive)
REMARK    1  A    between atoms: C_1  and  C_2
REMARK    2  A    between atoms: C_2  and  N_3
REMARK    3  A    between atoms: N_3  and  C_4
REMARK    4  A    between atoms: N_3  and  S_6
REMARK    5  A    between atoms: C_4  and  C_5
REMARK    6  A    between atoms: S_6  and  C_9
REMARK    7  A    between atoms: C_22  and  C_25
REMARK    8  A    between atoms: C_29  and  N_31
REMARK                            x       y       z     vdW  Elec       q    Type
REMARK                         _______ _______ _______ _____ _____    ______ ____
ROOT
ATOM      1  C   UNL     1       0.016   0.208   4.705  0.00  0.00    +0.106 A 
ATOM      2  C   UNL     1       1.375  -0.033   4.608  0.00  0.00    +0.030 A 
ATOM      3  C   UNL     1       2.048   0.260   3.440  0.00  0.00    +0.025 A 
ATOM      4  C   UNL     1       1.369   0.798   2.354  0.00  0.00    +0.031 A 
ATOM      5  C   UNL     1      -0.003   1.051   2.464  0.00  0.00    -0.018 A 
ATOM      6  C   UNL     1      -0.668   0.749   3.632  0.00  0.00    +0.034 A 
ATOM      7  C   UNL     1      -0.682   1.652   1.296  0.00  0.00    +0.049 C 
ATOM      8  C   UNL     1      -2.131   1.434   1.051  0.00  0.00    -0.023 C 
ATOM      9  C   UNL     1      -2.345   1.445  -0.259  0.00  0.00    -0.030 C 
ATOM     10  C   UNL     1      -1.003   1.642  -1.024  0.00  0.00    +0.033 C 
ATOM     11  C   UNL     1      -0.013   1.086   0.008  0.00  0.00    +0.029 C 
ATOM     12  C   UNL     1       1.393   1.660  -0.002  0.00  0.00    +0.105 C 
ATOM     13  N   UNL     1       2.071   1.074   1.174  0.00  0.00    -0.336 N 
ATOM     14  H   UNL     1       3.020   0.876   1.128  0.00  0.00    +0.147 HD
ENDROOT
BRANCH  12  15
ATOM     15  C   UNL     1       2.109   1.262  -1.268  0.00  0.00    -0.025 A 
ATOM     16  C   UNL     1       2.669   0.003  -1.378  0.00  0.00    +0.007 A 
ATOM     17  C   UNL     1       3.325  -0.363  -2.538  0.00  0.00    +0.022 A 
ATOM     18  C   UNL     1       3.421   0.532  -3.589  0.00  0.00    +0.071 A 
ATOM     19  C   UNL     1       2.861   1.791  -3.478  0.00  0.00    +0.145 A 
ATOM     20  C   UNL     1       2.200   2.154  -2.320  0.00  0.00    +0.039 A 
ATOM     21 CL   UNL     1       4.245   0.073  -5.046  0.00  0.00    -0.081 Cl
BRANCH  19  22
ATOM     22  N   UNL     1       2.963   2.748  -4.602  0.00  0.00    +0.058 N 
ATOM     23  O   UNL     1       2.469   3.857  -4.505  0.00  0.00    -0.126 OA
ATOM     24  O   UNL     1       3.541   2.427  -5.625  0.00  0.00    -0.126 OA
ENDBRANCH  19  22
ENDBRANCH  12  15
BRANCH   1  25
ATOM     25  S   UNL     1      -0.842  -0.176   6.195  0.00  0.00    +0.061 S 
ATOM     26  O   UNL     1       0.125  -0.163   7.236  0.00  0.00    -0.153 OA
ATOM     27  O   UNL     1      -2.000   0.648   6.221  0.00  0.00    -0.153 OA
BRANCH  25  28
ATOM     28  N   UNL     1      -1.377  -1.738   6.064  0.00  0.00    -0.177 NA
BRANCH  28  30
ATOM     29  C   UNL     1      -0.914  -3.217   7.956  0.00  0.00    +0.022 C 
ATOM     30  C   UNL     1      -0.531  -2.842   6.523  0.00  0.00    +0.106 C 
ENDBRANCH  28  30
BRANCH  28  31
ATOM     31  C   UNL     1      -2.695  -2.015   5.489  0.00  0.00    +0.106 C 
ATOM     32  C   UNL     1      -2.547  -2.327   3.999  0.00  0.00    +0.022 C 
ENDBRANCH  28  31
ENDBRANCH  25  28
ENDBRANCH   1  25
TORSDOF 6
