REMARK  Name = ZINC64143680
REMARK  8 active torsions:
REMARK  status: ('A' for Active; 'I' for Inactive)
REMARK    1  A    between atoms: C_1  and  O_2
REMARK    2  A    between atoms: O_2  and  C_3
REMARK    3  A    between atoms: C_3  and  C_5
REMARK    4  A    between atoms: C_8  and  N_20
REMARK    5  A    between atoms: N_11  and  C_12
REMARK    6  A    between atoms: C_12  and  C_13
REMARK    7  A    between atoms: C_21  and  C_23
REMARK    8  A    between atoms: C_25  and  C_34
REMARK                            x       y       z     vdW  Elec       q    Type
REMARK                         _______ _______ _______ _____ _____    ______ ____
ROOT
ATOM      1  N   UNL     1      -1.816  -4.015  -3.114  0.00  0.00    -0.309 N 
ATOM      2  C   UNL     1      -2.198  -5.206  -3.615  0.00  0.00    +0.240 C 
ATOM      3  O   UNL     1      -2.535  -6.099  -2.867  0.00  0.00    -0.273 OA
ATOM      4  H   UNL     1      -1.615  -3.278  -3.713  0.00  0.00    +0.149 HD
ENDROOT
BRANCH   2   5
ATOM      5  C   UNL     1      -2.207  -5.428  -5.106  0.00  0.00    +0.198 C 
ATOM      6  C   UNL     1      -3.531  -4.990  -5.690  0.00  0.00    -0.000 C 
ATOM      7  C   UNL     1      -4.081  -6.123  -6.264  0.00  0.00    +0.006 A 
ATOM      8  C   UNL     1      -5.295  -6.352  -6.957  0.00  0.00    +0.030 A 
ATOM      9  C   UNL     1      -5.580  -7.594  -7.420  0.00  0.00    +0.042 A 
ATOM     10  C   UNL     1      -4.702  -8.669  -7.230  0.00  0.00    +0.022 A 
ATOM     11  C   UNL     1      -3.526  -8.525  -6.577  0.00  0.00    +0.027 A 
ATOM     12  C   UNL     1      -3.154  -7.253  -6.062  0.00  0.00    +0.044 A 
ATOM     13  N   UNL     1      -2.085  -6.859  -5.403  0.00  0.00    -0.370 N 
ATOM     14 CL   UNL     1      -7.072  -7.859  -8.268  0.00  0.00    -0.084 Cl
ATOM     15  H   UNL     1      -1.337  -7.424  -5.153  0.00  0.00    +0.161 HD
BRANCH   6  16
ATOM     16  C   UNL     1      -4.112  -3.646  -5.655  0.00  0.00    -0.019 A 
ATOM     17  C   UNL     1      -5.498  -3.479  -5.525  0.00  0.00    +0.008 A 
ATOM     18  C   UNL     1      -6.035  -2.211  -5.493  0.00  0.00    +0.001 A 
ATOM     19  C   UNL     1      -5.210  -1.102  -5.589  0.00  0.00    +0.000 A 
ATOM     20  C   UNL     1      -3.839  -1.257  -5.718  0.00  0.00    +0.001 A 
ATOM     21  C   UNL     1      -3.284  -2.518  -5.746  0.00  0.00    +0.008 A 
ENDBRANCH   6  16
ENDBRANCH   2   5
BRANCH   1  24
ATOM     22  C   UNL     1      -1.197  -2.198   0.051  0.00  0.00    +0.168 C 
ATOM     23  C   UNL     1      -0.703  -2.695  -1.324  0.00  0.00    +0.054 C 
ATOM     24  C   UNL     1      -1.703  -3.832  -1.665  0.00  0.00    +0.089 C 
ATOM     25  C   UNL     1      -3.021  -3.277  -1.070  0.00  0.00    +0.107 C 
ATOM     26  N   UNL     1      -2.614  -2.587   0.176  0.00  0.00    -0.284 NA
BRANCH  22  27
ATOM     27  C   UNL     1      -1.068  -0.699   0.130  0.00  0.00    +0.324 C 
ATOM     28  O   UNL     1      -1.764   0.005  -0.563  0.00  0.00    -0.249 OA
BRANCH  27  30
ATOM     29  C   UNL     1      -0.112   1.282   0.994  0.00  0.00    +0.280 C 
ATOM     30  O   UNL     1      -0.180  -0.145   0.971  0.00  0.00    -0.467 OA
ENDBRANCH  27  30
ENDBRANCH  22  27
BRANCH  26  31
ATOM     31  C   UNL     1      -3.461  -1.415   0.432  0.00  0.00    +0.123 C 
BRANCH  31  32
ATOM     32  C   UNL     1      -4.809  -1.868   0.931  0.00  0.00    +0.002 A 
ATOM     33  C   UNL     1      -5.883  -1.928   0.063  0.00  0.00    +0.008 A 
ATOM     34  C   UNL     1      -7.119  -2.344   0.520  0.00  0.00    +0.000 A 
ATOM     35  C   UNL     1      -7.283  -2.700   1.846  0.00  0.00    +0.003 A 
ATOM     36  C   UNL     1      -6.211  -2.642   2.715  0.00  0.00    +0.038 A 
ATOM     37  C   UNL     1      -4.971  -2.231   2.257  0.00  0.00    +0.128 A 
ATOM     38  F   UNL     1      -3.920  -2.178   3.105  0.00  0.00    -0.205 F 
ENDBRANCH  31  32
ENDBRANCH  26  31
ENDBRANCH   1  24
TORSDOF 7
