REMARK  Name = ZINC40721946
REMARK  8 active torsions:
REMARK  status: ('A' for Active; 'I' for Inactive)
REMARK    1  A    between atoms: C_1  and  C_2
REMARK    2  A    between atoms: C_6  and  C_32
REMARK    3  A    between atoms: C_9  and  N_12
REMARK    4  A    between atoms: N_12  and  C_13
REMARK    5  A    between atoms: C_13  and  C_14
REMARK    6  A    between atoms: C_17  and  O_20
REMARK    7  A    between atoms: O_20  and  C_21
REMARK    8  A    between atoms: N_25  and  C_26
REMARK                            x       y       z     vdW  Elec       q    Type
REMARK                         _______ _______ _______ _____ _____    ______ ____
ROOT
ATOM      1  C   UNL     1      -4.901  -2.646  -1.104  0.00  0.00    -0.064 A 
ATOM      2  C   UNL     1      -5.241  -3.728  -1.895  0.00  0.00    +0.005 A 
ATOM      3  C   UNL     1      -6.541  -4.195  -1.908  0.00  0.00    +0.046 A 
ATOM      4  C   UNL     1      -7.506  -3.578  -1.125  0.00  0.00    +0.132 A 
ATOM      5  C   UNL     1      -7.162  -2.493  -0.332  0.00  0.00    +0.046 A 
ATOM      6  C   UNL     1      -5.859  -2.032  -0.319  0.00  0.00    +0.005 A 
ENDROOT
BRANCH   1   7
ATOM      7  C   UNL     1      -3.482  -2.139  -1.093  0.00  0.00    -0.046 C 
BRANCH   7   8
ATOM      8  N   UNL     1      -2.720  -2.837  -0.049  0.00  0.00    +0.385 N 
ATOM      9  H   UNL     1      -2.722  -3.828  -0.237  0.00  0.00    -0.085 HD
ATOM     10  H   UNL     1      -3.146  -2.665   0.850  0.00  0.00    -0.085 HD
BRANCH   8  19
ATOM     11  C   UNL     1       0.107   1.179   0.545  0.00  0.00    +0.011 C 
ATOM     12  C   UNL     1       0.105  -0.324   0.260  0.00  0.00    -0.033 C 
ATOM     13  C   UNL     1       0.751  -0.585  -1.103  0.00  0.00    +0.010 C 
ATOM     14  C   UNL     1       0.749  -2.088  -1.388  0.00  0.00    -0.011 C 
ATOM     15  C   UNL     1       1.542  -2.815  -0.300  0.00  0.00    +0.010 C 
ATOM     16  C   UNL     1       0.896  -2.554   1.062  0.00  0.00    -0.033 C 
ATOM     17  C   UNL     1       0.898  -1.051   1.347  0.00  0.00    +0.013 C 
ATOM     18  C   UNL     1      -0.544  -3.069   1.050  0.00  0.00    -0.006 C 
ATOM     19  C   UNL     1      -1.337  -2.342  -0.037  0.00  0.00    -0.067 C 
ATOM     20  C   UNL     1      -0.692  -2.603  -1.400  0.00  0.00    -0.009 C 
ATOM     21  C   UNL     1      -1.335  -0.839   0.248  0.00  0.00    -0.006 C 
ATOM     22  C   UNL     1       1.689  -3.281   2.150  0.00  0.00    +0.011 C 
ENDBRANCH   8  19
ENDBRANCH   7   8
ENDBRANCH   1   7
BRANCH   4  23
ATOM     23  O   UNL     1      -8.785  -4.035  -1.135  0.00  0.00    -0.423 OA
BRANCH  23  24
ATOM     24  C   UNL     1      -9.048  -5.173  -1.821  0.00  0.00    +0.347 A 
ATOM     25  N   UNL     1      -8.171  -5.939  -2.427  0.00  0.00    -0.070 NA
ATOM     26  N   UNL     1      -8.753  -6.940  -2.982  0.00  0.00    -0.019 NA
ATOM     27  N   UNL     1     -10.025  -6.890  -2.775  0.00  0.00    -0.036 NA
ATOM     28  N   UNL     1     -10.266  -5.738  -2.005  0.00  0.00    -0.162 N 
BRANCH  28  29
ATOM     29  C   UNL     1     -11.501  -5.273  -1.532  0.00  0.00    +0.072 A 
ATOM     30  C   UNL     1     -11.580  -4.638  -0.300  0.00  0.00    +0.028 A 
ATOM     31  C   UNL     1     -12.798  -4.181   0.163  0.00  0.00    +0.002 A 
ATOM     32  C   UNL     1     -13.939  -4.356  -0.599  0.00  0.00    +0.000 A 
ATOM     33  C   UNL     1     -13.864  -4.988  -1.826  0.00  0.00    +0.002 A 
ATOM     34  C   UNL     1     -12.647  -5.442  -2.297  0.00  0.00    +0.028 A 
ENDBRANCH  28  29
ENDBRANCH  23  24
ENDBRANCH   4  23
TORSDOF 6
