REMARK  Name = ZINC57699800
REMARK  9 active torsions:
REMARK  status: ('A' for Active; 'I' for Inactive)
REMARK    1  A    between atoms: C_1  and  C_2
REMARK    2  A    between atoms: C_8  and  N_10
REMARK    3  A    between atoms: N_10  and  C_11
REMARK    4  A    between atoms: C_11  and  N_13
REMARK    5  A    between atoms: N_13  and  N_14
REMARK    6  A    between atoms: C_15  and  C_17
REMARK    7  A    between atoms: C_17  and  C_18
REMARK    8  A    between atoms: C_18  and  C_19
REMARK    9  A    between atoms: C_19  and  N_20
REMARK                            x       y       z     vdW  Elec       q    Type
REMARK                         _______ _______ _______ _____ _____    ______ ____
ROOT
ATOM      1  N   UNL     1      -1.257   0.843   4.663  0.00  0.00    -0.235 N 
ATOM      2  C   UNL     1      -1.888   1.278   5.772  0.00  0.00    +0.229 C 
ATOM      3  O   UNL     1      -1.275   1.396   6.811  0.00  0.00    -0.274 OA
ATOM      4  H   UNL     1      -1.748   0.748   3.831  0.00  0.00    +0.173 HD
ENDROOT
BRANCH   1   5
ATOM      5  N   UNL     1       0.107   0.528   4.711  0.00  0.00    -0.246 N 
ATOM      6  H   UNL     1       0.598   0.623   5.542  0.00  0.00    +0.172 HD
BRANCH   5   7
ATOM      7  C   UNL     1       0.738   0.093   3.602  0.00  0.00    +0.147 C 
ATOM      8  S   UNL     1       2.405  -0.292   3.661  0.00  0.00    -0.017 S 
BRANCH   7   9
ATOM      9  N   UNL     1       0.056  -0.038   2.447  0.00  0.00    -0.322 N 
ATOM     10  H   UNL     1      -0.888   0.180   2.413  0.00  0.00    +0.148 HD
BRANCH   9  17
ATOM     11  C   UNL     1      -0.019   1.526   0.010  0.00  0.00    +0.009 C 
ATOM     12  C   UNL     1       0.002  -0.004   0.002  0.00  0.00    +0.006 C 
ATOM     13  C   UNL     1      -1.433  -0.534   0.013  0.00  0.00    +0.005 C 
ATOM     14  C   UNL     1      -1.413  -2.063   0.004  0.00  0.00    +0.000 C 
ATOM     15  C   UNL     1      -0.673  -2.570   1.244  0.00  0.00    +0.002 C 
ATOM     16  C   UNL     1       0.763  -2.041   1.233  0.00  0.00    +0.022 C 
ATOM     17  C   UNL     1       0.742  -0.511   1.242  0.00  0.00    +0.075 C 
ENDBRANCH   9  17
ENDBRANCH   7   9
ENDBRANCH   5   7
ENDBRANCH   1   5
BRANCH   2  18
ATOM     18  C   UNL     1      -3.356   1.616   5.720  0.00  0.00    +0.099 C 
BRANCH  18  19
ATOM     19  C   UNL     1      -3.821   2.081   7.101  0.00  0.00    +0.029 C 
BRANCH  19  20
ATOM     20  C   UNL     1      -5.311   2.425   7.049  0.00  0.00    +0.118 C 
BRANCH  20  21
ATOM     21  N   UNL     1      -5.756   2.870   8.371  0.00  0.00    -0.224 N 
ATOM     22  C   UNL     1      -6.235   2.046   9.328  0.00  0.00    +0.246 C 
ATOM     23  O   UNL     1      -6.374   0.843   9.261  0.00  0.00    -0.273 OA
ATOM     24  C   UNL     1      -6.559   2.940  10.498  0.00  0.00    +0.113 C 
ATOM     25  C   UNL     1      -8.048   2.856  10.859  0.00  0.00    +0.035 C 
ATOM     26  C   UNL     1      -8.089   1.869  12.054  0.00  0.00    +0.003 C 
ATOM     27  C   UNL     1      -6.801   2.225  12.839  0.00  0.00    +0.003 C 
ATOM     28  C   UNL     1      -5.762   2.540  11.741  0.00  0.00    +0.035 C 
ATOM     29  N   UNL     1      -6.201   4.284  10.041  0.00  0.00    -0.285 N 
ATOM     30  C   UNL     1      -5.734   4.144   8.784  0.00  0.00    +0.309 C 
ATOM     31  O   UNL     1      -5.340   5.069   8.102  0.00  0.00    -0.252 OA
ATOM     32  H   UNL     1      -6.280   5.110  10.544  0.00  0.00    +0.151 HD
ENDBRANCH  20  21
ENDBRANCH  19  20
ENDBRANCH  18  19
ENDBRANCH   2  18
TORSDOF 8
