REMARK  Name = ZINC63881770
REMARK  8 active torsions:
REMARK  status: ('A' for Active; 'I' for Inactive)
REMARK    1  A    between atoms: C_1  and  C_2
REMARK    2  A    between atoms: C_10  and  C_12
REMARK    3  A    between atoms: C_12  and  N_13
REMARK    4  A    between atoms: N_13  and  C_14
REMARK    5  A    between atoms: C_15  and  C_17
REMARK    6  A    between atoms: C_17  and  C_18
REMARK    7  A    between atoms: N_25  and  C_26
REMARK    8  A    between atoms: C_26  and  C_27
REMARK                            x       y       z     vdW  Elec       q    Type
REMARK                         _______ _______ _______ _____ _____    ______ ____
ROOT
ATOM      1  C   UNL     1       0.852  -2.357   5.437  0.00  0.00    +0.124 C 
ENDROOT
BRANCH   1   2
ATOM      2  C   UNL     1       0.248  -1.748   6.704  0.00  0.00    +0.152 C 
ATOM      3  C   UNL     1       0.860  -0.398   6.950  0.00  0.00    +0.231 C 
ATOM      4  O   UNL     1       2.055  -0.266   6.797  0.00  0.00    -0.274 OA
ATOM      5  N   UNL     1       0.141   0.663   7.329  0.00  0.00    -0.313 N 
ATOM      6  C   UNL     1      -1.308   0.619   7.505  0.00  0.00    +0.119 C 
ATOM      7  C   UNL     1      -1.775  -0.831   7.643  0.00  0.00    +0.104 C 
ATOM      8  N   UNL     1      -1.205  -1.616   6.536  0.00  0.00    -0.285 NA
ATOM      9  H   UNL     1       0.602   1.500   7.495  0.00  0.00    +0.149 HD
BRANCH   8  10
ATOM     10  C   UNL     1      -1.847  -2.934   6.443  0.00  0.00    +0.123 C 
BRANCH  10  11
ATOM     11  C   UNL     1      -3.247  -2.775   5.907  0.00  0.00    +0.005 A 
ATOM     12  C   UNL     1      -4.324  -2.781   6.774  0.00  0.00    +0.008 A 
ATOM     13  C   UNL     1      -5.608  -2.634   6.284  0.00  0.00    +0.003 A 
ATOM     14  C   UNL     1      -5.818  -2.482   4.926  0.00  0.00    +0.041 A 
ATOM     15  C   UNL     1      -4.742  -2.475   4.056  0.00  0.00    +0.159 A 
ATOM     16  C   UNL     1      -3.453  -2.616   4.548  0.00  0.00    +0.163 A 
ATOM     17  F   UNL     1      -2.401  -2.604   3.701  0.00  0.00    -0.202 F 
ATOM     18  F   UNL     1      -4.947  -2.326   2.729  0.00  0.00    -0.202 F 
ENDBRANCH  10  11
ENDBRANCH   8  10
ENDBRANCH   1   2
BRANCH   1  21
ATOM     19  N   UNL     1       1.084  -1.742   3.052  0.00  0.00    -0.302 N 
ATOM     20  C   UNL     1       1.957  -2.907   2.885  0.00  0.00    +0.132 C 
ATOM     21  C   UNL     1       0.551  -1.466   4.259  0.00  0.00    +0.217 C 
ATOM     22  O   UNL     1      -0.171  -0.502   4.397  0.00  0.00    -0.276 OA
BRANCH  19  23
ATOM     23  C   UNL     1       0.792  -0.876   1.907  0.00  0.00    +0.136 C 
BRANCH  23  33
ATOM     24  C   UNL     1      -0.969   0.902  -0.154  0.00  0.00    +0.042 C 
ATOM     25  C   UNL     1      -0.704  -0.579  -0.067  0.00  0.00    -0.040 C 
ATOM     26  C   UNL     1      -0.632  -1.454  -1.097  0.00  0.00    -0.001 A 
ATOM     27  C   UNL     1      -0.775  -1.294  -2.549  0.00  0.00    +0.010 A 
ATOM     28  C   UNL     1      -0.648  -2.381  -3.344  0.00  0.00    +0.001 A 
ATOM     29  C   UNL     1      -0.385  -3.653  -2.817  0.00  0.00    +0.002 A 
ATOM     30  C   UNL     1      -0.241  -3.879  -1.494  0.00  0.00    +0.026 A 
ATOM     31  C   UNL     1      -0.354  -2.807  -0.565  0.00  0.00    +0.043 A 
ATOM     32  N   UNL     1      -0.257  -2.771   0.742  0.00  0.00    -0.376 N 
ATOM     33  C   UNL     1      -0.458  -1.387   1.187  0.00  0.00    +0.123 C 
ATOM     34  H   UNL     1      -0.079  -3.531   1.318  0.00  0.00    +0.160 HD
ENDBRANCH  23  33
ENDBRANCH  19  23
ENDBRANCH   1  21
TORSDOF 6
