REMARK  Name = ZINC35700971
REMARK  16 active torsions:
REMARK  status: ('A' for Active; 'I' for Inactive)
REMARK    1  A    between atoms: C_1  and  C_2
REMARK    2  A    between atoms: C_3  and  C_30
REMARK    3  A    between atoms: C_4  and  C_20
REMARK    4  A    between atoms: C_7  and  C_12
REMARK    5  A    between atoms: C_13  and  N_15
REMARK    6  A    between atoms: N_15  and  C_16
REMARK    7  A    between atoms: C_16  and  C_17
REMARK    8  A    between atoms: C_22  and  O_28
REMARK    9  A    between atoms: C_24  and  O_26
REMARK   10  A    between atoms: O_26  and  C_27
REMARK   11  A    between atoms: O_28  and  C_29
REMARK   12  A    between atoms: C_30  and  O_32
REMARK   13  A    between atoms: O_32  and  C_33
REMARK   14  A    between atoms: C_33  and  C_34
REMARK   15  A    between atoms: C_34  and  O_35
REMARK   16  A    between atoms: O_35  and  C_36
REMARK                            x       y       z     vdW  Elec       q    Type
REMARK                         _______ _______ _______ _____ _____    ______ ____
ROOT
ATOM      1  C   UNL     1       0.392   0.932  -0.456  0.00  0.00    +0.066 C 
ATOM      2  C   UNL     1       0.374  -0.573  -0.381  0.00  0.00    +0.053 C 
ATOM      3  C   UNL     1      -0.832  -1.240  -0.275  0.00  0.00    +0.082 C 
ATOM      4  C   UNL     1      -0.798  -2.751  -0.204  0.00  0.00    +0.150 C 
ATOM      5  N   UNL     1       0.539  -3.401  -0.255  0.00  0.00    -0.267 N 
ATOM      6  C   UNL     1       0.807  -4.754  -0.206  0.00  0.00    +0.048 C 
ATOM      7  C   UNL     1       2.100  -5.140  -0.268  0.00  0.00    +0.072 C 
ATOM      8  S   UNL     1       2.945  -3.576  -0.396  0.00  0.00    -0.060 S 
ATOM      9  C   UNL     1       1.610  -2.559  -0.362  0.00  0.00    +0.166 C 
ATOM     10  N   UNL     1       1.511  -1.247  -0.424  0.00  0.00    -0.230 NA
ENDROOT
BRANCH   4  11
ATOM     11  C   UNL     1      -1.618  -3.287  -1.348  0.00  0.00    -0.015 A 
ATOM     12  C   UNL     1      -1.122  -3.235  -2.637  0.00  0.00    +0.051 A 
ATOM     13  C   UNL     1      -1.875  -3.728  -3.692  0.00  0.00    +0.124 A 
ATOM     14  C   UNL     1      -3.127  -4.274  -3.454  0.00  0.00    +0.091 A 
ATOM     15  C   UNL     1      -3.623  -4.325  -2.160  0.00  0.00    +0.124 A 
ATOM     16  C   UNL     1      -2.863  -3.836  -1.107  0.00  0.00    +0.051 A 
BRANCH  15  17
ATOM     17  O   UNL     1      -4.850  -4.859  -1.923  0.00  0.00    -0.495 OA
ATOM     18  C   UNL     1      -5.525  -5.453  -3.034  0.00  0.00    +0.277 C 
ENDBRANCH  15  17
BRANCH  13  19
ATOM     19  O   UNL     1      -1.386  -3.676  -4.959  0.00  0.00    -0.495 OA
ATOM     20  C   UNL     1      -2.216  -4.203  -5.997  0.00  0.00    +0.277 C 
ENDBRANCH  13  19
ENDBRANCH   4  11
BRANCH   6  21
ATOM     21  C   UNL     1      -0.277  -5.741  -0.091  0.00  0.00    +0.091 C 
ATOM     22  C   UNL     1       0.015  -7.043   0.097  0.00  0.00    +0.239 C 
ATOM     23  O   UNL     1       1.297  -7.426   0.311  0.00  0.00    -0.271 OA
BRANCH  22  24
ATOM     24  N   UNL     1      -0.996  -7.989   0.073  0.00  0.00    -0.312 N 
ATOM     25  H   UNL     1      -1.921  -7.709  -0.005  0.00  0.00    +0.149 HD
BRANCH  24  26
ATOM     26  C   UNL     1      -0.667  -9.414   0.166  0.00  0.00    +0.108 C 
BRANCH  26  27
ATOM     27  C   UNL     1      -1.941 -10.243  -0.008  0.00  0.00    +0.006 C 
ATOM     28  C   UNL     1      -2.417 -11.066   1.190  0.00  0.00    +0.005 C 
ATOM     29  C   UNL     1      -1.796 -11.766  -0.020  0.00  0.00    +0.005 C 
ENDBRANCH  26  27
ENDBRANCH  24  26
ENDBRANCH  22  24
ENDBRANCH   6  21
BRANCH   3  30
ATOM     30  C   UNL     1      -2.044  -0.541  -0.233  0.00  0.00    +0.339 C 
ATOM     31  O   UNL     1      -2.048   0.676  -0.291  0.00  0.00    -0.245 OA
BRANCH  30  32
ATOM     32  O   UNL     1      -3.210  -1.216  -0.128  0.00  0.00    -0.459 OA
BRANCH  32  33
ATOM     33  C   UNL     1      -4.409  -0.439  -0.091  0.00  0.00    +0.260 C 
BRANCH  33  34
ATOM     34  C   UNL     1      -5.617  -1.370   0.028  0.00  0.00    +0.200 C 
BRANCH  34  35
ATOM     35  O   UNL     1      -5.570  -2.052   1.283  0.00  0.00    -0.380 OA
ATOM     36  C   UNL     1      -6.660  -2.952   1.496  0.00  0.00    +0.194 C 
ENDBRANCH  34  35
ENDBRANCH  33  34
ENDBRANCH  32  33
ENDBRANCH  30  32
ENDBRANCH   3  30
TORSDOF 12
