REMARK  Name = ZINC01817623
REMARK  9 active torsions:
REMARK  status: ('A' for Active; 'I' for Inactive)
REMARK    1  A    between atoms: C_1  and  C_2
REMARK    2  A    between atoms: C_4  and  C_12
REMARK    3  A    between atoms: C_7  and  O_8
REMARK    4  A    between atoms: O_8  and  C_9
REMARK    5  A    between atoms: C_9  and  C_10
REMARK    6  A    between atoms: C_9  and  C_11
REMARK    7  A    between atoms: C_13  and  C_23
REMARK    8  A    between atoms: N_15  and  C_17
REMARK    9  A    between atoms: N_27  and  C_31
REMARK                            x       y       z     vdW  Elec       q    Type
REMARK                         _______ _______ _______ _____ _____    ______ ____
ROOT
ATOM      1  C   UNL     1       0.688  -4.649  -0.787  0.00  0.00    +0.100 A 
ATOM      2  C   UNL     1       1.346  -5.294  -1.930  0.00  0.00    +0.022 A 
ATOM      3  C   UNL     1       0.991  -6.630  -1.880  0.00  0.00    +0.123 A 
ATOM      4  N   UNL     1       0.183  -6.801  -0.817  0.00  0.00    -0.239 N 
ATOM      5  N   UNL     1       0.007  -5.581  -0.158  0.00  0.00    -0.166 NA
ENDROOT
BRANCH   2   6
ATOM      6  C   UNL     1       2.210  -4.651  -2.925  0.00  0.00    +0.032 C 
ATOM      7  C   UNL     1       3.264  -5.329  -3.449  0.00  0.00    +0.077 C 
ATOM      8  C   UNL     1       3.826  -6.636  -3.064  0.00  0.00    +0.259 C 
ATOM      9  O   UNL     1       3.352  -7.292  -2.153  0.00  0.00    -0.269 OA
ATOM     10  N   UNL     1       4.867  -7.063  -3.758  0.00  0.00    -0.251 N 
ATOM     11  C   UNL     1       5.393  -6.331  -4.761  0.00  0.00    +0.121 C 
ATOM     12  S   UNL     1       6.730  -6.705  -5.763  0.00  0.00    -0.027 S 
ATOM     13  S   UNL     1       4.356  -4.878  -4.791  0.00  0.00    -0.061 S 
BRANCH  10  14
ATOM     14  C   UNL     1       5.467  -8.358  -3.425  0.00  0.00    +0.105 C 
ATOM     15  C   UNL     1       5.408  -9.279  -4.656  0.00  0.00    +0.047 C 
ATOM     16  C   UNL     1       6.315 -10.512  -4.382  0.00  0.00    +0.168 C 
ATOM     17  S   UNL     1       7.751  -9.697  -3.564  0.00  0.00    -0.029 S 
ATOM     18  O   UNL     1       8.723  -9.375  -4.549  0.00  0.00    -0.174 OA
ATOM     19  O   UNL     1       8.131 -10.462  -2.428  0.00  0.00    -0.174 OA
ATOM     20  C   UNL     1       6.939  -8.147  -2.996  0.00  0.00    +0.188 C 
ENDBRANCH  10  14
ENDBRANCH   2   6
BRANCH   1  24
ATOM     21  C   UNL     1      -1.452  -0.541   1.072  0.00  0.00    +0.047 C 
ATOM     22  C   UNL     1      -0.255  -1.239   0.478  0.00  0.00    -0.008 A 
ATOM     23  C   UNL     1      -0.336  -2.572   0.134  0.00  0.00    +0.017 A 
ATOM     24  C   UNL     1       0.771  -3.217  -0.416  0.00  0.00    +0.003 A 
ATOM     25  C   UNL     1       1.958  -2.511  -0.616  0.00  0.00    +0.014 A 
ATOM     26  C   UNL     1       2.030  -1.177  -0.275  0.00  0.00    +0.046 A 
ATOM     27  C   UNL     1       0.927  -0.539   0.278  0.00  0.00    +0.124 A 
BRANCH  27  28
ATOM     28  O   UNL     1       1.003   0.774   0.618  0.00  0.00    -0.489 OA
BRANCH  28  29
ATOM     29  C   UNL     1       2.279   1.404   0.491  0.00  0.00    +0.167 C 
ATOM     30  C   UNL     1       2.467   1.891  -0.948  0.00  0.00    +0.051 C 
ATOM     31  C   UNL     1       2.357   2.596   1.447  0.00  0.00    +0.051 C 
ENDBRANCH  28  29
ENDBRANCH  27  28
ENDBRANCH   1  24
BRANCH   4  32
ATOM     32  C   UNL     1      -0.394  -8.017  -0.430  0.00  0.00    +0.065 A 
ATOM     33  C   UNL     1      -0.152  -9.168  -1.168  0.00  0.00    +0.028 A 
ATOM     34  C   UNL     1      -0.718 -10.367  -0.781  0.00  0.00    +0.002 A 
ATOM     35  C   UNL     1      -1.534 -10.420   0.334  0.00  0.00    +0.000 A 
ATOM     36  C   UNL     1      -1.782  -9.274   1.068  0.00  0.00    +0.002 A 
ATOM     37  C   UNL     1      -1.214  -8.073   0.689  0.00  0.00    +0.028 A 
ENDBRANCH   4  32
TORSDOF 6
