REMARK  Name = ZINC18107127
REMARK  3 active torsions:
REMARK  status: ('A' for Active; 'I' for Inactive)
REMARK    1  A    between atoms: N_9  and  N_10
REMARK    2  A    between atoms: N_10  and  C_11
REMARK    3  A    between atoms: C_11  and  N_13
REMARK                            x       y       z     vdW  Elec       q    Type
REMARK                         _______ _______ _______ _____ _____    ______ ____
ROOT
ATOM      1  C   UNL     1       0.060   1.363  -0.781  0.00  0.00    +0.017 A 
ATOM      2  C   UNL     1       1.241   2.017  -1.070  0.00  0.00    +0.025 A 
ATOM      3  C   UNL     1       2.444   1.320  -1.066  0.00  0.00    +0.043 A 
ATOM      4  C   UNL     1       2.437  -0.048  -0.764  0.00  0.00    +0.029 A 
ATOM      5  C   UNL     1       1.244  -0.699  -0.475  0.00  0.00    +0.027 A 
ATOM      6  C   UNL     1       0.058   0.010  -0.484  0.00  0.00    +0.019 A 
ATOM      7 BR   UNL     1      -1.571  -0.868  -0.091  0.00  0.00    -0.050 Br
ATOM      8  C   UNL     1       3.847  -0.500  -0.839  0.00  0.00    +0.153 C 
ATOM      9  N   UNL     1       4.310  -1.709  -0.630  0.00  0.00    -0.175 NA
ATOM     10  C   UNL     1       4.615   0.708  -1.198  0.00  0.00    +0.269 C 
ATOM     11  O   UNL     1       5.820   0.767  -1.360  0.00  0.00    -0.268 OA
ATOM     12  N   UNL     1       3.750   1.729  -1.316  0.00  0.00    -0.280 N 
ATOM     13  H   UNL     1       4.003   2.636  -1.547  0.00  0.00    +0.155 HD
ENDROOT
BRANCH   9  14
ATOM     14  N   UNL     1       3.457  -2.713  -0.154  0.00  0.00    -0.218 N 
ATOM     15  H   UNL     1       2.511  -2.533  -0.041  0.00  0.00    +0.176 HD
BRANCH  14  16
ATOM     16  C   UNL     1       3.952  -3.930   0.148  0.00  0.00    +0.153 C 
ATOM     17  S   UNL     1       2.888  -5.244   0.419  0.00  0.00    -0.017 S 
BRANCH  16  18
ATOM     18  N   UNL     1       5.284  -4.113   0.235  0.00  0.00    -0.307 N 
ATOM     19  C   UNL     1       6.213  -2.977   0.132  0.00  0.00    +0.135 C 
ATOM     20  C   UNL     1       7.181  -3.034   1.320  0.00  0.00    +0.179 C 
ATOM     21  O   UNL     1       7.772  -4.333   1.384  0.00  0.00    -0.377 OA
ATOM     22  C   UNL     1       6.838  -5.391   1.611  0.00  0.00    +0.179 C 
ATOM     23  C   UNL     1       5.853  -5.455   0.443  0.00  0.00    +0.135 C 
ENDBRANCH  16  18
ENDBRANCH  14  16
ENDBRANCH   9  14
TORSDOF 3
