REMARK  Name = ZINC20284290
REMARK  14 active torsions:
REMARK  status: ('A' for Active; 'I' for Inactive)
REMARK    1  A    between atoms: C_1  and  C_2
REMARK    2  A    between atoms: C_2  and  C_3
REMARK    3  A    between atoms: C_2  and  C_4
REMARK    4  A    between atoms: C_4  and  C_5
REMARK    5  A    between atoms: C_5  and  C_7
REMARK    6  A    between atoms: C_5  and  N_21
REMARK    7  A    between atoms: N_9  and  C_10
REMARK    8  A    between atoms: C_13  and  O_18
REMARK    9  A    between atoms: C_15  and  O_16
REMARK   10  A    between atoms: O_16  and  C_17
REMARK   11  A    between atoms: O_18  and  C_19
REMARK   12  A    between atoms: N_21  and  S_22
REMARK   13  A    between atoms: S_22  and  C_25
REMARK   14  A    between atoms: N_34  and  C_35
REMARK                            x       y       z     vdW  Elec       q    Type
REMARK                         _______ _______ _______ _____ _____    ______ ____
ROOT
ATOM      1  C   UNL     1      -7.835  -0.108   3.466  0.00  0.00    +0.163 C 
ENDROOT
BRANCH   1   2
ATOM      2  C   UNL     1      -6.335  -0.249   3.479  0.00  0.00    +0.236 C 
ATOM      3  O   UNL     1      -5.692   0.198   4.406  0.00  0.00    -0.274 OA
ATOM      4  N   UNL     1      -5.707  -0.873   2.463  0.00  0.00    -0.281 N 
ATOM      5  H   UNL     1      -6.279  -1.202   1.583  0.00  0.00    +0.155 HD
BRANCH   4   6
ATOM      6  C   UNL     1      -4.324  -1.101   2.526  0.00  0.00    +0.077 A 
ATOM      7  C   UNL     1      -3.680  -1.127   3.755  0.00  0.00    +0.050 A 
ATOM      8  C   UNL     1      -2.319  -1.357   3.818  0.00  0.00    +0.084 A 
ATOM      9  C   UNL     1      -1.591  -1.552   2.652  0.00  0.00    +0.142 A 
ATOM     10  C   UNL     1      -2.231  -1.527   1.422  0.00  0.00    +0.094 A 
ATOM     11  C   UNL     1      -3.596  -1.302   1.356  0.00  0.00    +0.145 A 
ATOM     12 CL   UNL     1      -1.517  -1.397   5.357  0.00  0.00    -0.080 Cl
BRANCH  11  13
ATOM     13  O   UNL     1      -4.225  -1.276   0.150  0.00  0.00    -0.493 OA
ATOM     14  C   UNL     1      -3.415  -1.489  -1.008  0.00  0.00    +0.277 C 
ENDBRANCH  11  13
BRANCH   9  15
ATOM     15  O   UNL     1      -0.251  -1.774   2.716  0.00  0.00    -0.494 OA
ATOM     16  C   UNL     1       0.434  -1.973   1.478  0.00  0.00    +0.277 C 
ENDBRANCH   9  15
ENDBRANCH   4   6
ENDBRANCH   1   2
BRANCH   1  17
ATOM     17  N   UNL     1      -8.270   0.601   4.672  0.00  0.00    -0.178 NA
ATOM     18  H   UNL     1      -7.728   1.497   5.009  0.00  0.00    +0.149 HD
BRANCH  17  19
ATOM     19  S   UNL     1      -9.411  -0.076   5.663  0.00  0.00    +0.059 S 
ATOM     20  O   UNL     1      -9.586   0.821   6.751  0.00  0.00    -0.153 OA
ATOM     21  O   UNL     1     -10.487  -0.479   4.828  0.00  0.00    -0.153 OA
BRANCH  19  22
ATOM     22  C   UNL     1      -8.713  -1.549   6.332  0.00  0.00    +0.109 A 
ATOM     23  C   UNL     1      -8.006  -1.498   7.521  0.00  0.00    +0.031 A 
ATOM     24  C   UNL     1      -7.455  -2.648   8.052  0.00  0.00    +0.031 A 
ATOM     25  C   UNL     1      -7.613  -3.856   7.391  0.00  0.00    +0.090 A 
ATOM     26  C   UNL     1      -8.325  -3.909   6.193  0.00  0.00    +0.159 A 
ATOM     27  C   UNL     1      -8.879  -2.750   5.671  0.00  0.00    +0.077 A 
ATOM     28  O   UNL     1      -8.318  -5.199   5.777  0.00  0.00    -0.407 OA
ATOM     29  C   UNL     1      -7.636  -5.944   6.660  0.00  0.00    +0.421 A 
ATOM     30  O   UNL     1      -7.448  -7.142   6.572  0.00  0.00    -0.223 OA
ATOM     31  N   UNL     1      -7.189  -5.157   7.660  0.00  0.00    -0.277 N 
ATOM     32  C   UNL     1      -6.403  -5.590   8.818  0.00  0.00    +0.156 C 
ENDBRANCH  19  22
ENDBRANCH  17  19
ENDBRANCH   1  17
BRANCH   1  33
ATOM     33  C   UNL     1      -8.261   0.683   2.227  0.00  0.00    +0.032 C 
BRANCH  33  35
ATOM     34  C   UNL     1     -10.219   1.620   0.989  0.00  0.00    +0.007 C 
ATOM     35  C   UNL     1      -9.789   0.706   2.138  0.00  0.00    -0.015 C 
ATOM     36  C   UNL     1     -10.306  -0.712   1.882  0.00  0.00    +0.007 C 
ENDBRANCH  33  35
ENDBRANCH   1  33
TORSDOF 9
