REMARK  Name = ZINC36049846
REMARK  15 active torsions:
REMARK  status: ('A' for Active; 'I' for Inactive)
REMARK    1  A    between atoms: C_1  and  C_2
REMARK    2  A    between atoms: C_2  and  C_3
REMARK    3  A    between atoms: C_2  and  C_4
REMARK    4  A    between atoms: C_6  and  N_25
REMARK    5  A    between atoms: C_8  and  S_10
REMARK    6  A    between atoms: S_10  and  C_11
REMARK    7  A    between atoms: C_11  and  C_12
REMARK    8  A    between atoms: C_15  and  C_17
REMARK    9  A    between atoms: N_19  and  C_20
REMARK   10  A    between atoms: C_20  and  C_21
REMARK   11  A    between atoms: C_21  and  N_22
REMARK   12  A    between atoms: N_22  and  C_23
REMARK   13  A    between atoms: N_22  and  C_24
REMARK   14  A    between atoms: N_25  and  C_26
REMARK   15  A    between atoms: N_25  and  C_27
REMARK                            x       y       z     vdW  Elec       q    Type
REMARK                         _______ _______ _______ _____ _____    ______ ____
ROOT
ATOM      1  C   UNL     1      -1.412  -0.526   0.013  0.00  0.00    +0.050 A 
ATOM      2  C   UNL     1      -2.093  -0.671   1.206  0.00  0.00    +0.067 A 
ATOM      3  C   UNL     1      -3.402  -1.158   1.171  0.00  0.00    +0.126 A 
ATOM      4  N   UNL     1      -3.945  -1.464  -0.003  0.00  0.00    -0.207 NA
ATOM      5  C   UNL     1      -3.257  -1.310  -1.125  0.00  0.00    +0.191 A 
ATOM      6  N   UNL     1      -2.016  -0.845  -1.122  0.00  0.00    -0.226 NA
ENDROOT
BRANCH   1   8
ATOM      7  C   UNL     1      -0.019   1.526   0.010  0.00  0.00    +0.014 C 
ATOM      8  C   UNL     1       0.002  -0.004   0.002  0.00  0.00    +0.032 C 
ATOM      9  C   UNL     1       0.742  -0.511   1.242  0.00  0.00    +0.014 C 
ENDBRANCH   1   8
BRANCH   3  10
ATOM     10  N   UNL     1      -4.123  -1.320   2.342  0.00  0.00    -0.315 N 
ATOM     11  C   UNL     1      -3.555  -0.878   3.619  0.00  0.00    +0.131 C 
BRANCH  10  12
ATOM     12  C   UNL     1      -5.453  -1.933   2.305  0.00  0.00    +0.075 C 
ATOM     13  C   UNL     1      -6.486  -0.943   2.846  0.00  0.00    +0.022 C 
ATOM     14  C   UNL     1      -7.875  -1.584   2.807  0.00  0.00    +0.002 C 
ATOM     15  C   UNL     1      -7.878  -2.847   3.670  0.00  0.00    +0.000 C 
ATOM     16  C   UNL     1      -6.845  -3.837   3.129  0.00  0.00    +0.002 C 
ATOM     17  C   UNL     1      -5.456  -3.196   3.168  0.00  0.00    +0.022 C 
ENDBRANCH  10  12
ENDBRANCH   3  10
BRANCH   5  18
ATOM     18  S   UNL     1      -4.014  -1.727  -2.661  0.00  0.00    -0.078 S 
BRANCH  18  19
ATOM     19  C   UNL     1      -5.671  -2.298  -2.192  0.00  0.00    +0.151 C 
BRANCH  19  20
ATOM     20  C   UNL     1      -6.436  -2.691  -3.430  0.00  0.00    +0.116 A 
ATOM     21  C   UNL     1      -6.460  -3.925  -3.982  0.00  0.00    +0.046 A 
ATOM     22  C   UNL     1      -7.288  -3.855  -5.113  0.00  0.00    +0.055 A 
ATOM     23  C   UNL     1      -7.733  -2.567  -5.196  0.00  0.00    +0.189 A 
ATOM     24  O   UNL     1      -7.208  -1.877  -4.162  0.00  0.00    -0.454 OA
BRANCH  23  25
ATOM     25  C   UNL     1      -8.628  -2.029  -6.225  0.00  0.00    +0.279 C 
ATOM     26  O   UNL     1      -9.042  -2.753  -7.111  0.00  0.00    -0.267 OA
ATOM     27  N   UNL     1      -8.992  -0.732  -6.190  0.00  0.00    -0.311 N 
ATOM     28  H   UNL     1      -8.662  -0.154  -5.484  0.00  0.00    +0.149 HD
BRANCH  27  29
ATOM     29  C   UNL     1      -9.886  -0.194  -7.219  0.00  0.00    +0.086 C 
BRANCH  29  30
ATOM     30  C   UNL     1     -10.139   1.291  -6.949  0.00  0.00    -0.061 C 
BRANCH  30  31
ATOM     31  N   UNL     1     -11.035   1.830  -7.981  0.00  0.00    +0.377 N 
ATOM     32  C   UNL     1     -11.373   3.222  -7.656  0.00  0.00    -0.097 C 
ATOM     33  C   UNL     1     -10.364   1.781  -9.287  0.00  0.00    -0.097 C 
ATOM     34  H   UNL     1     -11.879   1.278  -8.015  0.00  0.00    -0.083 HD
ENDBRANCH  30  31
ENDBRANCH  29  30
ENDBRANCH  27  29
ENDBRANCH  23  25
ENDBRANCH  19  20
ENDBRANCH  18  19
ENDBRANCH   5  18
TORSDOF 10
