REMARK  Name = ZINC09008356
REMARK  7 active torsions:
REMARK  status: ('A' for Active; 'I' for Inactive)
REMARK    1  A    between atoms: C_1  and  C_2
REMARK    2  A    between atoms: C_2  and  C_23
REMARK    3  A    between atoms: N_3  and  N_4
REMARK    4  A    between atoms: C_10  and  C_13
REMARK    5  A    between atoms: N_15  and  C_16
REMARK    6  A    between atoms: C_26  and  O_30
REMARK    7  A    between atoms: O_30  and  C_31
REMARK                            x       y       z     vdW  Elec       q    Type
REMARK                         _______ _______ _______ _____ _____    ______ ____
ROOT
ATOM      1  N   UNL     1       0.046  -0.004   2.257  0.00  0.00    -0.126 NA
ATOM      2  C   UNL     1       0.059  -0.674   3.390  0.00  0.00    +0.183 C 
ATOM      3  N   UNL     1       0.079  -2.056   3.409  0.00  0.00    -0.264 N 
ATOM      4  C   UNL     1      -0.215  -2.792   4.471  0.00  0.00    +0.220 C 
ATOM      5  O   UNL     1      -0.279  -3.988   4.280  0.00  0.00    -0.275 OA
ATOM      6  C   UNL     1      -0.476  -2.345   5.867  0.00  0.00    +0.120 C 
ATOM      7  C   UNL     1      -1.042  -0.925   5.931  0.00  0.00    +0.149 C 
ATOM      8  S   UNL     1       0.058   0.159   4.954  0.00  0.00    -0.075 S 
ATOM      9  H   UNL     1       0.323  -2.518   2.591  0.00  0.00    +0.157 HD
ENDROOT
BRANCH   7  10
ATOM     10  C   UNL     1      -1.082  -0.455   7.362  0.00  0.00    +0.231 C 
ATOM     11  O   UNL     1      -0.211  -0.794   8.136  0.00  0.00    -0.274 OA
ATOM     12  N   UNL     1      -2.084   0.341   7.783  0.00  0.00    -0.285 N 
ATOM     13  H   UNL     1      -2.743   0.667   7.150  0.00  0.00    +0.155 HD
BRANCH  12  14
ATOM     14  C   UNL     1      -2.175   0.699   9.133  0.00  0.00    +0.034 A 
ATOM     15  C   UNL     1      -3.419   0.841   9.733  0.00  0.00    +0.025 A 
ATOM     16  C   UNL     1      -3.505   1.193  11.066  0.00  0.00    +0.022 A 
ATOM     17  C   UNL     1      -2.353   1.406  11.803  0.00  0.00    +0.041 A 
ATOM     18  C   UNL     1      -1.112   1.265  11.207  0.00  0.00    +0.022 A 
ATOM     19  C   UNL     1      -1.020   0.907   9.876  0.00  0.00    +0.025 A 
ATOM     20 CL   UNL     1      -2.465   1.849  13.477  0.00  0.00    -0.084 Cl
ENDBRANCH  12  14
ENDBRANCH   7  10
BRANCH   1  23
ATOM     21  C   UNL     1       0.019   1.534   0.025  0.00  0.00    +0.068 C 
ATOM     22  C   UNL     1       0.034   0.027   0.009  0.00  0.00    +0.068 C 
ATOM     23  N   UNL     1       0.047  -0.637   1.133  0.00  0.00    -0.152 NA
BRANCH  22  24
ATOM     24  C   UNL     1       0.035  -0.695  -1.272  0.00  0.00    -0.001 A 
ATOM     25  C   UNL     1       0.027   0.015  -2.478  0.00  0.00    +0.013 A 
ATOM     26  C   UNL     1       0.028  -0.666  -3.676  0.00  0.00    +0.047 A 
ATOM     27  C   UNL     1       0.037  -2.055  -3.688  0.00  0.00    +0.134 A 
ATOM     28  C   UNL     1       0.044  -2.765  -2.494  0.00  0.00    +0.060 A 
ATOM     29  C   UNL     1       0.049  -2.094  -1.290  0.00  0.00    +0.028 A 
ATOM     30 BR   UNL     1       0.055  -4.656  -2.520  0.00  0.00    -0.046 Br
BRANCH  27  31
ATOM     31  O   UNL     1       0.037  -2.722  -4.872  0.00  0.00    -0.494 OA
ATOM     32  C   UNL     1       0.028  -1.930  -6.062  0.00  0.00    +0.277 C 
ENDBRANCH  27  31
ENDBRANCH  22  24
ENDBRANCH   1  23
TORSDOF 5
