REMARK  Name = ZINC38702082
REMARK  7 active torsions:
REMARK  status: ('A' for Active; 'I' for Inactive)
REMARK    1  A    between atoms: C_1  and  C_2
REMARK    2  A    between atoms: C_4  and  C_37
REMARK    3  A    between atoms: C_5  and  O_36
REMARK    4  A    between atoms: C_6  and  C_8
REMARK    5  A    between atoms: N_16  and  C_28
REMARK    6  A    between atoms: C_17  and  C_19
REMARK    7  A    between atoms: C_23  and  N_25
REMARK                            x       y       z     vdW  Elec       q    Type
REMARK                         _______ _______ _______ _____ _____    ______ ____
ROOT
ATOM      1  C   UNL     1       0.050  -2.841   2.467  0.00  0.00    +0.102 A 
ATOM      2  C   UNL     1       0.141  -2.290   3.750  0.00  0.00    +0.035 A 
ATOM      3  C   UNL     1       0.119  -3.362   4.622  0.00  0.00    +0.126 A 
ATOM      4  N   UNL     1       0.017  -4.481   3.846  0.00  0.00    -0.272 N 
ATOM      5  H   UNL     1      -0.021  -5.390   4.182  0.00  0.00    +0.189 HD
ATOM      6  N   UNL     1      -0.026  -4.150   2.605  0.00  0.00    -0.173 NA
ATOM      7  C   UNL     1       0.212  -2.849   5.994  0.00  0.00    +0.266 C 
ATOM      8  O   UNL     1       0.218  -3.540   6.995  0.00  0.00    -0.268 OA
ATOM      9  N   UNL     1       0.291  -1.506   5.988  0.00  0.00    -0.280 N 
ATOM     10  C   UNL     1       0.253  -1.049   4.593  0.00  0.00    +0.142 C 
ENDROOT
BRANCH   1  16
ATOM     11  C   UNL     1      -1.672   0.941  -0.300  0.00  0.00    +0.044 C 
ATOM     12  C   UNL     1      -0.791  -0.272  -0.147  0.00  0.00    -0.049 A 
ATOM     13  C   UNL     1       0.004  -0.685  -1.202  0.00  0.00    +0.010 A 
ATOM     14  C   UNL     1       0.815  -1.796  -1.071  0.00  0.00    -0.008 A 
ATOM     15  C   UNL     1       0.836  -2.503   0.121  0.00  0.00    +0.129 A 
ATOM     16  C   UNL     1       0.034  -2.089   1.188  0.00  0.00    +0.044 A 
ATOM     17  C   UNL     1      -0.775  -0.964   1.047  0.00  0.00    +0.017 A 
ATOM     18  C   UNL     1       1.677  -2.239  -2.224  0.00  0.00    +0.047 C 
BRANCH  15  19
ATOM     19  O   UNL     1       1.633  -3.596   0.251  0.00  0.00    -0.506 OA
ATOM     20  H   UNL     1       2.519  -3.399   0.582  0.00  0.00    +0.292 HD
ENDBRANCH  15  19
ENDBRANCH   1  16
BRANCH   9  21
ATOM     21  C   UNL     1       0.396  -0.647   7.170  0.00  0.00    +0.100 C 
ATOM     22  C   UNL     1       1.651  -1.024   7.975  0.00  0.00    +0.047 C 
ATOM     23  C   UNL     1       1.603  -0.356   9.371  0.00  0.00    +0.168 C 
ATOM     24  S   UNL     1      -0.203  -0.199   9.680  0.00  0.00    -0.029 S 
ATOM     25  O   UNL     1      -0.572  -1.086  10.727  0.00  0.00    -0.174 OA
ATOM     26  O   UNL     1      -0.537   1.179   9.782  0.00  0.00    -0.174 OA
ATOM     27  C   UNL     1      -0.845  -0.856   8.083  0.00  0.00    +0.188 C 
ENDBRANCH   9  21
BRANCH  10  28
ATOM     28  C   UNL     1       1.520  -0.306   4.256  0.00  0.00    -0.020 A 
ATOM     29  C   UNL     1       2.743  -0.801   4.672  0.00  0.00    +0.006 A 
ATOM     30  C   UNL     1       3.905  -0.119   4.363  0.00  0.00    +0.003 A 
ATOM     31  C   UNL     1       3.845   1.057   3.639  0.00  0.00    +0.033 A 
ATOM     32  C   UNL     1       2.623   1.551   3.223  0.00  0.00    +0.127 A 
ATOM     33  C   UNL     1       1.461   0.867   3.528  0.00  0.00    +0.038 A 
BRANCH  32  34
ATOM     34  N   UNL     1       2.559   2.810   2.448  0.00  0.00    +0.056 N 
ATOM     35  O   UNL     1       3.576   3.407   2.179  0.00  0.00    -0.126 OA
ATOM     36  O   UNL     1       1.491   3.242   2.084  0.00  0.00    -0.126 OA
ENDBRANCH  32  34
ENDBRANCH  10  28
TORSDOF 5
