REMARK  Name = ZINC59444039
REMARK  6 active torsions:
REMARK  status: ('A' for Active; 'I' for Inactive)
REMARK    1  A    between atoms: C_1  and  C_2
REMARK    2  A    between atoms: C_7  and  C_23
REMARK    3  A    between atoms: C_8  and  C_11
REMARK    4  A    between atoms: N_13  and  N_14
REMARK    5  A    between atoms: C_15  and  C_16
REMARK    6  A    between atoms: C_21  and  O_22
REMARK                            x       y       z     vdW  Elec       q    Type
REMARK                         _______ _______ _______ _____ _____    ______ ____
ROOT
ATOM      1  C   UNL     1       0.058  -2.695   3.598  0.00  0.00    +0.282 C 
ATOM      2  O   UNL     1       1.100  -2.745   4.226  0.00  0.00    -0.267 OA
ATOM      3  N   UNL     1      -1.093  -2.382   4.225  0.00  0.00    -0.202 N 
ATOM      4  H   UNL     1      -1.934  -2.415   3.742  0.00  0.00    +0.178 HD
ENDROOT
BRANCH   1  12
ATOM      5  C   UNL     1       0.083   1.512   0.021  0.00  0.00    +0.045 C 
ATOM      6  C   UNL     1       0.073   0.005   0.009  0.00  0.00    -0.034 A 
ATOM      7  C   UNL     1       0.068  -0.684  -1.212  0.00  0.00    +0.008 A 
ATOM      8  C   UNL     1       0.059  -2.047  -1.215  0.00  0.00    +0.047 A 
ATOM      9  C   UNL     1       0.055  -2.740   0.009  0.00  0.00    +0.138 A 
ATOM     10  N   UNL     1       0.047  -4.042   0.293  0.00  0.00    -0.232 NA
ATOM     11  C   UNL     1       0.047  -4.215   1.605  0.00  0.00    +0.069 A 
ATOM     12  C   UNL     1       0.055  -2.967   2.206  0.00  0.00    +0.133 A 
ATOM     13  N   UNL     1       0.060  -2.039   1.181  0.00  0.00    -0.295 N 
ATOM     14  C   UNL     1       0.074  -0.679   1.175  0.00  0.00    +0.096 A 
ATOM     15  C   UNL     1       0.040  -5.541   2.321  0.00  0.00    +0.068 C 
ENDBRANCH   1  12
BRANCH   3  16
ATOM     16  N   UNL     1      -1.076  -2.007   5.575  0.00  0.00    -0.187 NA
ATOM     17  C   UNL     1      -2.184  -1.706   6.179  0.00  0.00    +0.142 C 
BRANCH  17  18
ATOM     18  C   UNL     1      -2.166  -1.312   7.599  0.00  0.00    +0.036 A 
ATOM     19  C   UNL     1      -3.357  -0.992   8.255  0.00  0.00    +0.013 A 
ATOM     20  C   UNL     1      -3.333  -0.625   9.584  0.00  0.00    +0.001 A 
ATOM     21  C   UNL     1      -2.132  -0.571  10.272  0.00  0.00    +0.004 A 
ATOM     22  C   UNL     1      -0.947  -0.885   9.634  0.00  0.00    +0.046 A 
ATOM     23  C   UNL     1      -0.954  -1.262   8.301  0.00  0.00    +0.125 A 
BRANCH  23  24
ATOM     24  O   UNL     1       0.210  -1.577   7.676  0.00  0.00    -0.506 OA
ATOM     25  H   UNL     1       0.649  -0.823   7.259  0.00  0.00    +0.292 HD
ENDBRANCH  23  24
ENDBRANCH  17  18
ENDBRANCH   3  16
TORSDOF 4
