REMARK  Name = ZINC59500583
REMARK  6 active torsions:
REMARK  status: ('A' for Active; 'I' for Inactive)
REMARK    1  A    between atoms: C_6  and  C_7
REMARK    2  A    between atoms: N_8  and  N_9
REMARK    3  A    between atoms: N_9  and  C_10
REMARK    4  A    between atoms: C_13  and  N_26
REMARK    5  A    between atoms: C_15  and  S_16
REMARK    6  A    between atoms: S_16  and  N_19
REMARK                            x       y       z     vdW  Elec       q    Type
REMARK                         _______ _______ _______ _____ _____    ______ ____
ROOT
ATOM      1  C   UNL     1      -2.435  -4.244  -0.083  0.00  0.00    +0.075 A 
ATOM      2  C   UNL     1      -1.240  -4.948  -0.177  0.00  0.00    +0.029 A 
ATOM      3  C   UNL     1      -1.240  -6.323  -0.055  0.00  0.00    +0.035 A 
ATOM      4  C   UNL     1      -2.426  -7.000   0.162  0.00  0.00    +0.128 A 
ATOM      5  C   UNL     1      -3.617  -6.303   0.256  0.00  0.00    +0.063 A 
ATOM      6  C   UNL     1      -3.624  -4.927   0.141  0.00  0.00    +0.130 A 
ENDROOT
BRANCH   6   7
ATOM      7  S   UNL     1      -5.141  -4.039   0.270  0.00  0.00    +0.063 S 
ATOM      8  O   UNL     1      -5.173  -3.131  -0.823  0.00  0.00    -0.153 OA
ATOM      9  O   UNL     1      -6.160  -5.005   0.487  0.00  0.00    -0.153 OA
BRANCH   7  10
ATOM     10  N   UNL     1      -5.057  -3.122   1.646  0.00  0.00    -0.177 NA
ATOM     11  C   UNL     1      -5.382  -3.741   2.912  0.00  0.00    +0.109 C 
ATOM     12  C   UNL     1      -6.899  -3.595   3.187  0.00  0.00    +0.017 C 
ATOM     13  C   UNL     1      -7.228  -2.197   3.505  0.00  0.00    +0.001 C 
ATOM     14  C   UNL     1      -6.953  -1.213   2.371  0.00  0.00    +0.001 C 
ATOM     15  C   UNL     1      -5.507  -0.785   2.419  0.00  0.00    +0.017 C 
ATOM     16  C   UNL     1      -4.647  -1.709   1.530  0.00  0.00    +0.109 C 
ENDBRANCH   7  10
ENDBRANCH   6   7
BRANCH   4  17
ATOM     17  N   UNL     1      -2.422  -8.475   0.292  0.00  0.00    +0.056 N 
ATOM     18  O   UNL     1      -1.381  -9.085   0.209  0.00  0.00    -0.126 OA
ATOM     19  O   UNL     1      -3.458  -9.068   0.481  0.00  0.00    -0.126 OA
ENDBRANCH   4  17
BRANCH   1  20
ATOM     20  N   UNL     1      -2.440  -2.854  -0.206  0.00  0.00    -0.236 N 
ATOM     21  H   UNL     1      -3.281  -2.371  -0.216  0.00  0.00    +0.174 HD
BRANCH  20  23
ATOM     22  C   UNL     1      -1.234  -0.863  -0.429  0.00  0.00    +0.138 C 
ATOM     23  N   UNL     1      -1.230  -2.156  -0.315  0.00  0.00    -0.190 NA
BRANCH  22  29
ATOM     24  C   UNL     1       0.039   1.263  -0.667  0.00  0.00    +0.010 A 
ATOM     25  C   UNL     1       1.234   1.943  -0.773  0.00  0.00    +0.016 A 
ATOM     26  C   UNL     1       2.433   1.250  -0.758  0.00  0.00    +0.018 A 
ATOM     27  C   UNL     1       2.441  -0.129  -0.636  0.00  0.00    +0.016 A 
ATOM     28  C   UNL     1       1.253  -0.822  -0.529  0.00  0.00    +0.010 A 
ATOM     29  C   UNL     1       0.040  -0.129  -0.544  0.00  0.00    -0.005 A 
ATOM     30 BR   UNL     1       4.066   2.192  -0.904  0.00  0.00    -0.050 Br
ENDBRANCH  22  29
ENDBRANCH  20  23
ENDBRANCH   1  20
TORSDOF 6
