REMARK  Name = ZINC00753535
REMARK  6 active torsions:
REMARK  status: ('A' for Active; 'I' for Inactive)
REMARK    1  A    between atoms: C_1  and  C_2
REMARK    2  A    between atoms: C_7  and  N_8
REMARK    3  A    between atoms: C_9  and  C_11
REMARK    4  A    between atoms: C_12  and  C_26
REMARK    5  A    between atoms: C_17  and  C_19
REMARK    6  A    between atoms: C_24  and  O_25
REMARK                            x       y       z     vdW  Elec       q    Type
REMARK                         _______ _______ _______ _____ _____    ______ ____
ROOT
ATOM      1  C   UNL     1      -2.648   1.502   0.779  0.00  0.00    +0.056 C 
ATOM      2  C   UNL     1      -3.218   0.358   1.209  0.00  0.00    +0.017 C 
ATOM      3  N   UNL     1      -2.875  -0.848   0.666  0.00  0.00    -0.300 N 
ATOM      4  C   UNL     1      -1.970  -0.992  -0.310  0.00  0.00    +0.135 C 
ATOM      5  S   UNL     1      -1.632  -2.563  -0.901  0.00  0.00    -0.019 S 
ATOM      6  N   UNL     1      -1.315   0.059  -0.842  0.00  0.00    -0.315 N 
ATOM      7  C   UNL     1      -1.615   1.406  -0.325  0.00  0.00    +0.143 C 
ATOM      8  C   UNL     1      -4.251   0.410   2.305  0.00  0.00    +0.061 C 
ATOM      9  H   UNL     1      -3.351  -1.770   1.030  0.00  0.00    +0.154 HD
ATOM     10  H   UNL     1      -0.573  -0.070  -1.643  0.00  0.00    +0.149 HD
ENDROOT
BRANCH   7  11
ATOM     11  C   UNL     1      -0.329   2.002   0.188  0.00  0.00    +0.019 A 
ATOM     12  C   UNL     1       0.677   1.179   0.657  0.00  0.00    +0.009 A 
ATOM     13  C   UNL     1       1.858   1.726   1.123  0.00  0.00    +0.001 A 
ATOM     14  C   UNL     1       2.034   3.098   1.125  0.00  0.00    +0.004 A 
ATOM     15  C   UNL     1       1.030   3.925   0.662  0.00  0.00    +0.046 A 
ATOM     16  C   UNL     1      -0.157   3.379   0.195  0.00  0.00    +0.122 A 
BRANCH  16  17
ATOM     17  O   UNL     1      -1.147   4.191  -0.262  0.00  0.00    -0.506 OA
ATOM     18  H   UNL     1      -1.009   5.282  -0.256  0.00  0.00    +0.292 HD
ENDBRANCH  16  17
ENDBRANCH   7  11
BRANCH   1  20
ATOM     19  N   UNL     1      -2.478   3.134   2.523  0.00  0.00    -0.281 N 
ATOM     20  C   UNL     1      -3.003   2.753   1.342  0.00  0.00    +0.248 C 
ATOM     21  O   UNL     1      -3.784   3.483   0.758  0.00  0.00    -0.270 OA
ATOM     22  H   UNL     1      -1.801   2.459   3.067  0.00  0.00    +0.155 HD
BRANCH  19  29
ATOM     23  C   UNL     1      -0.592   4.367   4.260  0.00  0.00    +0.045 C 
ATOM     24  C   UNL     1      -1.901   5.026   3.908  0.00  0.00    -0.029 A 
ATOM     25  C   UNL     1      -2.216   6.264   4.433  0.00  0.00    +0.005 A 
ATOM     26  C   UNL     1      -3.417   6.868   4.111  0.00  0.00    +0.000 A 
ATOM     27  C   UNL     1      -4.307   6.236   3.263  0.00  0.00    +0.002 A 
ATOM     28  C   UNL     1      -3.996   5.000   2.730  0.00  0.00    +0.023 A 
ATOM     29  C   UNL     1      -2.793   4.388   3.056  0.00  0.00    +0.037 A 
ENDBRANCH  19  29
ENDBRANCH   1  20
TORSDOF 4
