REMARK  Name = ZINC11912636
REMARK  10 active torsions:
REMARK  status: ('A' for Active; 'I' for Inactive)
REMARK    1  A    between atoms: C_1  and  C_2
REMARK    2  A    between atoms: C_5  and  C_32
REMARK    3  A    between atoms: C_6  and  C_8
REMARK    4  A    between atoms: C_8  and  N_58
REMARK    5  A    between atoms: C_10  and  S_25
REMARK    6  A    between atoms: C_13  and  C_15
REMARK    7  A    between atoms: N_17  and  C_18
REMARK    8  A    between atoms: C_18  and  C_19
REMARK    9  A    between atoms: C_20  and  C_24
REMARK   10  A    between atoms: S_25  and  C_26
REMARK                            x       y       z     vdW  Elec       q    Type
REMARK                         _______ _______ _______ _____ _____    ______ ____
ROOT
ATOM      1  C   UNL     1       2.008  -0.221  -1.167  0.00  0.00    -0.063 C 
ATOM      2  C   UNL     1       1.708  -0.630   0.296  0.00  0.00    +0.035 C 
ATOM      3  C   UNL     1       2.140  -2.120   0.300  0.00  0.00    +0.006 C 
ATOM      4  C   UNL     1       3.360  -2.131  -0.645  0.00  0.00    +0.021 C 
ATOM      5  N   UNL     1       3.256  -0.937  -1.500  0.00  0.00    +0.391 N 
ATOM      6  H   UNL     1       4.059  -0.322  -1.323  0.00  0.00    -0.080 HD
ENDROOT
BRANCH   4   7
ATOM      7  C   UNL     1       3.349  -3.384  -1.482  0.00  0.00    +0.200 C 
ATOM      8  O   UNL     1       2.490  -3.544  -2.324  0.00  0.00    -0.278 OA
ATOM      9  N   UNL     1       4.293  -4.328  -1.295  0.00  0.00    -0.311 N 
ATOM     10  H   UNL     1       4.979  -4.200  -0.622  0.00  0.00    +0.149 HD
BRANCH   9  11
ATOM     11  C   UNL     1       4.282  -5.546  -2.109  0.00  0.00    +0.165 C 
BRANCH  11  12
ATOM     12  C   UNL     1       5.434  -6.430  -1.704  0.00  0.00    +0.124 A 
ATOM     13  C   UNL     1       5.386  -7.423  -0.706  0.00  0.00    +0.106 A 
ATOM     14  N   UNL     1       6.548  -7.997  -0.613  0.00  0.00    -0.054 NA
ATOM     15  O   UNL     1       7.403  -7.383  -1.565  0.00  0.00    -0.242 OA
ATOM     16  N   UNL     1       6.623  -6.399  -2.226  0.00  0.00    -0.052 NA
ATOM     17  C   UNL     1       4.176  -7.766   0.125  0.00  0.00    +0.071 C 
ENDBRANCH  11  12
ENDBRANCH   9  11
ENDBRANCH   4   7
BRANCH   5  18
ATOM     18  C   UNL     1       3.253  -1.331  -2.933  0.00  0.00    -0.042 C 
BRANCH  18  24
ATOM     19  C   UNL     1       1.591   2.368  -5.866  0.00  0.00    +0.044 C 
ATOM     20  C   UNL     1       2.730   1.653  -5.186  0.00  0.00    -0.050 A 
ATOM     21  C   UNL     1       4.025   2.112  -5.341  0.00  0.00    +0.003 A 
ATOM     22  C   UNL     1       5.070   1.456  -4.717  0.00  0.00    +0.004 A 
ATOM     23  C   UNL     1       4.820   0.345  -3.934  0.00  0.00    -0.049 A 
ATOM     24  C   UNL     1       3.526  -0.117  -3.783  0.00  0.00    -0.061 A 
ATOM     25  C   UNL     1       2.480   0.539  -4.406  0.00  0.00    +0.005 A 
ATOM     26  C   UNL     1       5.958  -0.366  -3.249  0.00  0.00    +0.044 C 
ENDBRANCH  18  24
ENDBRANCH   5  18
BRANCH   2  27
ATOM     27  S   UNL     1      -0.060  -0.464   0.668  0.00  0.00    -0.104 S 
BRANCH  27  28
ATOM     28  C   UNL     1      -0.314   1.277   0.763  0.00  0.00    +0.097 A 
ATOM     29  C   UNL     1      -1.586   1.774   1.033  0.00  0.00    +0.035 A 
ATOM     30  C   UNL     1      -1.770   3.143   1.109  0.00  0.00    +0.004 A 
ATOM     31  C   UNL     1      -0.675   3.972   0.901  0.00  0.00    +0.020 A 
ATOM     32  C   UNL     1       0.557   3.410   0.632  0.00  0.00    +0.112 A 
ATOM     33  N   UNL     1       0.705   2.100   0.571  0.00  0.00    -0.249 NA
ENDBRANCH  27  28
ENDBRANCH   2  27
TORSDOF 7
