REMARK  Name = ZINC06405521
REMARK  10 active torsions:
REMARK  status: ('A' for Active; 'I' for Inactive)
REMARK    1  A    between atoms: C_1  and  C_2
REMARK    2  A    between atoms: C_5  and  C_39
REMARK    3  A    between atoms: C_9  and  C_14
REMARK    4  A    between atoms: C_14  and  C_16
REMARK    5  A    between atoms: C_14  and  N_70
REMARK    6  A    between atoms: N_20  and  C_21
REMARK    7  A    between atoms: C_26  and  C_27
REMARK    8  A    between atoms: C_26  and  N_70
REMARK    9  A    between atoms: C_33  and  C_34
REMARK   10  A    between atoms: C_33  and  N_70
REMARK                            x       y       z     vdW  Elec       q    Type
REMARK                         _______ _______ _______ _____ _____    ______ ____
ROOT
ATOM      1  C   UNL     1       1.946   3.636  -0.150  0.00  0.00    +0.040 C 
ENDROOT
BRANCH   1  10
ATOM      2  C   UNL     1      -2.972   5.289   0.294  0.00  0.00    +0.044 C 
ATOM      3  C   UNL     1      -3.000   3.783   0.345  0.00  0.00    -0.041 A 
ATOM      4  C   UNL     1      -4.188   3.123   0.486  0.00  0.00    +0.004 A 
ATOM      5  C   UNL     1      -4.224   1.736   0.534  0.00  0.00    +0.005 A 
ATOM      6  C   UNL     1      -3.063   0.999   0.440  0.00  0.00    -0.026 A 
ATOM      7  C   UNL     1      -1.842   1.649   0.291  0.00  0.00    +0.052 A 
ATOM      8  C   UNL     1      -1.809   3.055   0.248  0.00  0.00    +0.002 A 
ATOM      9  C   UNL     1      -0.519   3.730   0.096  0.00  0.00    +0.018 A 
ATOM     10  C   UNL     1       0.602   2.973   0.007  0.00  0.00    +0.011 A 
ATOM     11  C   UNL     1       0.515   1.565   0.061  0.00  0.00    +0.251 A 
ATOM     12  O   UNL     1       1.535   0.903  -0.021  0.00  0.00    -0.268 OA
ATOM     13  N   UNL     1      -0.666   0.936   0.201  0.00  0.00    -0.322 N 
ATOM     14  H   UNL     1      -0.690  -0.033   0.234  0.00  0.00    +0.169 HD
ATOM     15  C   UNL     1      -3.116  -0.507   0.494  0.00  0.00    +0.046 C 
ENDBRANCH   1  10
BRANCH   1  16
ATOM     16  C   UNL     1       2.529   3.277  -1.493  0.00  0.00    +0.143 A 
ATOM     17  N   UNL     1       3.332   2.275  -1.755  0.00  0.00    -0.115 NA
ATOM     18  N   UNL     1       3.607   2.304  -3.013  0.00  0.00    -0.023 NA
ATOM     19  N   UNL     1       3.002   3.300  -3.560  0.00  0.00    -0.044 NA
ATOM     20  N   UNL     1       2.322   3.921  -2.656  0.00  0.00    -0.227 N 
BRANCH  20  21
ATOM     21  C   UNL     1       1.485   5.106  -2.858  0.00  0.00    +0.111 C 
ATOM     22  C   UNL     1       0.300   4.765  -3.785  0.00  0.00    +0.027 C 
ATOM     23  C   UNL     1       0.115   6.039  -4.649  0.00  0.00    +0.002 C 
ATOM     24  C   UNL     1       1.573   6.499  -4.897  0.00  0.00    +0.002 C 
ATOM     25  C   UNL     1       2.294   6.208  -3.565  0.00  0.00    +0.027 C 
ENDBRANCH  20  21
ENDBRANCH   1  16
BRANCH   1  26
ATOM     26  N   UNL     1       2.852   3.147   0.910  0.00  0.00    +0.397 N 
ATOM     27  H   UNL     1       3.023   2.145   0.766  0.00  0.00    -0.079 HD
BRANCH  26  28
ATOM     28  C   UNL     1       4.141   3.868   0.846  0.00  0.00    -0.041 C 
BRANCH  28  29
ATOM     29  C   UNL     1       3.918   5.356   0.932  0.00  0.00    -0.064 A 
ATOM     30  C   UNL     1       3.796   6.104  -0.224  0.00  0.00    +0.002 A 
ATOM     31  C   UNL     1       3.587   7.469  -0.145  0.00  0.00    +0.000 A 
ATOM     32  C   UNL     1       3.510   8.086   1.089  0.00  0.00    +0.000 A 
ATOM     33  C   UNL     1       3.636   7.338   2.245  0.00  0.00    +0.000 A 
ATOM     34  C   UNL     1       3.840   5.973   2.166  0.00  0.00    +0.002 A 
ENDBRANCH  28  29
ENDBRANCH  26  28
BRANCH  26  35
ATOM     35  C   UNL     1       2.229   3.341   2.236  0.00  0.00    -0.001 C 
BRANCH  35  36
ATOM     36  C   UNL     1       2.972   2.506   3.247  0.00  0.00    +0.089 A 
ATOM     37  C   UNL     1       3.958   2.939   4.053  0.00  0.00    +0.042 A 
ATOM     38  C   UNL     1       4.366   1.833   4.833  0.00  0.00    +0.041 A 
ATOM     39  C   UNL     1       3.605   0.789   4.456  0.00  0.00    +0.195 A 
ATOM     40  O   UNL     1       2.759   1.205   3.500  0.00  0.00    -0.470 OA
ENDBRANCH  35  36
ENDBRANCH  26  35
ENDBRANCH   1  26
TORSDOF 8
