REMARK  Name = ZINC06806060
REMARK  7 active torsions:
REMARK  status: ('A' for Active; 'I' for Inactive)
REMARK    1  A    between atoms: C_1  and  C_2
REMARK    2  A    between atoms: C_7  and  C_32
REMARK    3  A    between atoms: C_9  and  C_10
REMARK    4  A    between atoms: C_9  and  N_64
REMARK    5  A    between atoms: C_10  and  C_11
REMARK    6  A    between atoms: C_11  and  N_12
REMARK    7  A    between atoms: C_13  and  C_15
REMARK                            x       y       z     vdW  Elec       q    Type
REMARK                         _______ _______ _______ _____ _____    ______ ____
ROOT
ATOM      1  N   UNL     1      -5.481  -0.070  -2.194  0.00  0.00    -0.315 N 
ATOM      2  C   UNL     1      -6.362   0.485  -3.049  0.00  0.00    +0.218 C 
ATOM      3  O   UNL     1      -6.039   1.446  -3.715  0.00  0.00    -0.275 OA
ATOM      4  H   UNL     1      -5.740  -0.839  -1.662  0.00  0.00    +0.149 HD
ENDROOT
BRANCH   2   5
ATOM      5  C   UNL     1      -7.750  -0.089  -3.179  0.00  0.00    +0.092 C 
ATOM      6  C   UNL     1      -8.545   0.723  -4.206  0.00  0.00    +0.016 C 
ATOM      7  C   UNL     1      -9.971   0.171  -4.287  0.00  0.00    +0.020 C 
ATOM      8  C   UNL     1     -10.615   0.230  -2.901  0.00  0.00    +0.107 C 
ATOM      9  N   UNL     1      -9.818  -0.563  -1.956  0.00  0.00    -0.307 N 
ATOM     10  C   UNL     1      -8.459  -0.023  -1.825  0.00  0.00    +0.119 C 
ATOM     11  C   UNL     1     -10.444  -0.639  -0.719  0.00  0.00    +0.186 A 
ATOM     12  N   UNL     1      -9.996  -0.314   0.485  0.00  0.00    -0.124 NA
ATOM     13  N   UNL     1     -10.706  -0.444   1.519  0.00  0.00    -0.121 NA
ATOM     14  C   UNL     1     -11.938  -0.924   1.468  0.00  0.00    +0.202 A 
ATOM     15  S   UNL     1     -12.086  -1.213  -0.293  0.00  0.00    -0.013 S 
ATOM     16  N   UNL     1     -12.859  -1.141   2.494  0.00  0.00    -0.301 N 
ATOM     17  C   UNL     1     -14.121  -1.640   2.338  0.00  0.00    +0.093 A 
ATOM     18  C   UNL     1     -14.700  -1.708   3.554  0.00  0.00    +0.019 A 
ATOM     19  C   UNL     1     -13.767  -1.225   4.495  0.00  0.00    +0.019 A 
ATOM     20  C   UNL     1     -12.650  -0.886   3.819  0.00  0.00    +0.093 A 
ENDBRANCH   2   5
BRANCH   1  21
ATOM     21  C   UNL     1      -4.132   0.487  -2.068  0.00  0.00    +0.102 C 
BRANCH  21  22
ATOM     22  C   UNL     1      -3.340  -0.322  -1.038  0.00  0.00    +0.000 C 
BRANCH  22  23
ATOM     23  C   UNL     1      -1.932   0.261  -0.906  0.00  0.00    -0.077 C 
BRANCH  23  31
ATOM     24  C   UNL     1      -2.063   0.993   1.807  0.00  0.00    -0.013 C 
ATOM     25  C   UNL     1      -1.834  -0.464   1.401  0.00  0.00    -0.071 C 
ATOM     26  C   UNL     1      -0.948  -1.151   2.443  0.00  0.00    -0.016 C 
ATOM     27  C   UNL     1      -0.705  -2.603   2.022  0.00  0.00    -0.003 C 
ATOM     28  C   UNL     1      -0.062  -2.623   0.632  0.00  0.00    -0.016 C 
ATOM     29  C   UNL     1      -0.974  -1.893  -0.357  0.00  0.00    -0.071 C 
ATOM     30  C   UNL     1      -0.326  -1.893  -1.743  0.00  0.00    -0.013 C 
ATOM     31  N   UNL     1      -1.148  -0.496   0.092  0.00  0.00    +0.383 N 
ATOM     32  H   UNL     1      -0.224  -0.060   0.190  0.00  0.00    -0.081 HD
ENDBRANCH  23  31
ENDBRANCH  22  23
ENDBRANCH  21  22
ENDBRANCH   1  21
TORSDOF 5
