REMARK  Name = ZINC63373287
REMARK  6 active torsions:
REMARK  status: ('A' for Active; 'I' for Inactive)
REMARK    1  A    between atoms: C_1  and  C_2
REMARK    2  A    between atoms: C_2  and  C_3
REMARK    3  A    between atoms: C_6  and  C_9
REMARK    4  A    between atoms: N_15  and  C_30
REMARK    5  A    between atoms: C_18  and  C_29
REMARK    6  A    between atoms: C_30  and  C_31
REMARK                            x       y       z     vdW  Elec       q    Type
REMARK                         _______ _______ _______ _____ _____    ______ ____
ROOT
ATOM      1  C   UNL     1      -4.987  -2.441  -0.129  0.00  0.00    +0.065 C 
ATOM      2  C   UNL     1      -5.869  -1.233  -0.506  0.00  0.00    +0.123 C 
ATOM      3  N   UNL     1      -6.768  -1.651  -1.585  0.00  0.00    -0.268 N 
ATOM      4  C   UNL     1      -8.107  -1.614  -1.607  0.00  0.00    +0.312 C 
ATOM      5  O   UNL     1      -8.784  -1.066  -0.758  0.00  0.00    -0.252 OA
ATOM      6  N   UNL     1      -8.615  -2.250  -2.671  0.00  0.00    -0.220 N 
ATOM      7  C   UNL     1      -7.642  -2.697  -3.494  0.00  0.00    +0.249 C 
ATOM      8  O   UNL     1      -7.782  -3.334  -4.516  0.00  0.00    -0.273 OA
ATOM      9  C   UNL     1      -6.342  -2.236  -2.874  0.00  0.00    +0.136 C 
ATOM     10  C   UNL     1      -5.436  -3.427  -2.569  0.00  0.00    +0.139 C 
ATOM     11  C   UNL     1      -5.368  -3.570  -1.053  0.00  0.00    -0.027 C 
ATOM     12  C   UNL     1      -5.716  -4.825  -0.782  0.00  0.00    -0.000 A 
ATOM     13  C   UNL     1      -5.755  -5.577   0.482  0.00  0.00    +0.010 A 
ATOM     14  C   UNL     1      -6.188  -6.863   0.401  0.00  0.00    +0.001 A 
ATOM     15  C   UNL     1      -6.581  -7.468  -0.797  0.00  0.00    +0.002 A 
ATOM     16  C   UNL     1      -6.569  -6.854  -2.007  0.00  0.00    +0.026 A 
ATOM     17  C   UNL     1      -6.125  -5.500  -2.051  0.00  0.00    +0.043 A 
ATOM     18  N   UNL     1      -5.987  -4.684  -3.077  0.00  0.00    -0.375 N 
ATOM     19  C   UNL     1      -5.644  -1.197  -3.755  0.00  0.00    +0.044 C 
ATOM     20  H   UNL     1      -6.209  -4.874  -4.002  0.00  0.00    +0.160 HD
ENDROOT
BRANCH   1  24
ATOM     21  C   UNL     1      -0.864  -1.452  -0.650  0.00  0.00    -0.048 A 
ATOM     22  C   UNL     1      -1.721  -1.437  -1.734  0.00  0.00    +0.004 A 
ATOM     23  C   UNL     1      -3.055  -1.757  -1.566  0.00  0.00    +0.004 A 
ATOM     24  C   UNL     1      -3.533  -2.093  -0.313  0.00  0.00    -0.039 A 
ATOM     25  C   UNL     1      -2.675  -2.109   0.772  0.00  0.00    +0.004 A 
ATOM     26  C   UNL     1      -1.340  -1.793   0.602  0.00  0.00    +0.004 A 
BRANCH  21  28
ATOM     27  C   UNL     1       1.381  -2.372  -1.160  0.00  0.00    +0.009 C 
ATOM     28  C   UNL     1       0.590  -1.103  -0.834  0.00  0.00    +0.032 C 
ENDBRANCH  21  28
ENDBRANCH   1  24
BRANCH   6  29
ATOM     29  C   UNL     1     -10.047  -2.438  -2.913  0.00  0.00    +0.153 C 
BRANCH  29  30
ATOM     30  C   UNL     1     -10.579  -1.274  -3.710  0.00  0.00    -0.030 A 
ATOM     31  C   UNL     1     -11.065  -0.155  -3.061  0.00  0.00    +0.005 A 
ATOM     32  C   UNL     1     -11.552   0.911  -3.792  0.00  0.00    +0.000 A 
ATOM     33  C   UNL     1     -11.553   0.859  -5.173  0.00  0.00    +0.000 A 
ATOM     34  C   UNL     1     -11.066  -0.259  -5.823  0.00  0.00    +0.000 A 
ATOM     35  C   UNL     1     -10.575  -1.324  -5.092  0.00  0.00    +0.005 A 
ENDBRANCH  29  30
ENDBRANCH   6  29
TORSDOF 4
