REMARK  Name = ZINC16900793
REMARK  10 active torsions:
REMARK  status: ('A' for Active; 'I' for Inactive)
REMARK    1  A    between atoms: C_1  and  C_2
REMARK    2  A    between atoms: C_4  and  C_33
REMARK    3  A    between atoms: C_6  and  N_8
REMARK    4  A    between atoms: N_8  and  S_9
REMARK    5  A    between atoms: S_9  and  C_12
REMARK    6  A    between atoms: C_15  and  N_18
REMARK    7  A    between atoms: C_22  and  S_26
REMARK    8  A    between atoms: S_26  and  C_27
REMARK    9  A    between atoms: C_27  and  C_29
REMARK   10  A    between atoms: C_27  and  C_30
REMARK                            x       y       z     vdW  Elec       q    Type
REMARK                         _______ _______ _______ _____ _____    ______ ____
ROOT
ATOM      1  C   UNL     1      -7.785   3.971   1.062  0.00  0.00    +0.111 A 
ATOM      2  C   UNL     1      -7.782   3.918  -0.319  0.00  0.00    +0.031 A 
ATOM      3  C   UNL     1      -6.744   3.296  -0.985  0.00  0.00    +0.026 A 
ATOM      4  C   UNL     1      -5.704   2.723  -0.266  0.00  0.00    +0.044 A 
ATOM      5  C   UNL     1      -5.713   2.773   1.121  0.00  0.00    +0.026 A 
ATOM      6  C   UNL     1      -6.750   3.402   1.782  0.00  0.00    +0.031 A 
ENDROOT
BRANCH   4   7
ATOM      7  N   UNL     1      -4.649   2.091  -0.939  0.00  0.00    -0.209 N 
ATOM      8  C   UNL     1      -4.808   0.958  -1.635  0.00  0.00    +0.228 C 
ATOM      9  O   UNL     1      -5.852   0.356  -1.765  0.00  0.00    -0.275 OA
ATOM     10  C   UNL     1      -3.476   0.546  -2.231  0.00  0.00    +0.120 C 
ATOM     11  C   UNL     1      -2.514   1.653  -1.755  0.00  0.00    +0.143 C 
ATOM     12  C   UNL     1      -3.399   2.570  -0.940  0.00  0.00    +0.240 C 
ATOM     13  O   UNL     1      -3.034   3.580  -0.376  0.00  0.00    -0.274 OA
BRANCH  11  14
ATOM     14  S   UNL     1      -1.810   2.540  -3.173  0.00  0.00    -0.133 S 
BRANCH  14  15
ATOM     15  C   UNL     1      -0.666   3.730  -2.421  0.00  0.00    +0.157 C 
ATOM     16  C   UNL     1      -0.123   4.668  -3.502  0.00  0.00    +0.031 C 
BRANCH  15  17
ATOM     17  C   UNL     1       0.478   2.990  -1.777  0.00  0.00    +0.368 C 
ATOM     18  O   UNL     1       0.784   1.890  -2.171  0.00  0.00    -0.245 OA
ATOM     19  O   UNL     1       1.157   3.554  -0.765  0.00  0.00    -0.245 OA
ENDBRANCH  15  17
ENDBRANCH  14  15
ENDBRANCH  11  14
ENDBRANCH   4   7
BRANCH   1  20
ATOM     20  S   UNL     1      -9.111   4.765   1.909  0.00  0.00    +0.094 S 
ATOM     21  O   UNL     1      -8.606   5.157   3.178  0.00  0.00    -0.148 OA
ATOM     22  O   UNL     1      -9.678   5.693   0.994  0.00  0.00    -0.148 OA
BRANCH  20  23
ATOM     23  N   UNL     1     -10.268   3.615   2.194  0.00  0.00    -0.058 NA
BRANCH  23  29
ATOM     24  C   UNL     1      -7.009   1.008   4.549  0.00  0.00    +0.066 C 
ATOM     25  C   UNL     1      -8.442   1.291   4.176  0.00  0.00    +0.044 A 
ATOM     26  C   UNL     1      -9.465   0.498   4.671  0.00  0.00    +0.046 A 
ATOM     27  C   UNL     1     -10.768   0.793   4.303  0.00  0.00    +0.044 A 
ATOM     28  N   UNL     1     -10.996   1.815   3.495  0.00  0.00    -0.217 NA
ATOM     29  C   UNL     1      -9.994   2.553   3.038  0.00  0.00    +0.258 A 
ATOM     30  N   UNL     1      -8.737   2.295   3.367  0.00  0.00    -0.217 NA
ATOM     31  C   UNL     1     -11.913  -0.041   4.818  0.00  0.00    +0.066 C 
ENDBRANCH  23  29
ENDBRANCH  20  23
ENDBRANCH   1  20
TORSDOF 7
