REMARK  Name = ZINC03887628
REMARK  5 active torsions:
REMARK  status: ('A' for Active; 'I' for Inactive)
REMARK    1  A    between atoms: C_1  and  C_2
REMARK    2  A    between atoms: C_2  and  C_3
REMARK    3  A    between atoms: C_2  and  C_4
REMARK    4  A    between atoms: N_6  and  C_7
REMARK    5  A    between atoms: C_8  and  C_15
REMARK                            x       y       z     vdW  Elec       q    Type
REMARK                         _______ _______ _______ _____ _____    ______ ____
ROOT
ATOM      1  C   UNL     1      -0.890   1.693   3.606  0.00  0.00    +0.086 A 
ATOM      2  C   UNL     1      -0.560   1.461   4.931  0.00  0.00    +0.095 A 
ATOM      3  C   UNL     1      -1.417   2.057   5.957  0.00  0.00    -0.021 A 
ATOM      4  C   UNL     1      -2.456   2.771   5.488  0.00  0.00    -0.004 A 
ATOM      5  S   UNL     1      -2.314   2.670   3.720  0.00  0.00    -0.077 S 
ATOM      6  C   UNL     1      -3.290   3.349   6.599  0.00  0.00    +0.043 C 
ATOM      7  C   UNL     1      -2.387   3.261   7.849  0.00  0.00    +0.010 C 
ATOM      8  C   UNL     1      -1.459   2.086   7.485  0.00  0.00    +0.037 C 
ENDROOT
BRANCH   1  11
ATOM      9  C   UNL     1      -0.718   1.572   1.248  0.00  0.00    +0.220 C 
ATOM     10  O   UNL     1      -1.714   2.256   1.150  0.00  0.00    -0.275 OA
ATOM     11  N   UNL     1      -0.242   1.246   2.466  0.00  0.00    -0.279 N 
ATOM     12  H   UNL     1       0.555   0.699   2.544  0.00  0.00    +0.155 HD
BRANCH   9  14
ATOM     13  C   UNL     1       1.423   1.615  -0.003  0.00  0.00    +0.017 C 
ATOM     14  C   UNL     1      -0.013   1.086   0.008  0.00  0.00    +0.069 C 
ATOM     15  C   UNL     1      -0.753   1.593  -1.232  0.00  0.00    +0.017 C 
ENDBRANCH   9  14
ENDBRANCH   1  11
BRANCH   2  16
ATOM     16  C   UNL     1       0.606   0.652   5.293  0.00  0.00    +0.389 C 
ATOM     17  O   UNL     1       1.690   1.182   5.446  0.00  0.00    -0.240 OA
ATOM     18  O   UNL     1       0.477  -0.681   5.457  0.00  0.00    -0.240 OA
ENDBRANCH   2  16
TORSDOF 3
