REMARK  Name = ZINC40844832
REMARK  12 active torsions:
REMARK  status: ('A' for Active; 'I' for Inactive)
REMARK    1  A    between atoms: C_1  and  C_2
REMARK    2  A    between atoms: C_2  and  O_3
REMARK    3  A    between atoms: O_3  and  C_4
REMARK    4  A    between atoms: C_4  and  C_6
REMARK    5  A    between atoms: C_7  and  C_38
REMARK    6  A    between atoms: C_8  and  C_35
REMARK    7  A    between atoms: C_9  and  N_11
REMARK    8  A    between atoms: C_12  and  C_14
REMARK    9  A    between atoms: C_14  and  C_16
REMARK   10  A    between atoms: C_14  and  C_22
REMARK   11  A    between atoms: C_22  and  C_23
REMARK   12  A    between atoms: C_22  and  C_29
REMARK                            x       y       z     vdW  Elec       q    Type
REMARK                         _______ _______ _______ _____ _____    ______ ____
ROOT
ATOM      1  N   UNL     1      -7.000  -2.797  -1.189  0.00  0.00    -0.279 N 
ATOM      2  C   UNL     1      -7.603  -1.720  -0.648  0.00  0.00    +0.226 C 
ATOM      3  O   UNL     1      -6.935  -0.809  -0.207  0.00  0.00    -0.275 OA
ATOM      4  H   UNL     1      -7.535  -3.526  -1.542  0.00  0.00    +0.155 HD
ENDROOT
BRANCH   1   8
ATOM      5  C   UNL     1      -2.999  -2.565  -1.135  0.00  0.00    +0.102 A 
ATOM      6  C   UNL     1      -3.452  -3.727  -1.703  0.00  0.00    -0.015 A 
ATOM      7  C   UNL     1      -4.828  -3.887  -1.761  0.00  0.00    +0.069 A 
ATOM      8  C   UNL     1      -5.622  -2.862  -1.243  0.00  0.00    +0.085 A 
ATOM      9  S   UNL     1      -4.509  -1.732  -0.691  0.00  0.00    -0.066 S 
ATOM     10  C   UNL     1      -2.506  -4.773  -2.235  0.00  0.00    +0.046 C 
BRANCH   7  11
ATOM     11  C   UNL     1      -5.430  -5.091  -2.349  0.00  0.00    +0.244 C 
ATOM     12  O   UNL     1      -5.665  -6.058  -1.648  0.00  0.00    -0.270 OA
ATOM     13  N   UNL     1      -5.722  -5.126  -3.664  0.00  0.00    -0.325 N 
ATOM     14  H   UNL     1      -5.534  -4.356  -4.223  0.00  0.00    +0.145 HD
ATOM     15  H   UNL     1      -6.119  -5.922  -4.052  0.00  0.00    +0.145 HD
ENDBRANCH   7  11
BRANCH   5  16
ATOM     16  C   UNL     1      -1.619  -2.123  -0.937  0.00  0.00    +0.346 C 
ATOM     17  O   UNL     1      -0.696  -2.825  -1.305  0.00  0.00    -0.244 OA
BRANCH  16  18
ATOM     18  O   UNL     1      -1.369  -0.936  -0.347  0.00  0.00    -0.461 OA
BRANCH  18  20
ATOM     19  C   UNL     1       0.085   0.800   0.497  0.00  0.00    +0.048 C 
ATOM     20  C   UNL     1       0.002  -0.567  -0.186  0.00  0.00    +0.229 C 
ENDBRANCH  18  20
ENDBRANCH  16  18
ENDBRANCH   5  16
ENDBRANCH   1   8
BRANCH   2  21
ATOM     21  C   UNL     1      -9.107  -1.648  -0.590  0.00  0.00    +0.117 C 
BRANCH  21  22
ATOM     22  C   UNL     1      -9.668  -1.715  -1.987  0.00  0.00    -0.035 A 
ATOM     23  C   UNL     1      -9.319  -0.754  -2.918  0.00  0.00    +0.004 A 
ATOM     24  C   UNL     1      -9.833  -0.815  -4.200  0.00  0.00    +0.000 A 
ATOM     25  C   UNL     1     -10.696  -1.837  -4.551  0.00  0.00    +0.000 A 
ATOM     26  C   UNL     1     -11.044  -2.798  -3.620  0.00  0.00    +0.000 A 
ATOM     27  C   UNL     1     -10.527  -2.739  -2.339  0.00  0.00    +0.004 A 
ENDBRANCH  21  22
BRANCH  21  28
ATOM     28  C   UNL     1      -9.530  -0.333   0.067  0.00  0.00    +0.065 C 
BRANCH  28  29
ATOM     29  C   UNL     1     -11.035  -0.261   0.126  0.00  0.00    -0.039 A 
ATOM     30  C   UNL     1     -11.694   0.843  -0.381  0.00  0.00    +0.004 A 
ATOM     31  C   UNL     1     -13.074   0.909  -0.328  0.00  0.00    +0.000 A 
ATOM     32  C   UNL     1     -13.794  -0.130   0.232  0.00  0.00    +0.000 A 
ATOM     33  C   UNL     1     -13.135  -1.235   0.737  0.00  0.00    +0.000 A 
ATOM     34  C   UNL     1     -11.755  -1.302   0.680  0.00  0.00    +0.004 A 
ENDBRANCH  28  29
BRANCH  28  35
ATOM     35  C   UNL     1      -8.970  -0.266   1.465  0.00  0.00    -0.039 A 
ATOM     36  C   UNL     1      -9.169  -1.318   2.340  0.00  0.00    +0.004 A 
ATOM     37  C   UNL     1      -8.655  -1.257   3.622  0.00  0.00    +0.000 A 
ATOM     38  C   UNL     1      -7.941  -0.145   4.028  0.00  0.00    +0.000 A 
ATOM     39  C   UNL     1      -7.742   0.906   3.153  0.00  0.00    +0.000 A 
ATOM     40  C   UNL     1      -8.252   0.844   1.870  0.00  0.00    +0.004 A 
ENDBRANCH  28  35
ENDBRANCH  21  28
ENDBRANCH   2  21
TORSDOF 10
