REMARK  Name = ZINC02260361
REMARK  8 active torsions:
REMARK  status: ('A' for Active; 'I' for Inactive)
REMARK    1  A    between atoms: C_1  and  C_2
REMARK    2  A    between atoms: C_2  and  C_3
REMARK    3  A    between atoms: C_6  and  N_9
REMARK    4  A    between atoms: C_13  and  C_14
REMARK    5  A    between atoms: N_18  and  C_19
REMARK    6  A    between atoms: C_19  and  C_20
REMARK    7  A    between atoms: C_20  and  O_21
REMARK    8  A    between atoms: O_21  and  C_22
REMARK                            x       y       z     vdW  Elec       q    Type
REMARK                         _______ _______ _______ _____ _____    ______ ____
ROOT
ATOM      1  N   UNL     1       3.038  -2.456  -4.296  0.00  0.00    -0.188 N 
ATOM      2  C   UNL     1       4.360  -2.269  -4.496  0.00  0.00    +0.264 C 
ATOM      3  O   UNL     1       5.053  -1.728  -3.653  0.00  0.00    -0.269 OA
ATOM      4  C   UNL     1       4.937  -2.740  -5.765  0.00  0.00    +0.103 C 
ATOM      5  C   UNL     1       6.289  -2.587  -6.050  0.00  0.00    +0.044 C 
ATOM      6  C   UNL     1       4.015  -3.384  -6.721  0.00  0.00    +0.276 C 
ATOM      7  N   UNL     1       2.720  -3.499  -6.381  0.00  0.00    -0.123 NA
ATOM      8  C   UNL     1       2.263  -3.066  -5.233  0.00  0.00    +0.340 C 
ATOM      9  O   UNL     1       0.952  -3.227  -4.968  0.00  0.00    -0.250 OA
ATOM     10  O   UNL     1       4.418  -3.799  -7.795  0.00  0.00    -0.268 OA
ENDROOT
BRANCH   1  14
ATOM     11  C   UNL     1       1.303  -1.159  -0.735  0.00  0.00    -0.048 A 
ATOM     12  C   UNL     1       1.794  -2.448  -0.834  0.00  0.00    +0.005 A 
ATOM     13  C   UNL     1       2.369  -2.881  -2.012  0.00  0.00    +0.024 A 
ATOM     14  C   UNL     1       2.454  -2.020  -3.099  0.00  0.00    +0.046 A 
ATOM     15  C   UNL     1       1.961  -0.727  -2.996  0.00  0.00    +0.024 A 
ATOM     16  C   UNL     1       1.381  -0.301  -1.817  0.00  0.00    +0.005 A 
BRANCH  11  18
ATOM     17  C   UNL     1      -0.823  -0.993   0.530  0.00  0.00    +0.009 C 
ATOM     18  C   UNL     1       0.676  -0.690   0.553  0.00  0.00    +0.032 C 
ENDBRANCH  11  18
ENDBRANCH   1  14
BRANCH   5  19
ATOM     19  C   UNL     1       6.783  -2.930  -7.319  0.00  0.00    +0.043 A 
ATOM     20  C   UNL     1       7.766  -3.874  -7.594  0.00  0.00    +0.027 A 
ATOM     21  C   UNL     1       7.940  -3.887  -8.976  0.00  0.00    +0.020 A 
ATOM     22  C   UNL     1       7.087  -2.978  -9.515  0.00  0.00    +0.086 A 
ATOM     23  N   UNL     1       6.377  -2.397  -8.526  0.00  0.00    -0.344 N 
BRANCH  23  24
ATOM     24  C   UNL     1       5.349  -1.367  -8.702  0.00  0.00    +0.162 C 
BRANCH  24  25
ATOM     25  C   UNL     1       5.936   0.004  -8.360  0.00  0.00    +0.250 C 
BRANCH  25  26
ATOM     26  O   UNL     1       4.929   1.005  -8.515  0.00  0.00    -0.489 OA
BRANCH  26  27
ATOM     27  C   UNL     1       5.289   2.289  -8.248  0.00  0.00    +0.139 A 
ATOM     28  C   UNL     1       6.586   2.578  -7.851  0.00  0.00    +0.048 A 
ATOM     29  C   UNL     1       6.949   3.883  -7.580  0.00  0.00    +0.023 A 
ATOM     30  C   UNL     1       6.021   4.902  -7.705  0.00  0.00    +0.043 A 
ATOM     31  C   UNL     1       4.727   4.616  -8.101  0.00  0.00    +0.043 A 
ATOM     32  C   UNL     1       4.360   3.312  -8.379  0.00  0.00    +0.084 A 
ATOM     33 CL   UNL     1       2.738   2.954  -8.883  0.00  0.00    -0.080 Cl
ATOM     34 CL   UNL     1       6.481   6.540  -7.363  0.00  0.00    -0.083 Cl
ENDBRANCH  26  27
ENDBRANCH  25  26
ENDBRANCH  24  25
ENDBRANCH  23  24
ENDBRANCH   5  19
TORSDOF 7
