REMARK  Name = ZINC43553673
REMARK  10 active torsions:
REMARK  status: ('A' for Active; 'I' for Inactive)
REMARK    1  A    between atoms: C_1  and  C_2
REMARK    2  A    between atoms: C_5  and  O_34
REMARK    3  A    between atoms: C_7  and  C_31
REMARK    4  A    between atoms: C_7  and  C_32
REMARK    5  A    between atoms: N_16  and  C_17
REMARK    6  A    between atoms: C_17  and  C_18
REMARK    7  A    between atoms: C_20  and  C_22
REMARK    8  A    between atoms: C_22  and  C_23
REMARK    9  A    between atoms: N_25  and  C_26
REMARK   10  A    between atoms: C_32  and  O_33
REMARK                            x       y       z     vdW  Elec       q    Type
REMARK                         _______ _______ _______ _____ _____    ______ ____
ROOT
ATOM      1  C   UNL     1       0.115   1.506  -0.019  0.00  0.00    +0.012 C 
ATOM      2  C   UNL     1       0.116  -0.030  -0.009  0.00  0.00    -0.019 C 
ATOM      3  C   UNL     1      -1.326  -0.518   0.066  0.00  0.00    +0.010 C 
ATOM      4  C   UNL     1      -1.978   0.039   1.333  0.00  0.00    +0.032 C 
ATOM      5  C   UNL     1      -1.232  -0.382   2.586  0.00  0.00    +0.123 C 
ATOM      6  C   UNL     1       0.274  -0.193   2.529  0.00  0.00    +0.021 C 
ATOM      7  C   UNL     1       0.890  -0.577   1.185  0.00  0.00    +0.011 C 
ATOM      8  C   UNL     1       0.936  -2.117   1.138  0.00  0.00    +0.049 C 
ATOM      9  C   UNL     1       1.032  -2.629  -0.254  0.00  0.00    +0.015 A 
ATOM     10  C   UNL     1       0.944  -1.924  -1.408  0.00  0.00    +0.058 A 
ATOM     11  N   UNL     1       1.037  -2.643  -2.521  0.00  0.00    -0.229 NA
ATOM     12  C   UNL     1       1.226  -3.945  -2.489  0.00  0.00    +0.159 A 
ATOM     13  S   UNL     1       1.287  -4.283  -0.839  0.00  0.00    -0.057 S 
ATOM     14  N   UNL     1       1.347  -4.824  -3.554  0.00  0.00    -0.320 N 
ATOM     15  C   UNL     1       0.783  -0.420  -1.332  0.00  0.00    +0.054 C 
ATOM     16  C   UNL     1       0.645   1.237   2.945  0.00  0.00    +0.016 C 
ATOM     17  H   UNL     1       1.293  -4.493  -4.464  0.00  0.00    +0.148 HD
ENDROOT
BRANCH   5  18
ATOM     18  O   UNL     1      -1.547  -1.744   2.901  0.00  0.00    -0.391 OA
ATOM     19  H   UNL     1      -2.486  -1.903   3.064  0.00  0.00    +0.210 HD
ENDBRANCH   5  18
BRANCH  14  20
ATOM     20  C   UNL     1       1.555  -6.252  -3.304  0.00  0.00    +0.130 C 
BRANCH  20  21
ATOM     21  C   UNL     1       1.653  -6.983  -4.619  0.00  0.00    -0.016 C 
ATOM     22  C   UNL     1       2.699  -7.729  -4.877  0.00  0.00    +0.005 C 
ENDBRANCH  20  21
ENDBRANCH  14  20
BRANCH  15  23
ATOM     23  C   UNL     1      -0.028   0.093  -2.519  0.00  0.00    +0.106 C 
BRANCH  23  24
ATOM     24  C   UNL     1       0.715  -0.198  -3.797  0.00  0.00    +0.214 C 
ATOM     25  O   UNL     1       1.788  -0.761  -3.761  0.00  0.00    -0.276 OA
ATOM     26  N   UNL     1       0.185   0.168  -4.982  0.00  0.00    -0.312 N 
ATOM     27  H   UNL     1      -0.673   0.618  -5.011  0.00  0.00    +0.149 HD
BRANCH  26  28
ATOM     28  C   UNL     1       0.907  -0.115  -6.225  0.00  0.00    +0.073 C 
ATOM     29  C   UNL     1       1.877   1.040  -6.548  0.00  0.00    +0.022 C 
ATOM     30  C   UNL     1       1.817   1.166  -8.091  0.00  0.00    +0.002 C 
ATOM     31  C   UNL     1       0.321   0.906  -8.397  0.00  0.00    +0.002 C 
ATOM     32  C   UNL     1      -0.082  -0.201  -7.401  0.00  0.00    +0.022 C 
ENDBRANCH  26  28
ENDBRANCH  23  24
ENDBRANCH  15  23
BRANCH   6  33
ATOM     33  C   UNL     1       0.887  -1.106   3.624  0.00  0.00    +0.165 C 
BRANCH  33  34
ATOM     34  O   UNL     1       0.377  -0.725   4.903  0.00  0.00    -0.394 OA
ATOM     35  H   UNL     1       0.718  -1.255   5.636  0.00  0.00    +0.209 HD
ENDBRANCH  33  34
ENDBRANCH   6  33
TORSDOF 8
