REMARK  Name = ZINC35747261
REMARK  15 active torsions:
REMARK  status: ('A' for Active; 'I' for Inactive)
REMARK    1  A    between atoms: C_1  and  C_2
REMARK    2  A    between atoms: C_7  and  C_8
REMARK    3  A    between atoms: C_17  and  C_19
REMARK    4  A    between atoms: C_19  and  N_20
REMARK    5  A    between atoms: N_20  and  C_21
REMARK    6  A    between atoms: N_20  and  C_26
REMARK    7  A    between atoms: C_21  and  C_22
REMARK    8  A    between atoms: C_22  and  C_23
REMARK    9  A    between atoms: C_23  and  C_24
REMARK   10  A    between atoms: C_23  and  C_25
REMARK   11  A    between atoms: C_26  and  C_27
REMARK   12  A    between atoms: C_27  and  C_29
REMARK   13  A    between atoms: C_27  and  O_38
REMARK   14  A    between atoms: C_29  and  O_30
REMARK   15  A    between atoms: O_30  and  C_31
REMARK                            x       y       z     vdW  Elec       q    Type
REMARK                         _______ _______ _______ _____ _____    ______ ____
ROOT
ATOM      1  N   UNL     1      -3.815   3.833   6.095  0.00  0.00    +0.386 N 
ATOM      2  H   UNL     1      -3.595   3.174   6.826  0.00  0.00    -0.081 HD
ENDROOT
BRANCH   1   3
ATOM      3  C   UNL     1      -4.299   3.110   4.912  0.00  0.00    -0.003 C 
BRANCH   3  13
ATOM      4  C   UNL     1      -0.320  -0.729   3.527  0.00  0.00    +0.004 A 
ATOM      5  C   UNL     1       0.749  -0.692   4.359  0.00  0.00    +0.056 A 
ATOM      6  S   UNL     1       0.328   0.599   5.513  0.00  0.00    -0.076 S 
ATOM      7  C   UNL     1      -1.257   1.055   4.859  0.00  0.00    +0.116 A 
ATOM      8  C   UNL     1      -1.421   0.199   3.757  0.00  0.00    +0.080 A 
ATOM      9  C   UNL     1      -2.641   0.357   3.025  0.00  0.00    +0.260 A 
ATOM     10  O   UNL     1      -2.876  -0.343   2.055  0.00  0.00    -0.267 OA
ATOM     11  N   UNL     1      -3.525   1.290   3.424  0.00  0.00    -0.312 N 
ATOM     12  H   UNL     1      -4.353   1.402   2.932  0.00  0.00    +0.170 HD
ATOM     13  C   UNL     1      -3.280   2.078   4.502  0.00  0.00    +0.094 A 
ATOM     14  N   UNL     1      -2.180   1.952   5.195  0.00  0.00    -0.229 NA
BRANCH   4  21
ATOM     15  C   UNL     1      -0.307   0.252   0.805  0.00  0.00    +0.044 C 
ATOM     16  C   UNL     1      -0.360  -1.228   1.085  0.00  0.00    -0.043 A 
ATOM     17  C   UNL     1      -0.398  -2.129   0.039  0.00  0.00    +0.004 A 
ATOM     18  C   UNL     1      -0.447  -3.487   0.294  0.00  0.00    +0.000 A 
ATOM     19  C   UNL     1      -0.459  -3.952   1.598  0.00  0.00    +0.001 A 
ATOM     20  C   UNL     1      -0.422  -3.061   2.651  0.00  0.00    +0.009 A 
ATOM     21  C   UNL     1      -0.366  -1.691   2.400  0.00  0.00    -0.014 A 
ENDBRANCH   4  21
ENDBRANCH   3  13
ENDBRANCH   1   3
BRANCH   1  22
ATOM     22  C   UNL     1      -2.610   4.596   5.744  0.00  0.00    -0.078 C 
BRANCH  22  23
ATOM     23  C   UNL     1      -2.948   5.607   4.646  0.00  0.00    -0.016 C 
BRANCH  23  24
ATOM     24  C   UNL     1      -1.697   6.415   4.294  0.00  0.00    -0.019 C 
ATOM     25  C   UNL     1      -0.646   5.487   3.681  0.00  0.00    +0.007 C 
ATOM     26  C   UNL     1      -2.062   7.508   3.288  0.00  0.00    +0.007 C 
ENDBRANCH  23  24
ENDBRANCH  22  23
ENDBRANCH   1  22
BRANCH   1  27
ATOM     27  C   UNL     1      -4.858   4.755   6.566  0.00  0.00    -0.043 C 
BRANCH  27  28
ATOM     28  C   UNL     1      -4.404   5.415   7.870  0.00  0.00    +0.135 C 
BRANCH  28  29
ATOM     29  O   UNL     1      -4.196   4.410   8.864  0.00  0.00    -0.390 OA
ATOM     30  H   UNL     1      -4.984   3.888   9.068  0.00  0.00    +0.210 HD
ENDBRANCH  28  29
BRANCH  28  31
ATOM     31  C   UNL     1      -5.481   6.391   8.349  0.00  0.00    +0.258 C 
BRANCH  31  32
ATOM     32  O   UNL     1      -5.009   7.092   9.501  0.00  0.00    -0.489 OA
BRANCH  32  33
ATOM     33  C   UNL     1      -5.851   8.004  10.056  0.00  0.00    +0.121 A 
ATOM     34  C   UNL     1      -7.107   8.215   9.505  0.00  0.00    +0.047 A 
ATOM     35  C   UNL     1      -7.960   9.143  10.070  0.00  0.00    +0.023 A 
ATOM     36  C   UNL     1      -7.564   9.861  11.184  0.00  0.00    +0.041 A 
ATOM     37  C   UNL     1      -6.311   9.652  11.734  0.00  0.00    +0.023 A 
ATOM     38  C   UNL     1      -5.457   8.721  11.176  0.00  0.00    +0.047 A 
ATOM     39 CL   UNL     1      -8.638  11.026  11.892  0.00  0.00    -0.084 Cl
ENDBRANCH  32  33
ENDBRANCH  31  32
ENDBRANCH  28  31
ENDBRANCH  27  28
ENDBRANCH   1  27
TORSDOF 12
