REMARK  Name = ZINC57838197
REMARK  3 active torsions:
REMARK  status: ('A' for Active; 'I' for Inactive)
REMARK    1  A    between atoms: C_4  and  C_7
REMARK    2  A    between atoms: N_9  and  N_13
REMARK    3  A    between atoms: C_14  and  C_15
REMARK                            x       y       z     vdW  Elec       q    Type
REMARK                         _______ _______ _______ _____ _____    ______ ____
ROOT
ATOM      1  C   UNL     1       3.698  -0.688  -0.038  0.00  0.00    +0.067 A 
ATOM      2  C   UNL     1       3.862  -2.036  -0.053  0.00  0.00    +0.142 A 
ATOM      3  N   UNL     1       5.215  -2.273  -0.067  0.00  0.00    -0.209 N 
ATOM      4  C   UNL     1       5.840  -1.061  -0.060  0.00  0.00    +0.192 A 
ATOM      5  N   UNL     1       4.929  -0.117  -0.049  0.00  0.00    -0.326 N 
ATOM      6  N   UNL     1       7.210  -0.860  -0.070  0.00  0.00    -0.329 N 
ATOM      7  H   UNL     1       7.812  -1.621  -0.083  0.00  0.00    +0.145 HD
ATOM      8  H   UNL     1       7.568   0.042  -0.064  0.00  0.00    +0.145 HD
ATOM      9  H   UNL     1       5.107   0.836  -0.045  0.00  0.00    +0.169 HD
ENDROOT
BRANCH   1  13
ATOM     10  C   UNL     1      -0.017   1.379   0.010  0.00  0.00    +0.000 A 
ATOM     11  C   UNL     1       1.169   2.092   0.002  0.00  0.00    +0.001 A 
ATOM     12  C   UNL     1       2.377   1.427  -0.013  0.00  0.00    +0.010 A 
ATOM     13  C   UNL     1       2.402   0.033  -0.021  0.00  0.00    -0.000 A 
ATOM     14  C   UNL     1       1.205  -0.680  -0.013  0.00  0.00    +0.010 A 
ATOM     15  C   UNL     1       0.002  -0.004   0.002  0.00  0.00    +0.001 A 
ENDBRANCH   1  13
BRANCH   3  16
ATOM     16  N   UNL     1       5.838  -3.527  -0.083  0.00  0.00    -0.170 NA
ATOM     17  C   UNL     1       5.117  -4.613  -0.087  0.00  0.00    +0.162 C 
BRANCH  17  18
ATOM     18  C   UNL     1       5.766  -5.922  -0.105  0.00  0.00    +0.105 A 
ATOM     19  C   UNL     1       7.122  -6.164  -0.112  0.00  0.00    +0.157 A 
ATOM     20  N   UNL     1       7.306  -7.485  -0.128  0.00  0.00    -0.209 NA
ATOM     21  C   UNL     1       6.145  -8.086  -0.131  0.00  0.00    +0.179 A 
ATOM     22  N   UNL     1       5.127  -7.172  -0.111  0.00  0.00    -0.291 N 
ATOM     23  C   UNL     1       3.842  -7.667  -0.106  0.00  0.00    +0.101 A 
ATOM     24  C   UNL     1       3.617  -8.981  -0.115  0.00  0.00    +0.067 A 
ATOM     25  S   UNL     1       5.278  -9.638  -0.146  0.00  0.00    -0.058 S 
ATOM     26 CL   UNL     1       8.373  -4.960  -0.103  0.00  0.00    -0.060 Cl
ENDBRANCH  17  18
ENDBRANCH   3  16
TORSDOF 3
