REMARK  Name = ZINC35326978
REMARK  4 active torsions:
REMARK  status: ('A' for Active; 'I' for Inactive)
REMARK    1  A    between atoms: C_1  and  C_2
REMARK    2  A    between atoms: C_2  and  O_20
REMARK    3  A    between atoms: C_6  and  O_10
REMARK    4  A    between atoms: C_11  and  C_14
REMARK                            x       y       z     vdW  Elec       q    Type
REMARK                         _______ _______ _______ _____ _____    ______ ____
ROOT
ATOM      1  C   UNL     1      -0.019   1.526   0.010  0.00  0.00    +0.042 C 
ATOM      2  C   UNL     1       0.002  -0.004   0.002  0.00  0.00    +0.070 C 
ATOM      3  C   UNL     1       0.719  -0.498  -1.260  0.00  0.00    +0.089 C 
ATOM      4  C   UNL     1       0.946  -1.984  -1.128  0.00  0.00    +0.046 A 
ATOM      5  C   UNL     1       0.867  -2.664   0.044  0.00  0.00    +0.044 A 
ATOM      6  C   UNL     1       1.132  -4.010  -0.220  0.00  0.00    +0.235 A 
ATOM      7  N   UNL     1       1.364  -4.132  -1.507  0.00  0.00    -0.136 NA
ATOM      8  H   UNL     1       1.373  -2.658  -3.036  0.00  0.00    +0.189 HD
ATOM      9  N   UNL     1       1.252  -2.863  -2.096  0.00  0.00    -0.278 N 
ATOM     10  C   UNL     1       0.546  -2.026   1.373  0.00  0.00    +0.059 C 
ATOM     11  C   UNL     1       0.743  -0.511   1.242  0.00  0.00    +0.048 C 
ENDROOT
BRANCH  10  12
ATOM     12  C   UNL     1       1.469  -2.570   2.433  0.00  0.00    -0.040 A 
ATOM     13  C   UNL     1       2.836  -2.402   2.312  0.00  0.00    +0.004 A 
ATOM     14  C   UNL     1       3.683  -2.900   3.284  0.00  0.00    +0.000 A 
ATOM     15  C   UNL     1       3.163  -3.567   4.378  0.00  0.00    +0.000 A 
ATOM     16  C   UNL     1       1.796  -3.735   4.499  0.00  0.00    +0.000 A 
ATOM     17  C   UNL     1       0.949  -3.232   3.529  0.00  0.00    +0.004 A 
ENDBRANCH  10  12
BRANCH   6  18
ATOM     18  O   UNL     1       1.148  -5.016   0.694  0.00  0.00    -0.491 OA
ATOM     19  H   UNL     1       0.292  -5.449   0.817  0.00  0.00    +0.294 HD
ENDBRANCH   6  18
BRANCH   2  20
ATOM     20  O   UNL     1      -1.339  -0.498   0.013  0.00  0.00    -0.388 OA
ATOM     21  H   UNL     1      -1.868  -0.216  -0.746  0.00  0.00    +0.210 HD
ENDBRANCH   2  20
TORSDOF 3
