REMARK  Name = ZINC24104655
REMARK  9 active torsions:
REMARK  status: ('A' for Active; 'I' for Inactive)
REMARK    1  A    between atoms: C_1  and  C_2
REMARK    2  A    between atoms: C_2  and  N_3
REMARK    3  A    between atoms: N_3  and  C_4
REMARK    4  A    between atoms: N_3  and  C_18
REMARK    5  A    between atoms: C_4  and  C_5
REMARK    6  A    between atoms: N_7  and  C_8
REMARK    7  A    between atoms: C_13  and  C_14
REMARK    8  A    between atoms: C_18  and  C_19
REMARK    9  A    between atoms: C_27  and  C_29
REMARK                            x       y       z     vdW  Elec       q    Type
REMARK                         _______ _______ _______ _____ _____    ______ ____
ROOT
ATOM      1  N   UNL     1       3.221   1.122  -1.944  0.00  0.00    +0.391 N 
ATOM      2  H   UNL     1       2.815   0.318  -1.312  0.00  0.00    -0.080 HD
ENDROOT
BRANCH   1   4
ATOM      3  C   UNL     1       4.346   1.592  -4.068  0.00  0.00    -0.017 C 
ATOM      4  C   UNL     1       3.712   0.513  -3.188  0.00  0.00    -0.081 C 
ENDBRANCH   1   4
BRANCH   1   5
ATOM      5  C   UNL     1       2.137   2.074  -2.216  0.00  0.00    +0.020 C 
BRANCH   5   6
ATOM      6  C   UNL     1       0.938   1.332  -2.749  0.00  0.00    +0.201 C 
ATOM      7  O   UNL     1       0.983   0.128  -2.888  0.00  0.00    -0.278 OA
ATOM      8  N   UNL     1      -0.181   2.007  -3.076  0.00  0.00    -0.287 N 
ATOM      9  H   UNL     1      -0.253   3.086  -2.872  0.00  0.00    +0.155 HD
BRANCH   8  10
ATOM     10  C   UNL     1      -1.254   1.336  -3.674  0.00  0.00    +0.045 A 
ATOM     11  C   UNL     1      -1.523   0.016  -3.336  0.00  0.00    +0.024 A 
ATOM     12  C   UNL     1      -2.585  -0.643  -3.925  0.00  0.00    +0.002 A 
ATOM     13  C   UNL     1      -3.373   0.008  -4.857  0.00  0.00    +0.001 A 
ATOM     14  C   UNL     1      -3.104   1.320  -5.198  0.00  0.00    +0.014 A 
ATOM     15  C   UNL     1      -2.047   1.986  -4.610  0.00  0.00    +0.076 A 
BRANCH  15  16
ATOM     16  C   UNL     1      -1.754   3.416  -4.983  0.00  0.00    +0.419 C 
ATOM     17  F   UNL     1      -2.682   3.849  -5.937  0.00  0.00    -0.166 F 
ATOM     18  F   UNL     1      -1.845   4.224  -3.844  0.00  0.00    -0.166 F 
ATOM     19  F   UNL     1      -0.463   3.505  -5.515  0.00  0.00    -0.166 F 
ENDBRANCH  15  16
ENDBRANCH   8  10
ENDBRANCH   5   6
ENDBRANCH   1   5
BRANCH   1  20
ATOM     20  C   UNL     1       4.316   1.766  -1.206  0.00  0.00    +0.019 C 
BRANCH  20  21
ATOM     21  C   UNL     1       5.218   0.711  -0.621  0.00  0.00    +0.199 C 
ATOM     22  O   UNL     1       4.980  -0.464  -0.810  0.00  0.00    -0.278 OA
ATOM     23  N   UNL     1       6.290   1.071   0.112  0.00  0.00    -0.300 N 
ATOM     24  C   UNL     1       6.595   2.490   0.345  0.00  0.00    +0.126 C 
ATOM     25  C   UNL     1       6.689   2.724   1.862  0.00  0.00    +0.127 C 
ATOM     26  N   UNL     1       7.577   1.705   2.439  0.00  0.00    -0.294 N 
ATOM     27  C   UNL     1       7.276   0.286   2.202  0.00  0.00    +0.127 C 
ATOM     28  C   UNL     1       7.178   0.052   0.689  0.00  0.00    +0.126 C 
ATOM     29  C   UNL     1       8.649   2.065   3.171  0.00  0.00    +0.253 C 
ATOM     30  O   UNL     1       9.434   1.219   3.559  0.00  0.00    -0.269 OA
BRANCH  29  31
ATOM     31  C   UNL     1       8.871   3.476   3.502  0.00  0.00    +0.074 A 
ATOM     32  C   UNL     1      10.049   4.117   3.853  0.00  0.00    +0.021 A 
ATOM     33  C   UNL     1       9.975   5.463   4.111  0.00  0.00    +0.008 A 
ATOM     34  C   UNL     1       8.773   6.090   4.024  0.00  0.00    +0.046 A 
ATOM     35  S   UNL     1       7.693   4.814   3.565  0.00  0.00    -0.092 S 
ENDBRANCH  29  31
ENDBRANCH  20  21
ENDBRANCH   1  20
TORSDOF 8
