REMARK  Name = ZINC01132837
REMARK  8 active torsions:
REMARK  status: ('A' for Active; 'I' for Inactive)
REMARK    1  A    between atoms: C_1  and  C_2
REMARK    2  A    between atoms: C_2  and  O_3
REMARK    3  A    between atoms: O_3  and  C_4
REMARK    4  A    between atoms: C_4  and  C_6
REMARK    5  A    between atoms: C_7  and  C_34
REMARK    6  A    between atoms: C_11  and  C_13
REMARK    7  A    between atoms: C_17  and  C_19
REMARK    8  A    between atoms: C_26  and  C_29
REMARK                            x       y       z     vdW  Elec       q    Type
REMARK                         _______ _______ _______ _____ _____    ______ ____
ROOT
ATOM      1  C   UNL     1      -4.519   5.870   1.373  0.00  0.00    +0.065 C 
ATOM      2  C   UNL     1      -3.946   5.443   2.511  0.00  0.00    +0.016 C 
ATOM      3  N   UNL     1      -3.021   4.436   2.485  0.00  0.00    -0.321 N 
ATOM      4  C   UNL     1      -2.369   4.119   1.324  0.00  0.00    +0.016 C 
ATOM      5  C   UNL     1      -2.876   4.489   0.130  0.00  0.00    +0.024 C 
ATOM      6  C   UNL     1      -4.171   5.257   0.048  0.00  0.00    +0.092 C 
ATOM      7  C   UNL     1      -2.216   4.168  -1.070  0.00  0.00    +0.162 C 
ATOM      8  O   UNL     1      -2.691   4.532  -2.127  0.00  0.00    -0.292 OA
ATOM      9  C   UNL     1      -0.936   3.378  -1.070  0.00  0.00    +0.091 C 
ATOM     10  C   UNL     1      -0.907   2.477   0.169  0.00  0.00    +0.068 C 
ATOM     11  C   UNL     1      -1.073   3.351   1.414  0.00  0.00    +0.062 C 
ATOM     12  C   UNL     1      -4.325   6.077   3.824  0.00  0.00    +0.061 C 
ATOM     13  H   UNL     1      -2.795   3.874   3.403  0.00  0.00    +0.152 HD
ENDROOT
BRANCH   6  14
ATOM     14  C   UNL     1      -5.276   4.320  -0.367  0.00  0.00    -0.035 A 
ATOM     15  C   UNL     1      -5.579   3.219   0.412  0.00  0.00    +0.004 A 
ATOM     16  C   UNL     1      -6.595   2.362   0.033  0.00  0.00    +0.001 A 
ATOM     17  C   UNL     1      -7.303   2.601  -1.130  0.00  0.00    +0.012 A 
ATOM     18  C   UNL     1      -6.997   3.699  -1.912  0.00  0.00    +0.055 A 
ATOM     19  C   UNL     1      -5.984   4.559  -1.531  0.00  0.00    +0.017 A 
BRANCH  18  20
ATOM     20  C   UNL     1      -7.769   3.960  -3.180  0.00  0.00    +0.417 C 
ATOM     21  F   UNL     1      -7.139   3.316  -4.250  0.00  0.00    -0.166 F 
ATOM     22  F   UNL     1      -9.072   3.469  -3.042  0.00  0.00    -0.166 F 
ATOM     23  F   UNL     1      -7.813   5.336  -3.425  0.00  0.00    -0.166 F 
ENDBRANCH  18  20
ENDBRANCH   6  14
BRANCH  10  24
ATOM     24  C   UNL     1       0.410   1.748   0.234  0.00  0.00    +0.109 A 
ATOM     25  C   UNL     1       0.571   0.412   0.229  0.00  0.00    +0.045 A 
ATOM     26  C   UNL     1       1.962   0.167   0.296  0.00  0.00    +0.041 A 
ATOM     27  C   UNL     1       2.568   1.367   0.339  0.00  0.00    +0.195 A 
ATOM     28  O   UNL     1       1.623   2.321   0.301  0.00  0.00    -0.468 OA
ENDBRANCH  10  24
BRANCH   1  29
ATOM     29  C   UNL     1      -5.467   6.919   1.424  0.00  0.00    +0.338 C 
ATOM     30  O   UNL     1      -5.162   8.034   1.044  0.00  0.00    -0.245 OA
BRANCH  29  31
ATOM     31  O   UNL     1      -6.709   6.682   1.895  0.00  0.00    -0.462 OA
BRANCH  31  33
ATOM     32  C   UNL     1      -8.963   7.329   2.480  0.00  0.00    +0.048 C 
ATOM     33  C   UNL     1      -7.615   7.787   1.919  0.00  0.00    +0.229 C 
ENDBRANCH  31  33
ENDBRANCH  29  31
ENDBRANCH   1  29
TORSDOF 6
