REMARK  Name = ZINC20375555
REMARK  8 active torsions:
REMARK  status: ('A' for Active; 'I' for Inactive)
REMARK    1  A    between atoms: C_1  and  C_2
REMARK    2  A    between atoms: C_2  and  N_3
REMARK    3  A    between atoms: N_3  and  C_4
REMARK    4  A    between atoms: N_3  and  C_6
REMARK    5  A    between atoms: C_4  and  C_5
REMARK    6  A    between atoms: C_9  and  C_12
REMARK    7  A    between atoms: C_20  and  O_40
REMARK    8  A    between atoms: C_24  and  C_26
REMARK                            x       y       z     vdW  Elec       q    Type
REMARK                         _______ _______ _______ _____ _____    ______ ____
ROOT
ATOM      1  C   UNL     1      -0.507   1.677  -1.125  0.00  0.00    +0.112 C 
ATOM      2  C   UNL     1       0.520   1.626   0.010  0.00  0.00    +0.046 C 
ATOM      3  C   UNL     1       1.692   2.553  -0.318  0.00  0.00    +0.008 C 
ATOM      4  C   UNL     1       2.719   2.494   0.814  0.00  0.00    +0.001 C 
ATOM      5  C   UNL     1       2.064   2.939   2.123  0.00  0.00    +0.003 C 
ATOM      6  C   UNL     1       0.889   2.013   2.447  0.00  0.00    +0.035 C 
ATOM      7  C   UNL     1      -0.138   2.081   1.315  0.00  0.00    +0.072 C 
ATOM      8  C   UNL     1      -0.628   3.523   1.164  0.00  0.00    +0.054 C 
ATOM      9  C   UNL     1      -1.672   3.591   0.045  0.00  0.00    +0.111 C 
ATOM     10  N   UNL     1      -1.089   3.025  -1.179  0.00  0.00    -0.293 N 
ATOM     11  C   UNL     1      -1.087   3.728  -2.329  0.00  0.00    +0.228 C 
ATOM     12  O   UNL     1      -0.604   3.248  -3.333  0.00  0.00    -0.275 OA
ENDROOT
BRANCH  11  13
ATOM     13  C   UNL     1      -1.687   5.110  -2.368  0.00  0.00    +0.142 C 
ATOM     14  C   UNL     1      -3.131   5.012  -2.778  0.00  0.00    +0.011 A 
ATOM     15  C   UNL     1      -4.072   4.600  -1.850  0.00  0.00    +0.008 A 
ATOM     16  C   UNL     1      -5.404   4.505  -2.205  0.00  0.00    +0.001 A 
ATOM     17  C   UNL     1      -5.802   4.824  -3.491  0.00  0.00    +0.004 A 
ATOM     18  C   UNL     1      -4.868   5.235  -4.420  0.00  0.00    +0.046 A 
ATOM     19  C   UNL     1      -3.526   5.330  -4.066  0.00  0.00    +0.133 A 
ATOM     20  O   UNL     1      -2.625   5.733  -4.993  0.00  0.00    -0.455 OA
ATOM     21  C   UNL     1      -1.424   6.224  -4.605  0.00  0.00    +0.133 A 
ATOM     22  C   UNL     1      -0.917   5.957  -3.344  0.00  0.00    +0.011 A 
ATOM     23  C   UNL     1       0.311   6.475  -2.971  0.00  0.00    +0.008 A 
ATOM     24  C   UNL     1       1.034   7.254  -3.853  0.00  0.00    +0.001 A 
ATOM     25  C   UNL     1       0.533   7.519  -5.114  0.00  0.00    +0.004 A 
ATOM     26  C   UNL     1      -0.692   7.007  -5.491  0.00  0.00    +0.046 A 
ENDBRANCH  11  13
BRANCH   1  30
ATOM     27  C   UNL     1       1.416   0.796  -4.838  0.00  0.00    +0.030 A 
ATOM     28  C   UNL     1       0.394  -0.022  -4.372  0.00  0.00    +0.023 A 
ATOM     29  C   UNL     1      -0.225   0.266  -3.172  0.00  0.00    +0.007 A 
ATOM     30  C   UNL     1       0.171   1.366  -2.434  0.00  0.00    -0.027 A 
ATOM     31  C   UNL     1       1.184   2.185  -2.898  0.00  0.00    +0.007 A 
ATOM     32  C   UNL     1       1.811   1.900  -4.095  0.00  0.00    +0.023 A 
BRANCH  27  33
ATOM     33  N   UNL     1       2.044   0.508  -6.052  0.00  0.00    -0.330 N 
BRANCH  33  35
ATOM     34  C   UNL     1       4.465   0.858  -6.019  0.00  0.00    +0.024 C 
ATOM     35  C   UNL     1       3.122   1.372  -6.542  0.00  0.00    +0.102 C 
ENDBRANCH  33  35
BRANCH  33  36
ATOM     36  C   UNL     1       1.626  -0.657  -6.835  0.00  0.00    +0.102 C 
ATOM     37  C   UNL     1       0.512  -0.248  -7.802  0.00  0.00    +0.024 C 
ENDBRANCH  33  36
ENDBRANCH  27  33
ENDBRANCH   1  30
BRANCH   7  38
ATOM     38  O   UNL     1      -1.241   1.224   1.618  0.00  0.00    -0.388 OA
ATOM     39  H   UNL     1      -1.839   1.398   2.525  0.00  0.00    +0.210 HD
ENDBRANCH   7  38
TORSDOF 6
