REMARK  Name = ZINC35858972
REMARK  8 active torsions:
REMARK  status: ('A' for Active; 'I' for Inactive)
REMARK    1  A    between atoms: C_1  and  C_2
REMARK    2  A    between atoms: C_2  and  C_3
REMARK    3  A    between atoms: C_3  and  C_5
REMARK    4  A    between atoms: C_3  and  O_15
REMARK    5  A    between atoms: C_11  and  C_14
REMARK    6  A    between atoms: O_15  and  C_16
REMARK    7  A    between atoms: C_22  and  C_35
REMARK    8  A    between atoms: C_27  and  C_29
REMARK                            x       y       z     vdW  Elec       q    Type
REMARK                         _______ _______ _______ _____ _____    ______ ____
ROOT
ATOM      1  C   UNL     1       2.840   2.092  -2.705  0.00  0.00    +0.122 A 
ATOM      2  C   UNL     1       2.231   3.071  -3.478  0.00  0.00    +0.046 A 
ATOM      3  C   UNL     1       2.990   3.830  -4.342  0.00  0.00    +0.007 A 
ATOM      4  C   UNL     1       4.362   3.630  -4.444  0.00  0.00    -0.040 A 
ATOM      5  C   UNL     1       4.968   2.665  -3.670  0.00  0.00    -0.016 A 
ATOM      6  C   UNL     1       4.207   1.897  -2.801  0.00  0.00    +0.051 A 
ATOM      7  C   UNL     1       6.455   2.415  -3.710  0.00  0.00    +0.137 C 
ATOM      8  N   UNL     1       7.044   3.123  -4.851  0.00  0.00    -0.286 N 
ATOM      9  C   UNL     1       6.611   4.511  -5.082  0.00  0.00    +0.113 C 
ATOM     10  C   UNL     1       5.122   4.488  -5.421  0.00  0.00    +0.054 C 
ATOM     11  C   UNL     1       7.946   2.526  -5.656  0.00  0.00    +0.247 C 
ATOM     12  O   UNL     1       8.486   3.163  -6.540  0.00  0.00    -0.270 OA
ENDROOT
BRANCH  11  13
ATOM     13  C   UNL     1       8.278   1.099  -5.464  0.00  0.00    +0.037 A 
ATOM     14  C   UNL     1       8.480   0.271  -6.570  0.00  0.00    +0.013 A 
ATOM     15  C   UNL     1       8.790  -1.060  -6.384  0.00  0.00    +0.001 A 
ATOM     16  C   UNL     1       8.901  -1.575  -5.104  0.00  0.00    +0.000 A 
ATOM     17  C   UNL     1       8.702  -0.761  -4.004  0.00  0.00    +0.001 A 
ATOM     18  C   UNL     1       8.397   0.574  -4.176  0.00  0.00    +0.013 A 
ENDBRANCH  11  13
BRANCH   7  19
ATOM     19  C   UNL     1       7.082   2.913  -2.433  0.00  0.00    -0.023 A 
ATOM     20  C   UNL     1       6.856   2.244  -1.245  0.00  0.00    +0.006 A 
ATOM     21  C   UNL     1       7.432   2.701  -0.074  0.00  0.00    +0.000 A 
ATOM     22  C   UNL     1       8.233   3.828  -0.092  0.00  0.00    +0.000 A 
ATOM     23  C   UNL     1       8.460   4.496  -1.280  0.00  0.00    +0.000 A 
ATOM     24  C   UNL     1       7.888   4.037  -2.452  0.00  0.00    +0.006 A 
ENDBRANCH   7  19
BRANCH   1  25
ATOM     25  O   UNL     1       2.099   1.335  -1.854  0.00  0.00    -0.480 OA
BRANCH  25  26
ATOM     26  C   UNL     1       2.794   0.345  -1.093  0.00  0.00    +0.258 C 
BRANCH  26  27
ATOM     27  C   UNL     1       2.171   0.234   0.275  0.00  0.00    +0.256 C 
ATOM     28  O   UNL     1       1.060   0.676   0.473  0.00  0.00    -0.272 OA
ATOM     29  N   UNL     1       2.849  -0.358   1.278  0.00  0.00    -0.302 N 
ATOM     30  C   UNL     1       4.158  -0.987   1.039  0.00  0.00    +0.089 C 
ATOM     31  C   UNL     1       4.131  -2.402   1.625  0.00  0.00    -0.063 C 
ATOM     32  N   UNL     1       3.739  -2.337   3.039  0.00  0.00    +0.383 N 
ATOM     33  C   UNL     1       2.364  -1.836   3.154  0.00  0.00    -0.057 C 
ATOM     34  C   UNL     1       2.305  -0.388   2.644  0.00  0.00    +0.092 C 
ATOM     35  C   UNL     1       1.926  -1.878   4.619  0.00  0.00    -0.012 C 
ATOM     36  H   UNL     1       3.794  -3.260   3.444  0.00  0.00    -0.085 HD
ATOM     37  H   UNL     1       4.364  -1.718   3.532  0.00  0.00    -0.085 HD
ENDBRANCH  26  27
BRANCH  26  39
ATOM     38  C   UNL     1       3.457  -0.931  -3.136  0.00  0.00    +0.008 C 
ATOM     39  C   UNL     1       2.703  -1.005  -1.807  0.00  0.00    +0.051 C 
ENDBRANCH  26  39
ENDBRANCH  25  26
ENDBRANCH   1  25
TORSDOF 6
