REMARK  Name = ZINC13501206
REMARK  12 active torsions:
REMARK  status: ('A' for Active; 'I' for Inactive)
REMARK    1  A    between atoms: C_1  and  C_2
REMARK    2  A    between atoms: C_2  and  C_3
REMARK    3  A    between atoms: C_3  and  C_5
REMARK    4  A    between atoms: C_3  and  N_71
REMARK    5  A    between atoms: N_9  and  C_10
REMARK    6  A    between atoms: C_10  and  C_11
REMARK    7  A    between atoms: C_10  and  C_12
REMARK    8  A    between atoms: C_10  and  C_13
REMARK    9  A    between atoms: C_13  and  C_14
REMARK   10  A    between atoms: C_15  and  C_16
REMARK   11  A    between atoms: C_15  and  N_71
REMARK   12  A    between atoms: C_31  and  N_71
REMARK                            x       y       z     vdW  Elec       q    Type
REMARK                         _______ _______ _______ _____ _____    ______ ____
ROOT
ATOM      1  N   UNL     1      -1.239   3.887   0.066  0.00  0.00    +0.391 N 
ATOM      2  H   UNL     1      -1.392   4.902   0.052  0.00  0.00    -0.080 HD
ENDROOT
BRANCH   1   3
ATOM      3  C   UNL     1      -2.522   3.204  -0.207  0.00  0.00    -0.067 C 
ATOM      4  C   UNL     1      -3.588   3.763   0.737  0.00  0.00    -0.015 C 
ATOM      5  C   UNL     1      -4.928   3.082   0.453  0.00  0.00    -0.002 C 
ATOM      6  C   UNL     1      -4.791   1.574   0.674  0.00  0.00    -0.000 C 
ATOM      7  C   UNL     1      -3.725   1.015  -0.270  0.00  0.00    -0.002 C 
ATOM      8  C   UNL     1      -2.384   1.697   0.014  0.00  0.00    -0.015 C 
ENDBRANCH   1   3
BRANCH   1   9
ATOM      9  C   UNL     1      -0.732   3.495   1.397  0.00  0.00    +0.003 C 
BRANCH   9  10
ATOM     10  C   UNL     1      -0.110   2.124   1.343  0.00  0.00    +0.139 A 
ATOM     11  N   UNL     1       0.615   1.632   0.368  0.00  0.00    -0.115 NA
ATOM     12  N   UNL     1       0.961   0.434   0.695  0.00  0.00    -0.023 NA
ATOM     13  N   UNL     1       0.476   0.150   1.853  0.00  0.00    -0.043 NA
ATOM     14  N   UNL     1      -0.186   1.168   2.288  0.00  0.00    -0.225 N 
BRANCH  14  15
ATOM     15  C   UNL     1      -0.892   1.265   3.568  0.00  0.00    +0.061 C 
ATOM     16  C   UNL     1      -0.417   2.510   4.319  0.00  0.00    +0.036 C 
ATOM     17  C   UNL     1      -2.397   1.366   3.314  0.00  0.00    +0.036 C 
BRANCH  15  18
ATOM     18  C   UNL     1      -0.599   0.020   4.407  0.00  0.00    +0.026 C 
ATOM     19  C   UNL     1      -1.335   0.121   5.744  0.00  0.00    +0.006 C 
ENDBRANCH  15  18
ENDBRANCH  14  15
ENDBRANCH   9  10
BRANCH   9  21
ATOM     20  C   UNL     1      -0.342   5.881   2.028  0.00  0.00    +0.002 C 
ATOM     21  C   UNL     1       0.320   4.515   1.841  0.00  0.00    -0.011 C 
ENDBRANCH   9  21
ENDBRANCH   1   9
BRANCH   1  22
ATOM     22  C   UNL     1      -0.250   3.537  -0.975  0.00  0.00    -0.036 C 
BRANCH  22  23
ATOM     23  C   UNL     1      -0.581   4.298  -2.233  0.00  0.00    +0.001 A 
ATOM     24  C   UNL     1       0.007   5.498  -2.471  0.00  0.00    +0.017 A 
ATOM     25  C   UNL     1      -0.330   6.209  -3.704  0.00  0.00    +0.002 A 
ATOM     26  C   UNL     1       0.249   7.449  -4.004  0.00  0.00    +0.059 A 
ATOM     27  C   UNL     1      -0.091   8.097  -5.171  0.00  0.00    +0.167 A 
ATOM     28  C   UNL     1      -1.012   7.521  -6.055  0.00  0.00    +0.168 A 
ATOM     29  C   UNL     1      -1.591   6.299  -5.765  0.00  0.00    +0.075 A 
ATOM     30  C   UNL     1      -1.258   5.633  -4.592  0.00  0.00    +0.053 A 
ATOM     31  N   UNL     1      -1.826   4.412  -4.287  0.00  0.00    -0.322 N 
ATOM     32  H   UNL     1      -2.466   4.016  -4.899  0.00  0.00    +0.169 HD
ATOM     33  C   UNL     1      -1.505   3.764  -3.154  0.00  0.00    +0.251 A 
ATOM     34  O   UNL     1      -2.026   2.688  -2.916  0.00  0.00    -0.268 OA
ATOM     35  O   UNL     1      -1.169   8.358  -7.121  0.00  0.00    -0.453 OA
ATOM     36  C   UNL     1      -0.037   9.246  -7.084  0.00  0.00    +0.466 C 
ATOM     37  O   UNL     1       0.322   9.290  -5.691  0.00  0.00    -0.453 OA
ENDBRANCH  22  23
ENDBRANCH   1  22
TORSDOF 8
