REMARK  Name = ZINC20931112
REMARK  10 active torsions:
REMARK  status: ('A' for Active; 'I' for Inactive)
REMARK    1  A    between atoms: C_1  and  C_2
REMARK    2  A    between atoms: C_3  and  C_11
REMARK    3  A    between atoms: C_4  and  C_10
REMARK    4  A    between atoms: C_6  and  S_8
REMARK    5  A    between atoms: S_8  and  C_9
REMARK    6  A    between atoms: C_11  and  C_12
REMARK    7  A    between atoms: C_12  and  C_13
REMARK    8  A    between atoms: N_15  and  C_16
REMARK    9  A    between atoms: C_16  and  C_17
REMARK   10  A    between atoms: C_17  and  N_23
REMARK                            x       y       z     vdW  Elec       q    Type
REMARK                         _______ _______ _______ _____ _____    ______ ____
ROOT
ATOM      1  C   UNL     1       0.251   0.906  -2.284  0.00  0.00    +0.213 C 
ATOM      2  O   UNL     1       1.271   0.253  -2.204  0.00  0.00    -0.276 OA
ATOM      3  N   UNL     1      -0.397   1.283  -1.164  0.00  0.00    -0.317 N 
ATOM      4  H   UNL     1      -1.322   1.874  -1.237  0.00  0.00    +0.149 HD
ENDROOT
BRANCH   1   5
ATOM      5  C   UNL     1      -0.290   1.294  -3.635  0.00  0.00    +0.100 C 
BRANCH   5   6
ATOM      6  C   UNL     1       0.627   0.745  -4.730  0.00  0.00    +0.048 C 
BRANCH   6   9
ATOM      7  C   UNL     1       1.443   3.245  -5.995  0.00  0.00    +0.066 C 
ATOM      8  C   UNL     1       0.472   2.321  -6.684  0.00  0.00    +0.046 A 
ATOM      9  C   UNL     1       0.086   1.134  -6.081  0.00  0.00    -0.005 A 
ATOM     10  C   UNL     1      -0.804   0.309  -6.751  0.00  0.00    +0.046 A 
ATOM     11  N   UNL     1      -1.265   0.682  -7.934  0.00  0.00    -0.227 NA
ATOM     12  C   UNL     1      -0.876   1.825  -8.482  0.00  0.00    +0.188 A 
ATOM     13  N   UNL     1      -0.022   2.633  -7.870  0.00  0.00    -0.227 NA
ATOM     14  C   UNL     1      -1.246  -0.994  -6.138  0.00  0.00    +0.066 C 
BRANCH  12  15
ATOM     15  S   UNL     1      -1.509   2.280 -10.063  0.00  0.00    -0.089 S 
ATOM     16  C   UNL     1      -2.580   0.858 -10.393  0.00  0.00    +0.093 C 
ENDBRANCH  12  15
ENDBRANCH   6   9
ENDBRANCH   5   6
ENDBRANCH   1   5
BRANCH   3  17
ATOM     17  C   UNL     1       0.129   0.905   0.150  0.00  0.00    +0.092 C 
BRANCH  17  18
ATOM     18  C   UNL     1      -0.867   1.315   1.236  0.00  0.00    -0.050 C 
ATOM     19  C   UNL     1      -1.215   2.796   1.076  0.00  0.00    -0.010 C 
ATOM     20  C   UNL     1       0.057   3.636   1.208  0.00  0.00    -0.001 C 
ATOM     21  C   UNL     1       0.680   3.404   2.586  0.00  0.00    -0.000 C 
ATOM     22  C   UNL     1       1.028   1.922   2.746  0.00  0.00    -0.001 C 
ATOM     23  C   UNL     1      -0.244   1.083   2.614  0.00  0.00    -0.010 C 
BRANCH  18  24
ATOM     24  N   UNL     1      -2.089   0.509   1.109  0.00  0.00    +0.384 N 
ATOM     25  C   UNL     1      -1.788  -0.924   1.222  0.00  0.00    -0.078 C 
ATOM     26  C   UNL     1      -3.094  -1.722   1.232  0.00  0.00    -0.019 C 
ATOM     27  C   UNL     1      -3.865  -1.444  -0.061  0.00  0.00    -0.004 C 
ATOM     28  C   UNL     1      -4.124   0.061  -0.180  0.00  0.00    -0.019 C 
ATOM     29  C   UNL     1      -2.788   0.806  -0.148  0.00  0.00    -0.078 C 
ATOM     30  H   UNL     1      -2.761   0.777   1.937  0.00  0.00    -0.081 HD
ENDBRANCH  18  24
ENDBRANCH  17  18
ENDBRANCH   3  17
TORSDOF 7
