REMARK  Name = ZINC01823609
REMARK  7 active torsions:
REMARK  status: ('A' for Active; 'I' for Inactive)
REMARK    1  A    between atoms: C_1  and  C_2
REMARK    2  A    between atoms: C_2  and  O_3
REMARK    3  A    between atoms: O_3  and  C_4
REMARK    4  A    between atoms: C_4  and  C_6
REMARK    5  A    between atoms: C_6  and  C_8
REMARK    6  A    between atoms: C_6  and  S_14
REMARK    7  A    between atoms: S_14  and  C_15
REMARK                            x       y       z     vdW  Elec       q    Type
REMARK                         _______ _______ _______ _____ _____    ______ ____
ROOT
ATOM      1  C   UNL     1       5.395   3.827  -1.374  0.00  0.00    +0.116 A 
ATOM      2  C   UNL     1       5.902   4.718  -2.310  0.00  0.00    +0.072 A 
ATOM      3  C   UNL     1       7.176   5.276  -2.155  0.00  0.00    +0.092 A 
ATOM      4  C   UNL     1       7.602   6.213  -3.212  0.00  0.00    +0.035 A 
ATOM      5  C   UNL     1       8.837   6.910  -3.297  0.00  0.00    -0.029 A 
ATOM      6  C   UNL     1       9.062   7.737  -4.348  0.00  0.00    -0.005 A 
ATOM      7  C   UNL     1       8.076   7.899  -5.331  0.00  0.00    +0.103 A 
ATOM      8  C   UNL     1       6.683   6.425  -4.252  0.00  0.00    +0.089 A 
ATOM      9  S   UNL     1       5.288   5.415  -3.819  0.00  0.00    -0.066 S 
ATOM     10  N   UNL     1       8.309   8.749  -6.404  0.00  0.00    -0.312 N 
ATOM     11  C   UNL     1       7.322   9.839  -6.437  0.00  0.00    +0.134 C 
ATOM     12  C   UNL     1       7.651  10.783  -7.596  0.00  0.00    +0.178 C 
ATOM     13  O   UNL     1       7.677  10.039  -8.817  0.00  0.00    -0.377 OA
ATOM     14  C   UNL     1       8.628   8.971  -8.820  0.00  0.00    +0.178 C 
ATOM     15  C   UNL     1       8.309   8.008  -7.673  0.00  0.00    +0.134 C 
ATOM     16  C   UNL     1      10.350   8.503  -4.514  0.00  0.00    +0.039 C 
ATOM     17  C   UNL     1      11.110   8.568  -3.191  0.00  0.00    +0.005 C 
ATOM     18  C   UNL     1      11.226   7.146  -2.629  0.00  0.00    +0.005 C 
ATOM     19  C   UNL     1       9.834   6.687  -2.193  0.00  0.00    +0.036 C 
ATOM     20  N   UNL     1       7.867   4.887  -1.059  0.00  0.00    -0.234 NA
ATOM     21  C   UNL     1       7.359   4.041  -0.199  0.00  0.00    +0.223 A 
ATOM     22  N   UNL     1       6.157   3.509  -0.327  0.00  0.00    -0.228 NA
ATOM     23  N   UNL     1       6.884   7.243  -5.313  0.00  0.00    -0.337 N 
ATOM     24  H   UNL     1       6.183   7.360  -6.055  0.00  0.00    +0.168 HD
ENDROOT
BRANCH   1  25
ATOM     25  S   UNL     1       3.788   3.130  -1.567  0.00  0.00    -0.085 S 
BRANCH  25  26
ATOM     26  C   UNL     1       3.718   2.089  -0.088  0.00  0.00    +0.191 C 
BRANCH  26  27
ATOM     27  C   UNL     1       2.446   1.280  -0.103  0.00  0.00    -0.023 A 
ATOM     28  C   UNL     1       1.220   1.920  -0.118  0.00  0.00    +0.005 A 
ATOM     29  C   UNL     1       0.054   1.179  -0.133  0.00  0.00    +0.000 A 
ATOM     30  C   UNL     1       0.112  -0.202  -0.131  0.00  0.00    +0.000 A 
ATOM     31  C   UNL     1       1.338  -0.842  -0.114  0.00  0.00    +0.000 A 
ATOM     32  C   UNL     1       2.504  -0.101  -0.101  0.00  0.00    +0.005 A 
ENDBRANCH  26  27
BRANCH  26  33
ATOM     33  C   UNL     1       3.745   2.959   1.141  0.00  0.00    +0.325 C 
ATOM     34  O   UNL     1       4.721   2.969   1.854  0.00  0.00    -0.249 OA
BRANCH  33  35
ATOM     35  O   UNL     1       2.685   3.725   1.445  0.00  0.00    -0.464 OA
BRANCH  35  37
ATOM     36  C   UNL     1       1.488   5.336   2.825  0.00  0.00    +0.048 C 
ATOM     37  C   UNL     1       2.781   4.538   2.644  0.00  0.00    +0.229 C 
ENDBRANCH  35  37
ENDBRANCH  33  35
ENDBRANCH  26  33
ENDBRANCH  25  26
ENDBRANCH   1  25
TORSDOF 6
