REMARK  Name = ZINC07540447
REMARK  11 active torsions:
REMARK  status: ('A' for Active; 'I' for Inactive)
REMARK    1  A    between atoms: C_1  and  C_2
REMARK    2  A    between atoms: C_5  and  N_8
REMARK    3  A    between atoms: C_9  and  C_13
REMARK    4  A    between atoms: C_13  and  O_14
REMARK    5  A    between atoms: O_14  and  C_15
REMARK    6  A    between atoms: C_18  and  C_23
REMARK    7  A    between atoms: C_20  and  O_21
REMARK    8  A    between atoms: O_21  and  C_22
REMARK    9  A    between atoms: C_23  and  N_52
REMARK   10  A    between atoms: C_24  and  C_25
REMARK   11  A    between atoms: C_24  and  N_52
REMARK                            x       y       z     vdW  Elec       q    Type
REMARK                         _______ _______ _______ _____ _____    ______ ____
ROOT
ATOM      1  C   UNL     1       1.327   1.951  -0.030  0.00  0.00    +0.163 A 
ATOM      2  C   UNL     1       0.104   1.299  -0.019  0.00  0.00    +0.049 A 
ATOM      3  C   UNL     1      -1.069   2.030  -0.018  0.00  0.00    +0.005 A 
ATOM      4  C   UNL     1      -1.026   3.412  -0.015  0.00  0.00    -0.061 A 
ATOM      5  C   UNL     1       0.190   4.069  -0.025  0.00  0.00    +0.051 A 
ATOM      6  C   UNL     1       1.370   3.342  -0.033  0.00  0.00    +0.162 A 
ENDROOT
BRANCH   6   7
ATOM      7  O   UNL     1       2.567   3.986  -0.042  0.00  0.00    -0.491 OA
ATOM      8  C   UNL     1       2.535   5.415  -0.045  0.00  0.00    +0.277 C 
ENDBRANCH   6   7
BRANCH   1   9
ATOM      9  O   UNL     1       2.482   1.233  -0.036  0.00  0.00    -0.481 OA
BRANCH   9  10
ATOM     10  C   UNL     1       2.360  -0.191  -0.032  0.00  0.00    +0.307 C 
BRANCH  10  12
ATOM     11  N   UNL     1       4.410  -1.244  -1.127  0.00  0.00    -0.194 N 
ATOM     12  C   UNL     1       3.733  -0.812  -0.040  0.00  0.00    +0.194 A 
ATOM     13  N   UNL     1       4.488  -1.038   1.003  0.00  0.00    -0.109 NA
ATOM     14  N   UNL     1       5.598  -1.579   0.650  0.00  0.00    -0.023 NA
ATOM     15  N   UNL     1       5.631  -1.734  -0.630  0.00  0.00    -0.039 NA
BRANCH  11  20
ATOM     16  C   UNL     1       2.700  -1.098  -6.537  0.00  0.00    +0.044 C 
ATOM     17  C   UNL     1       3.154  -1.137  -5.101  0.00  0.00    -0.050 A 
ATOM     18  C   UNL     1       2.926  -0.051  -4.276  0.00  0.00    +0.005 A 
ATOM     19  C   UNL     1       3.342  -0.083  -2.959  0.00  0.00    +0.028 A 
ATOM     20  C   UNL     1       3.988  -1.208  -2.463  0.00  0.00    +0.069 A 
ATOM     21  C   UNL     1       4.220  -2.294  -3.296  0.00  0.00    +0.028 A 
ATOM     22  C   UNL     1       3.797  -2.258  -4.610  0.00  0.00    +0.005 A 
ENDBRANCH  11  20
ENDBRANCH  10  12
ENDBRANCH   9  10
ENDBRANCH   1   9
BRANCH   4  23
ATOM     23  C   UNL     1      -2.308   4.204  -0.007  0.00  0.00    -0.046 C 
BRANCH  23  24
ATOM     24  N   UNL     1      -2.729   4.456  -1.399  0.00  0.00    +0.386 N 
ATOM     25  H   UNL     1      -2.877   3.558  -1.875  0.00  0.00    -0.085 HD
ATOM     26  H   UNL     1      -1.996   4.985  -1.884  0.00  0.00    -0.085 HD
BRANCH  24  27
ATOM     27  C   UNL     1      -3.984   5.231  -1.421  0.00  0.00    -0.006 C 
BRANCH  27  28
ATOM     28  C   UNL     1      -4.390   5.472  -2.853  0.00  0.00    +0.088 A 
ATOM     29  C   UNL     1      -5.175   4.670  -3.594  0.00  0.00    +0.042 A 
ATOM     30  C   UNL     1      -5.293   5.274  -4.866  0.00  0.00    +0.041 A 
ATOM     31  C   UNL     1      -4.573   6.410  -4.827  0.00  0.00    +0.195 A 
ATOM     32  O   UNL     1      -4.033   6.527  -3.603  0.00  0.00    -0.470 OA
ENDBRANCH  27  28
ENDBRANCH  24  27
ENDBRANCH  23  24
ENDBRANCH   4  23
TORSDOF 9
