REMARK  Name = ZINC12150468
REMARK  13 active torsions:
REMARK  status: ('A' for Active; 'I' for Inactive)
REMARK    1  A    between atoms: C_1  and  C_2
REMARK    2  A    between atoms: C_6  and  C_8
REMARK    3  A    between atoms: C_8  and  N_69
REMARK    4  A    between atoms: C_14  and  C_18
REMARK    5  A    between atoms: C_18  and  C_20
REMARK    6  A    between atoms: C_18  and  N_24
REMARK    7  A    between atoms: C_20  and  C_21
REMARK    8  A    between atoms: C_21  and  C_22
REMARK    9  A    between atoms: C_21  and  C_23
REMARK   10  A    between atoms: C_25  and  C_27
REMARK   11  A    between atoms: C_30  and  C_32
REMARK   12  A    between atoms: C_32  and  O_33
REMARK   13  A    between atoms: O_33  and  C_34
REMARK                            x       y       z     vdW  Elec       q    Type
REMARK                         _______ _______ _______ _____ _____    ______ ____
ROOT
ATOM      1  C   UNL     1      -0.836   3.262   2.088  0.00  0.00    -0.071 C 
ATOM      2  C   UNL     1      -1.541   3.902   3.288  0.00  0.00    +0.058 C 
ATOM      3  C   UNL     1      -2.252   5.148   2.827  0.00  0.00    +0.132 A 
ATOM      4  N   UNL     1      -2.251   6.320   3.392  0.00  0.00    -0.134 NA
ATOM      5  N   UNL     1      -2.995   7.124   2.714  0.00  0.00    -0.132 NA
ATOM      6  C   UNL     1      -3.497   6.497   1.683  0.00  0.00    +0.154 A 
ATOM      7  N   UNL     1      -3.027   5.232   1.718  0.00  0.00    -0.315 N 
ATOM      8  C   UNL     1      -3.272   4.158   0.756  0.00  0.00    +0.106 C 
ATOM      9  C   UNL     1      -3.144   2.807   1.466  0.00  0.00    -0.056 C 
ATOM     10  N   UNL     1      -1.749   2.310   1.420  0.00  0.00    +0.384 N 
ATOM     11  H   UNL     1      -1.703   1.409   1.910  0.00  0.00    -0.081 HD
ENDROOT
BRANCH  10  12
ATOM     12  C   UNL     1      -1.332   2.114   0.020  0.00  0.00    -0.043 C 
BRANCH  12  18
ATOM     13  C   UNL     1       1.229  -2.186  -0.022  0.00  0.00    +0.044 C 
ATOM     14  C   UNL     1       1.208  -0.679  -0.014  0.00  0.00    -0.050 A 
ATOM     15  C   UNL     1       2.396   0.029  -0.022  0.00  0.00    +0.003 A 
ATOM     16  C   UNL     1       2.377   1.411  -0.014  0.00  0.00    +0.000 A 
ATOM     17  C   UNL     1       1.171   2.086   0.002  0.00  0.00    +0.002 A 
ATOM     18  C   UNL     1      -0.017   1.378   0.010  0.00  0.00    -0.064 A 
ATOM     19  C   UNL     1       0.002  -0.004   0.002  0.00  0.00    +0.005 A 
ENDBRANCH  12  18
ENDBRANCH  10  12
BRANCH   6  20
ATOM     20  C   UNL     1      -4.426   7.078   0.647  0.00  0.00    +0.142 C 
BRANCH  20  21
ATOM     21  N   UNL     1      -5.474   7.856   1.313  0.00  0.00    -0.299 N 
ATOM     22  C   UNL     1      -6.662   8.044   0.705  0.00  0.00    +0.280 C 
ATOM     23  O   UNL     1      -6.864   7.568  -0.396  0.00  0.00    -0.267 OA
ATOM     24  H   UNL     1      -5.313   8.235   2.191  0.00  0.00    +0.150 HD
BRANCH  22  25
ATOM     25  C   UNL     1      -7.711   8.822   1.372  0.00  0.00    +0.190 A 
ATOM     26  C   UNL     1      -8.952   9.092   0.869  0.00  0.00    +0.055 A 
ATOM     27  C   UNL     1      -9.622   9.858   1.836  0.00  0.00    +0.048 A 
ATOM     28  C   UNL     1      -8.768  10.027   2.870  0.00  0.00    +0.131 A 
ATOM     29  O   UNL     1      -7.618   9.402   2.586  0.00  0.00    -0.453 OA
BRANCH  28  30
ATOM     30  C   UNL     1      -9.062  10.793   4.134  0.00  0.00    +0.233 C 
BRANCH  30  31
ATOM     31  O   UNL     1      -9.625   9.910   5.106  0.00  0.00    -0.375 OA
ATOM     32  C   UNL     1      -9.942  10.540   6.349  0.00  0.00    +0.194 C 
ENDBRANCH  30  31
ENDBRANCH  28  30
ENDBRANCH  22  25
ENDBRANCH  20  21
BRANCH  20  33
ATOM     33  C   UNL     1      -3.635   7.989  -0.293  0.00  0.00    +0.033 C 
BRANCH  33  34
ATOM     34  C   UNL     1      -4.550   8.480  -1.417  0.00  0.00    -0.015 C 
ATOM     35  C   UNL     1      -3.795   9.488  -2.286  0.00  0.00    +0.007 C 
ATOM     36  C   UNL     1      -4.985   7.291  -2.276  0.00  0.00    +0.007 C 
ENDBRANCH  33  34
ENDBRANCH  20  33
ENDBRANCH   6  20
TORSDOF 9
