REMARK  Name = ZINC36122563
REMARK  13 active torsions:
REMARK  status: ('A' for Active; 'I' for Inactive)
REMARK    1  A    between atoms: C_1  and  C_2
REMARK    2  A    between atoms: C_5  and  O_9
REMARK    3  A    between atoms: C_6  and  C_8
REMARK    4  A    between atoms: O_9  and  C_10
REMARK    5  A    between atoms: C_10  and  C_11
REMARK    6  A    between atoms: C_21  and  C_23
REMARK    7  A    between atoms: C_23  and  N_24
REMARK    8  A    between atoms: N_24  and  C_25
REMARK    9  A    between atoms: C_25  and  C_26
REMARK   10  A    between atoms: N_34  and  C_35
REMARK   11  A    between atoms: C_35  and  C_36
REMARK   12  A    between atoms: C_35  and  C_37
REMARK   13  A    between atoms: C_35  and  C_38
REMARK                            x       y       z     vdW  Elec       q    Type
REMARK                         _______ _______ _______ _____ _____    ______ ____
ROOT
ATOM      1  C   UNL     1       0.079  -6.289  -1.105  0.00  0.00    +0.144 C 
ATOM      2  C   UNL     1       1.255  -6.681  -0.212  0.00  0.00    -0.014 A 
ATOM      3  C   UNL     1       2.580  -6.662  -0.642  0.00  0.00    +0.013 A 
ATOM      4  C   UNL     1       3.572  -7.019   0.205  0.00  0.00    +0.046 A 
ATOM      5  S   UNL     1       2.662  -7.411   1.692  0.00  0.00    -0.101 S 
ATOM      6  C   UNL     1       1.035  -7.074   1.072  0.00  0.00    -0.004 A 
ATOM      7  C   UNL     1      -0.273  -7.195   1.784  0.00  0.00    +0.061 C 
ATOM      8  C   UNL     1      -1.339  -6.425   0.990  0.00  0.00    +0.114 C 
ATOM      9  N   UNL     1      -1.157  -6.723  -0.440  0.00  0.00    -0.289 N 
ATOM     10  C   UNL     1      -2.108  -7.385  -1.128  0.00  0.00    +0.234 C 
ATOM     11  O   UNL     1      -1.947  -7.626  -2.306  0.00  0.00    -0.274 OA
ENDROOT
BRANCH   1  12
ATOM     12  C   UNL     1       0.058  -4.771  -1.298  0.00  0.00    +0.256 C 
BRANCH  12  13
ATOM     13  O   UNL     1       0.057  -4.129  -0.021  0.00  0.00    -0.490 OA
BRANCH  13  18
ATOM     14  C   UNL     1      -0.018   1.503   0.010  0.00  0.00    +0.044 C 
ATOM     15  C   UNL     1       0.002  -0.004   0.002  0.00  0.00    -0.050 A 
ATOM     16  C   UNL     1       0.006  -0.688  -1.200  0.00  0.00    +0.007 A 
ATOM     17  C   UNL     1       0.024  -2.069  -1.210  0.00  0.00    +0.046 A 
ATOM     18  C   UNL     1       0.039  -2.770  -0.013  0.00  0.00    +0.124 A 
ATOM     19  C   UNL     1       0.036  -2.082   1.191  0.00  0.00    -0.009 A 
ATOM     20  C   UNL     1       0.023  -0.701   1.196  0.00  0.00    +0.010 A 
ATOM     21  C   UNL     1       0.052  -2.841   2.493  0.00  0.00    +0.047 C 
ENDBRANCH  13  18
ENDBRANCH  12  13
ENDBRANCH   1  12
BRANCH  10  22
ATOM     22  C   UNL     1      -3.371  -7.825  -0.435  0.00  0.00    +0.205 C 
BRANCH  22  23
ATOM     23  N   UNL     1      -4.237  -8.518  -1.392  0.00  0.00    -0.274 N 
ATOM     24  C   UNL     1      -5.141  -7.822  -2.109  0.00  0.00    +0.303 C 
ATOM     25  O   UNL     1      -5.238  -6.619  -1.962  0.00  0.00    -0.253 OA
ATOM     26  N   UNL     1      -5.938  -8.459  -2.990  0.00  0.00    -0.294 N 
ATOM     27  H   UNL     1      -5.861  -9.419  -3.107  0.00  0.00    +0.151 HD
BRANCH  26  28
ATOM     28  C   UNL     1      -6.921  -7.702  -3.769  0.00  0.00    +0.028 C 
ATOM     29  C   UNL     1      -6.200  -6.652  -4.616  0.00  0.00    +0.031 C 
ATOM     30  C   UNL     1      -7.689  -8.657  -4.685  0.00  0.00    +0.031 C 
ATOM     31  C   UNL     1      -7.900  -7.008  -2.820  0.00  0.00    +0.031 C 
ENDBRANCH  26  28
BRANCH  23  32
ATOM     32  C   UNL     1      -4.121  -9.967  -1.569  0.00  0.00    +0.141 C 
BRANCH  32  33
ATOM     33  C   UNL     1      -5.061 -10.678  -0.594  0.00  0.00    +0.136 C 
ATOM     34  C   UNL     1      -4.858 -12.205  -0.689  0.00  0.00    +0.035 C 
ATOM     35  C   UNL     1      -6.311 -12.739  -0.567  0.00  0.00    +0.031 C 
ATOM     36  C   UNL     1      -7.098 -11.619  -1.291  0.00  0.00    +0.160 C 
ATOM     37  O   UNL     1      -6.423 -10.398  -0.941  0.00  0.00    -0.375 OA
ENDBRANCH  32  33
ENDBRANCH  23  32
ENDBRANCH  22  23
ENDBRANCH  10  22
TORSDOF 8
