REMARK  Name = ZINC36648545
REMARK  5 active torsions:
REMARK  status: ('A' for Active; 'I' for Inactive)
REMARK    1  A    between atoms: C_4  and  C_7
REMARK    2  A    between atoms: C_7  and  N_8
REMARK    3  A    between atoms: N_16  and  C_17
REMARK    4  A    between atoms: C_17  and  C_19
REMARK    5  A    between atoms: C_21  and  C_29
REMARK                            x       y       z     vdW  Elec       q    Type
REMARK                         _______ _______ _______ _____ _____    ______ ____
ROOT
ATOM      1  N   UNL     1       4.150  -0.968   1.336  0.00  0.00    +0.386 N 
ATOM      2  C   UNL     1       5.495  -1.559   1.327  0.00  0.00    -0.072 C 
ATOM      3  C   UNL     1       6.091  -1.539   2.739  0.00  0.00    +0.035 C 
ATOM      4  C   UNL     1       5.082  -2.178   3.684  0.00  0.00    +0.024 A 
ATOM      5  C   UNL     1       3.802  -2.316   3.299  0.00  0.00    -0.004 A 
ATOM      6  S   UNL     1       3.029  -3.092   4.688  0.00  0.00    -0.059 S 
ATOM      7  C   UNL     1       4.379  -3.199   5.689  0.00  0.00    +0.164 A 
ATOM      8  N   UNL     1       5.368  -2.644   4.937  0.00  0.00    -0.339 N 
ATOM      9  N   UNL     1       4.460  -3.704   6.919  0.00  0.00    -0.152 NA
ATOM     10  C   UNL     1       3.211  -1.894   1.994  0.00  0.00    -0.033 C 
ATOM     11  H   UNL     1       6.270  -2.580   5.288  0.00  0.00    +0.167 HD
ATOM     12  H   UNL     1       4.170  -0.094   1.840  0.00  0.00    -0.081 HD
ENDROOT
BRANCH   9  13
ATOM     13  C   UNL     1       5.627  -3.703   7.566  0.00  0.00    +0.270 C 
ATOM     14  O   UNL     1       6.620  -3.239   7.031  0.00  0.00    -0.268 OA
BRANCH  13  15
ATOM     15  C   UNL     1       5.716  -4.264   8.934  0.00  0.00    +0.050 A 
ATOM     16  C   UNL     1       4.581  -4.686   9.608  0.00  0.00    +0.042 A 
ATOM     17  C   UNL     1       4.703  -5.213  10.903  0.00  0.00    +0.074 A 
ATOM     18  N   UNL     1       5.874  -5.319  11.499  0.00  0.00    -0.247 NA
ATOM     19  C   UNL     1       7.003  -4.931  10.902  0.00  0.00    +0.072 A 
ATOM     20  C   UNL     1       6.966  -4.392   9.592  0.00  0.00    +0.013 A 
ATOM     21  C   UNL     1       8.158  -3.993   8.972  0.00  0.00    +0.011 A 
ATOM     22  C   UNL     1       9.341  -4.131   9.633  0.00  0.00    +0.001 A 
ATOM     23  C   UNL     1       9.383  -4.665  10.920  0.00  0.00    +0.002 A 
ATOM     24  C   UNL     1       8.244  -5.052  11.556  0.00  0.00    +0.028 A 
BRANCH  17  25
ATOM     25  C   UNL     1       3.484  -5.661  11.618  0.00  0.00    +0.018 A 
ATOM     26  C   UNL     1       3.557  -6.088  12.948  0.00  0.00    +0.013 A 
ATOM     27  C   UNL     1       2.391  -6.497  13.571  0.00  0.00    +0.020 A 
ATOM     28  C   UNL     1       1.202  -6.470  12.866  0.00  0.00    +0.111 A 
ATOM     29  N   UNL     1       1.163  -6.061  11.612  0.00  0.00    -0.263 NA
ATOM     30  C   UNL     1       2.246  -5.659  10.979  0.00  0.00    +0.120 A 
ENDBRANCH  17  25
ENDBRANCH  13  15
ENDBRANCH   9  13
BRANCH   1  31
ATOM     31  C   UNL     1       3.713  -0.727  -0.046  0.00  0.00    -0.043 C 
BRANCH  31  35
ATOM     32  C   UNL     1      -0.043   1.306  -0.018  0.00  0.00    +0.000 A 
ATOM     33  C   UNL     1       1.134   2.030  -0.018  0.00  0.00    +0.000 A 
ATOM     34  C   UNL     1       2.350   1.372  -0.027  0.00  0.00    +0.002 A 
ATOM     35  C   UNL     1       2.388  -0.009  -0.035  0.00  0.00    -0.064 A 
ATOM     36  C   UNL     1       1.210  -0.733  -0.034  0.00  0.00    +0.002 A 
ATOM     37  C   UNL     1      -0.006  -0.075  -0.027  0.00  0.00    +0.000 A 
ENDBRANCH  31  35
ENDBRANCH   1  31
TORSDOF 5
