REMARK  Name = ZINC17758632
REMARK  10 active torsions:
REMARK  status: ('A' for Active; 'I' for Inactive)
REMARK    1  A    between atoms: C_1  and  C_2
REMARK    2  A    between atoms: C_2  and  C_4
REMARK    3  A    between atoms: C_2  and  S_17
REMARK    4  A    between atoms: N_6  and  C_7
REMARK    5  A    between atoms: C_10  and  S_13
REMARK    6  A    between atoms: S_13  and  N_16
REMARK    7  A    between atoms: S_17  and  C_18
REMARK    8  A    between atoms: C_21  and  C_29
REMARK    9  A    between atoms: N_22  and  C_23
REMARK   10  A    between atoms: C_29  and  C_30
REMARK                            x       y       z     vdW  Elec       q    Type
REMARK                         _______ _______ _______ _____ _____    ______ ____
ROOT
ATOM      1  C   UNL     1       3.190   4.323  -6.283  0.00  0.00    +0.029 C 
ATOM      2  C   UNL     1       3.616   5.753  -5.945  0.00  0.00    +0.137 C 
ENDROOT
BRANCH   2   3
ATOM      3  C   UNL     1       3.643   6.580  -7.205  0.00  0.00    +0.230 C 
ATOM      4  O   UNL     1       2.716   7.318  -7.466  0.00  0.00    -0.274 OA
ATOM      5  N   UNL     1       4.696   6.500  -8.041  0.00  0.00    -0.285 N 
ATOM      6  H   UNL     1       5.467   5.962  -7.801  0.00  0.00    +0.155 HD
BRANCH   5   7
ATOM      7  C   UNL     1       4.679   7.192  -9.257  0.00  0.00    +0.034 A 
ATOM      8  C   UNL     1       5.284   6.643 -10.380  0.00  0.00    +0.025 A 
ATOM      9  C   UNL     1       5.259   7.326 -11.580  0.00  0.00    +0.030 A 
ATOM     10  C   UNL     1       4.644   8.562 -11.661  0.00  0.00    +0.105 A 
ATOM     11  C   UNL     1       4.046   9.115 -10.543  0.00  0.00    +0.030 A 
ATOM     12  C   UNL     1       4.062   8.434  -9.342  0.00  0.00    +0.025 A 
BRANCH  10  13
ATOM     13  S   UNL     1       4.621   9.434 -13.192  0.00  0.00    +0.056 S 
ATOM     14  O   UNL     1       4.772   8.460 -14.216  0.00  0.00    -0.153 OA
ATOM     15  O   UNL     1       3.511  10.319 -13.139  0.00  0.00    -0.153 OA
BRANCH  13  16
ATOM     16  N   UNL     1       5.979  10.380 -13.236  0.00  0.00    -0.204 NA
ATOM     17  H   UNL     1       6.601  10.371 -12.492  0.00  0.00    +0.144 HD
ATOM     18  H   UNL     1       6.152  10.944 -14.006  0.00  0.00    +0.144 HD
ENDBRANCH  13  16
ENDBRANCH  10  13
ENDBRANCH   5   7
ENDBRANCH   2   3
BRANCH   2  19
ATOM     19  S   UNL     1       2.437   6.473  -4.776  0.00  0.00    -0.073 S 
BRANCH  19  20
ATOM     20  C   UNL     1       2.713   5.431  -3.382  0.00  0.00    +0.197 A 
ATOM     21  N   UNL     1       3.563   4.433  -3.309  0.00  0.00    -0.122 NA
ATOM     22  N   UNL     1       3.507   3.894  -2.144  0.00  0.00    -0.133 NA
ATOM     23  C   UNL     1       2.620   4.504  -1.410  0.00  0.00    +0.143 A 
ATOM     24  N   UNL     1       2.083   5.509  -2.170  0.00  0.00    -0.274 N 
BRANCH  24  25
ATOM     25  C   UNL     1       1.094   6.426  -1.786  0.00  0.00    +0.050 A 
ATOM     26  C   UNL     1      -0.190   5.985  -1.499  0.00  0.00    +0.026 A 
ATOM     27  C   UNL     1      -1.160   6.890  -1.116  0.00  0.00    +0.002 A 
ATOM     28  C   UNL     1      -0.857   8.236  -1.030  0.00  0.00    +0.000 A 
ATOM     29  C   UNL     1       0.420   8.680  -1.321  0.00  0.00    +0.002 A 
ATOM     30  C   UNL     1       1.397   7.779  -1.699  0.00  0.00    +0.026 A 
ENDBRANCH  24  25
BRANCH  23  31
ATOM     31  C   UNL     1       2.257   4.170   0.014  0.00  0.00    +0.119 C 
BRANCH  31  32
ATOM     32  C   UNL     1       1.130   3.170   0.024  0.00  0.00    -0.003 A 
ATOM     33  C   UNL     1       1.191   1.816   0.023  0.00  0.00    +0.011 A 
ATOM     34  C   UNL     1       0.014   1.092   0.034  0.00  0.00    +0.008 A 
ATOM     35  C   UNL     1      -1.167   1.757   0.039  0.00  0.00    +0.045 A 
ATOM     36  S   UNL     1      -0.631   3.460   0.041  0.00  0.00    -0.101 S 
ENDBRANCH  31  32
ENDBRANCH  23  31
ENDBRANCH  19  20
ENDBRANCH   2  19
TORSDOF 9
