REMARK  Name = ZINC66054914
REMARK  5 active torsions:
REMARK  status: ('A' for Active; 'I' for Inactive)
REMARK    1  A    between atoms: C_1  and  C_2
REMARK    2  A    between atoms: C_2  and  C_16
REMARK    3  A    between atoms: C_9  and  N_11
REMARK    4  A    between atoms: C_12  and  O_14
REMARK    5  A    between atoms: O_14  and  C_15
REMARK                            x       y       z     vdW  Elec       q    Type
REMARK                         _______ _______ _______ _____ _____    ______ ____
ROOT
ATOM      1  C   UNL     1      -0.019   1.526   0.010  0.00  0.00    +0.017 C 
ATOM      2  C   UNL     1       0.002  -0.004   0.002  0.00  0.00    +0.008 C 
ATOM      3  C   UNL     1       0.790  -0.523  -1.212  0.00  0.00    +0.128 C 
ATOM      4  N   UNL     1       1.909  -1.283  -0.648  0.00  0.00    -0.236 N 
ATOM      5  C   UNL     1       1.849  -1.258   0.750  0.00  0.00    +0.045 A 
ATOM      6  C   UNL     1       0.760  -0.528   1.201  0.00  0.00    -0.019 A 
ATOM      7  C   UNL     1       0.524  -0.382   2.555  0.00  0.00    +0.008 A 
ATOM      8  C   UNL     1       1.373  -0.964   3.476  0.00  0.00    +0.023 A 
ATOM      9  C   UNL     1       2.468  -1.698   3.037  0.00  0.00    +0.026 A 
ATOM     10  C   UNL     1       2.706  -1.845   1.680  0.00  0.00    +0.046 A 
ATOM     11  C   UNL     1       2.856  -1.914  -1.369  0.00  0.00    +0.407 C 
ATOM     12  O   UNL     1       2.820  -1.877  -2.583  0.00  0.00    -0.226 OA
ATOM     13  C   UNL     1      -1.425  -0.556  -0.010  0.00  0.00    +0.017 C 
ENDROOT
BRANCH   9  14
ATOM     14  N   UNL     1       3.330  -2.288   3.965  0.00  0.00    -0.358 N 
ATOM     15  H   UNL     1       3.164  -2.185   4.915  0.00  0.00    +0.142 HD
ATOM     16  H   UNL     1       4.095  -2.800   3.659  0.00  0.00    +0.142 HD
ENDBRANCH   9  14
BRANCH  11  17
ATOM     17  O   UNL     1       3.842  -2.586  -0.745  0.00  0.00    -0.453 OA
ATOM     18  C   UNL     1       4.812  -3.231  -1.573  0.00  0.00    +0.282 C 
ENDBRANCH  11  17
TORSDOF 2
