REMARK  Name = ZINC39029561
REMARK  11 active torsions:
REMARK  status: ('A' for Active; 'I' for Inactive)
REMARK    1  A    between atoms: C_1  and  C_2
REMARK    2  A    between atoms: C_4  and  C_35
REMARK    3  A    between atoms: C_5  and  O_34
REMARK    4  A    between atoms: C_6  and  C_8
REMARK    5  A    between atoms: C_11  and  C_13
REMARK    6  A    between atoms: N_15  and  C_16
REMARK    7  A    between atoms: C_18  and  C_27
REMARK    8  A    between atoms: N_29  and  C_30
REMARK    9  A    between atoms: C_30  and  C_31
REMARK   10  A    between atoms: C_31  and  O_32
REMARK   11  A    between atoms: O_32  and  C_33
REMARK                            x       y       z     vdW  Elec       q    Type
REMARK                         _______ _______ _______ _____ _____    ______ ____
ROOT
ATOM      1  C   UNL     1       0.075  -3.645   6.157  0.00  0.00    +0.261 C 
ATOM      2  O   UNL     1       0.058  -2.637   6.838  0.00  0.00    -0.269 OA
ATOM      3  N   UNL     1       0.098  -4.857   6.747  0.00  0.00    -0.297 N 
ATOM      4  H   UNL     1       0.112  -5.660   6.203  0.00  0.00    +0.150 HD
ENDROOT
BRANCH   3   5
ATOM      5  C   UNL     1       0.103  -4.961   8.208  0.00  0.00    +0.152 C 
ATOM      6  C   UNL     1      -0.808  -6.111   8.699  0.00  0.00    +0.132 C 
ATOM      7  C   UNL     1      -0.037  -7.396   8.870  0.00  0.00    -0.046 C 
ATOM      8  C   UNL     1       1.284  -7.312   8.969  0.00  0.00    -0.013 C 
ATOM      9  S   UNL     1       1.716  -5.591   8.836  0.00  0.00    -0.106 S 
ATOM     10  C   UNL     1       2.251  -8.448   9.156  0.00  0.00    +0.042 C 
ATOM     11  C   UNL     1       1.469  -9.697   9.584  0.00  0.00    +0.005 C 
ATOM     12  C   UNL     1       0.265  -9.858   8.651  0.00  0.00    +0.005 C 
ATOM     13  C   UNL     1      -0.747  -8.747   8.929  0.00  0.00    +0.032 C 
BRANCH   6  14
ATOM     14  C   UNL     1      -1.417  -5.726  10.022  0.00  0.00    +0.223 C 
ATOM     15  O   UNL     1      -1.188  -6.389  11.011  0.00  0.00    -0.275 OA
ATOM     16  N   UNL     1      -2.216  -4.644  10.106  0.00  0.00    -0.313 N 
ATOM     17  H   UNL     1      -2.400  -4.113   9.315  0.00  0.00    +0.149 HD
BRANCH  16  18
ATOM     18  C   UNL     1      -2.809  -4.269  11.393  0.00  0.00    +0.132 C 
BRANCH  18  19
ATOM     19  C   UNL     1      -3.666  -3.015  11.213  0.00  0.00    +0.178 C 
BRANCH  19  20
ATOM     20  O   UNL     1      -4.773  -3.312  10.360  0.00  0.00    -0.381 OA
ATOM     21  C   UNL     1      -5.641  -2.202  10.126  0.00  0.00    +0.194 C 
ENDBRANCH  19  20
ENDBRANCH  18  19
ENDBRANCH  16  18
ENDBRANCH   6  14
ENDBRANCH   3   5
BRANCH   1  25
ATOM     22  C   UNL     1       0.052  -2.840   2.447  0.00  0.00    +0.080 C 
ATOM     23  N   UNL     1       0.076  -4.144   2.609  0.00  0.00    -0.153 NA
ATOM     24  N   UNL     1       0.086  -4.520   3.827  0.00  0.00    -0.148 NA
ATOM     25  C   UNL     1       0.070  -3.542   4.695  0.00  0.00    +0.131 C 
ATOM     26  C   UNL     1       0.052  -2.273   3.857  0.00  0.00    +0.120 C 
BRANCH  22  32
ATOM     27  C   UNL     1      -0.018   1.503   0.010  0.00  0.00    +0.044 C 
ATOM     28  C   UNL     1       0.002  -0.004   0.002  0.00  0.00    -0.049 A 
ATOM     29  C   UNL     1       0.006  -0.687  -1.205  0.00  0.00    +0.010 A 
ATOM     30  C   UNL     1       0.024  -2.068  -1.229  0.00  0.00    -0.008 A 
ATOM     31  C   UNL     1       0.040  -2.784  -0.042  0.00  0.00    +0.129 A 
ATOM     32  C   UNL     1       0.036  -2.097   1.185  0.00  0.00    +0.040 A 
ATOM     33  C   UNL     1       0.023  -0.695   1.192  0.00  0.00    +0.016 A 
ATOM     34  C   UNL     1       0.028  -2.797  -2.547  0.00  0.00    +0.047 C 
BRANCH  31  35
ATOM     35  O   UNL     1       0.057  -4.140  -0.064  0.00  0.00    -0.506 OA
ATOM     36  H   UNL     1       0.945  -4.522  -0.075  0.00  0.00    +0.292 HD
ENDBRANCH  31  35
ENDBRANCH  22  32
ENDBRANCH   1  25
TORSDOF 8
