REMARK  Name = ZINC12403865
REMARK  6 active torsions:
REMARK  status: ('A' for Active; 'I' for Inactive)
REMARK    1  A    between atoms: C_1  and  C_2
REMARK    2  A    between atoms: C_5  and  C_20
REMARK    3  A    between atoms: N_9  and  N_10
REMARK    4  A    between atoms: C_11  and  C_13
REMARK    5  A    between atoms: C_16  and  O_19
REMARK    6  A    between atoms: C_20  and  C_22
REMARK                            x       y       z     vdW  Elec       q    Type
REMARK                         _______ _______ _______ _____ _____    ______ ____
ROOT
ATOM      1  N   UNL     1      -0.166  -0.859   3.605  0.00  0.00    -0.203 N 
ATOM      2  C   UNL     1      -0.391  -0.232   4.776  0.00  0.00    +0.263 C 
ATOM      3  O   UNL     1      -0.617   0.963   4.792  0.00  0.00    -0.268 OA
ATOM      4  H   UNL     1       0.014  -1.812   3.592  0.00  0.00    +0.178 HD
ENDROOT
BRANCH   1  12
ATOM      5  C   UNL     1      -0.018   1.503   0.010  0.00  0.00    +0.045 C 
ATOM      6  C   UNL     1       0.002  -0.004   0.002  0.00  0.00    -0.032 C 
ATOM      7  C   UNL     1       0.005  -0.654  -1.152  0.00  0.00    -0.021 C 
ATOM      8  C   UNL     1       0.035  -2.150  -1.252  0.00  0.00    +0.035 C 
ATOM      9  C   UNL     1      -0.474  -2.800   0.033  0.00  0.00    +0.024 C 
ATOM     10  C   UNL     1       0.303  -2.227   1.226  0.00  0.00    +0.065 C 
ATOM     11  C   UNL     1       0.024  -0.740   1.276  0.00  0.00    +0.062 C 
ATOM     12  N   UNL     1      -0.193  -0.135   2.406  0.00  0.00    -0.184 NA
BRANCH   9  13
ATOM     13  C   UNL     1      -0.264  -4.291  -0.039  0.00  0.00    -0.076 C 
ATOM     14  C   UNL     1      -1.291  -5.101   0.040  0.00  0.00    +0.007 C 
ATOM     15  C   UNL     1       1.126  -4.849  -0.201  0.00  0.00    +0.039 C 
ENDBRANCH   9  13
ENDBRANCH   1  12
BRANCH   2  16
ATOM     16  C   UNL     1      -0.363  -0.994   6.039  0.00  0.00    +0.039 A 
ATOM     17  C   UNL     1      -0.097  -2.366   6.023  0.00  0.00    +0.016 A 
ATOM     18  C   UNL     1      -0.071  -3.075   7.203  0.00  0.00    +0.046 A 
ATOM     19  C   UNL     1      -0.309  -2.427   8.410  0.00  0.00    +0.117 A 
ATOM     20  C   UNL     1      -0.574  -1.062   8.430  0.00  0.00    +0.046 A 
ATOM     21  C   UNL     1      -0.596  -0.346   7.255  0.00  0.00    +0.016 A 
BRANCH  19  22
ATOM     22  O   UNL     1      -0.284  -3.128   9.571  0.00  0.00    -0.507 OA
ATOM     23  H   UNL     1       0.588  -3.166   9.989  0.00  0.00    +0.292 HD
ENDBRANCH  19  22
ENDBRANCH   2  16
TORSDOF 4
