REMARK  Name = ZINC03766588
REMARK  7 active torsions:
REMARK  status: ('A' for Active; 'I' for Inactive)
REMARK    1  A    between atoms: C_4  and  C_7
REMARK    2  A    between atoms: C_7  and  N_8
REMARK    3  A    between atoms: N_8  and  C_9
REMARK    4  A    between atoms: C_9  and  C_10
REMARK    5  A    between atoms: C_16  and  C_18
REMARK    6  A    between atoms: C_23  and  C_35
REMARK    7  A    between atoms: C_26  and  C_29
REMARK                            x       y       z     vdW  Elec       q    Type
REMARK                         _______ _______ _______ _____ _____    ______ ____
ROOT
ATOM      1  C   UNL     1      -4.317   1.048  -1.401  0.00  0.00    +0.167 A 
ATOM      2  C   UNL     1      -4.040   0.827  -0.034  0.00  0.00    +0.112 A 
ATOM      3  C   UNL     1      -2.708   0.994   0.149  0.00  0.00    +0.137 A 
ATOM      4  N   UNL     1      -2.159   1.308  -1.058  0.00  0.00    -0.237 N 
ATOM      5  N   UNL     1      -3.180   1.337  -2.009  0.00  0.00    -0.163 NA
ATOM      6  C   UNL     1      -0.730   1.565  -1.271  0.00  0.00    +0.215 C 
ATOM      7  C   UNL     1       0.029   1.045  -0.042  0.00  0.00    +0.063 C 
ATOM      8  C   UNL     1      -0.680   1.532   1.226  0.00  0.00    +0.104 C 
ATOM      9  N   UNL     1      -1.993   0.874   1.340  0.00  0.00    -0.321 N 
ATOM     10 CL   UNL     1      -5.198   0.415   1.192  0.00  0.00    -0.078 Cl
ATOM     11  H   UNL     1      -2.518   1.248   2.116  0.00  0.00    +0.148 HD
ENDROOT
BRANCH   8  12
ATOM     12  C   UNL     1       0.160   1.198   2.431  0.00  0.00    -0.027 A 
ATOM     13  C   UNL     1       0.136  -0.081   2.957  0.00  0.00    +0.005 A 
ATOM     14  C   UNL     1       0.910  -0.389   4.060  0.00  0.00    +0.000 A 
ATOM     15  C   UNL     1       1.702   0.584   4.642  0.00  0.00    +0.000 A 
ATOM     16  C   UNL     1       1.722   1.863   4.119  0.00  0.00    +0.000 A 
ATOM     17  C   UNL     1       0.951   2.170   3.014  0.00  0.00    +0.005 A 
ENDBRANCH   8  12
BRANCH   6  18
ATOM     18  C   UNL     1      -0.252   0.829  -2.525  0.00  0.00    +0.412 C 
ATOM     19  F   UNL     1      -0.491  -0.542  -2.379  0.00  0.00    -0.168 F 
ATOM     20  F   UNL     1      -0.947   1.308  -3.640  0.00  0.00    -0.168 F 
ATOM     21  F   UNL     1       1.118   1.047  -2.700  0.00  0.00    -0.168 F 
ENDBRANCH   6  18
BRANCH   1  23
ATOM     22  N   UNL     1      -5.793   1.312  -3.334  0.00  0.00    -0.288 N 
ATOM     23  C   UNL     1      -5.646   0.970  -2.039  0.00  0.00    +0.269 C 
ATOM     24  O   UNL     1      -6.608   0.596  -1.397  0.00  0.00    -0.268 OA
BRANCH  22  25
ATOM     25  C   UNL     1      -7.128   1.353  -3.935  0.00  0.00    +0.143 C 
BRANCH  25  29
ATOM     26  C   UNL     1      -8.787   5.260  -3.455  0.00  0.00    +0.000 A 
ATOM     27  C   UNL     1      -8.039   4.960  -4.577  0.00  0.00    +0.000 A 
ATOM     28  C   UNL     1      -7.502   3.696  -4.733  0.00  0.00    +0.005 A 
ATOM     29  C   UNL     1      -7.713   2.732  -3.765  0.00  0.00    -0.030 A 
ATOM     30  C   UNL     1      -8.466   3.030  -2.645  0.00  0.00    +0.005 A 
ATOM     31  C   UNL     1      -8.998   4.296  -2.487  0.00  0.00    +0.000 A 
ENDBRANCH  25  29
ENDBRANCH  22  25
BRANCH  22  32
ATOM     32  C   UNL     1      -4.616   1.644  -4.142  0.00  0.00    +0.143 C 
BRANCH  32  33
ATOM     33  C   UNL     1      -4.141   0.411  -4.867  0.00  0.00    -0.030 A 
ATOM     34  C   UNL     1      -3.142  -0.371  -4.319  0.00  0.00    +0.005 A 
ATOM     35  C   UNL     1      -2.710  -1.504  -4.982  0.00  0.00    +0.000 A 
ATOM     36  C   UNL     1      -3.269  -1.849  -6.199  0.00  0.00    +0.000 A 
ATOM     37  C   UNL     1      -4.265  -1.064  -6.749  0.00  0.00    +0.000 A 
ATOM     38  C   UNL     1      -4.701   0.066  -6.083  0.00  0.00    +0.005 A 
ENDBRANCH  32  33
ENDBRANCH  22  32
ENDBRANCH   1  23
TORSDOF 7
