REMARK  Name = ZINC09360854
REMARK  5 active torsions:
REMARK  status: ('A' for Active; 'I' for Inactive)
REMARK    1  A    between atoms: C_1  and  C_2
REMARK    2  A    between atoms: C_2  and  C_3
REMARK    3  A    between atoms: C_2  and  N_64
REMARK    4  A    between atoms: C_13  and  C_15
REMARK    5  A    between atoms: C_18  and  C_21
REMARK                            x       y       z     vdW  Elec       q    Type
REMARK                         _______ _______ _______ _____ _____    ______ ____
ROOT
ATOM      1  C   UNL     1      -2.490   5.590   0.707  0.00  0.00    -0.073 C 
ATOM      2  C   UNL     1      -1.940   6.280  -0.544  0.00  0.00    +0.052 C 
ATOM      3  C   UNL     1      -0.526   6.785  -0.262  0.00  0.00    +0.189 C 
ATOM      4  C   UNL     1      -0.544   7.726   0.941  0.00  0.00    +0.052 C 
ATOM      5  C   UNL     1      -1.137   6.993   2.148  0.00  0.00    -0.073 C 
ATOM      6  N   UNL     1       0.366   5.652   0.001  0.00  0.00    -0.207 N 
ATOM      7  C   UNL     1       1.819   5.861   0.193  0.00  0.00    +0.136 C 
ATOM      8  C   UNL     1       2.393   4.450   0.010  0.00  0.00    +0.086 C 
ATOM      9  C   UNL     1       1.167   3.561   0.011  0.00  0.00    +0.068 C 
ATOM     10  N   UNL     1       0.101   4.294   0.025  0.00  0.00    -0.185 NA
ATOM     11  C   UNL     1       2.259   6.818  -0.884  0.00  0.00    +0.018 A 
ATOM     12  C   UNL     1       3.605   6.932  -1.175  0.00  0.00    +0.024 A 
ATOM     13  C   UNL     1       4.037   7.815  -2.148  0.00  0.00    +0.018 A 
ATOM     14  C   UNL     1       3.114   8.589  -2.829  0.00  0.00    +0.019 A 
ATOM     15  C   UNL     1       1.770   8.473  -2.545  0.00  0.00    +0.047 A 
ATOM     16  C   UNL     1       1.325   7.577  -1.573  0.00  0.00    +0.129 A 
ATOM     17  O   UNL     1      -0.016   7.482  -1.380  0.00  0.00    -0.467 OA
ATOM     18 BR   UNL     1       5.879   7.964  -2.546  0.00  0.00    -0.050 Br
ATOM     19  N   UNL     1      -2.513   6.564   1.819  0.00  0.00    +0.381 N 
ATOM     20  H   UNL     1      -3.058   7.386   1.531  0.00  0.00    -0.081 HD
ENDROOT
BRANCH   9  21
ATOM     21  C   UNL     1       1.185   2.087   0.002  0.00  0.00    -0.002 A 
ATOM     22  C   UNL     1      -0.017   1.372   0.010  0.00  0.00    +0.010 A 
ATOM     23  C   UNL     1       0.002  -0.004   0.002  0.00  0.00    +0.009 A 
ATOM     24  C   UNL     1       1.219  -0.686  -0.013  0.00  0.00    -0.018 A 
ATOM     25  C   UNL     1       2.419   0.026  -0.021  0.00  0.00    +0.009 A 
ATOM     26  C   UNL     1       2.404   1.402  -0.013  0.00  0.00    +0.010 A 
BRANCH  24  27
ATOM     27  C   UNL     1       1.238  -2.168  -0.021  0.00  0.00    -0.018 A 
ATOM     28  C   UNL     1       0.041  -2.883  -0.007  0.00  0.00    +0.008 A 
ATOM     29  C   UNL     1       0.064  -4.263  -0.019  0.00  0.00    +0.001 A 
ATOM     30  C   UNL     1       1.272  -4.937  -0.035  0.00  0.00    +0.000 A 
ATOM     31  C   UNL     1       2.462  -4.233  -0.043  0.00  0.00    +0.001 A 
ATOM     32  C   UNL     1       2.452  -2.853  -0.036  0.00  0.00    +0.008 A 
ENDBRANCH  24  27
ENDBRANCH   9  21
BRANCH  19  34
ATOM     33  C   UNL     1      -3.026   6.926   4.186  0.00  0.00    -0.014 C 
ATOM     34  C   UNL     1      -3.150   5.959   3.007  0.00  0.00    -0.075 C 
ATOM     35  C   UNL     1      -4.629   5.713   2.702  0.00  0.00    -0.014 C 
ENDBRANCH  19  34
TORSDOF 3
