REMARK  Name = ZINC09186783
REMARK  13 active torsions:
REMARK  status: ('A' for Active; 'I' for Inactive)
REMARK    1  A    between atoms: C_1  and  C_2
REMARK    2  A    between atoms: C_7  and  C_8
REMARK    3  A    between atoms: C_8  and  C_10
REMARK    4  A    between atoms: C_8  and  O_27
REMARK    5  A    between atoms: C_10  and  C_11
REMARK    6  A    between atoms: C_18  and  O_19
REMARK    7  A    between atoms: O_19  and  C_20
REMARK    8  A    between atoms: C_26  and  N_73
REMARK    9  A    between atoms: C_28  and  C_35
REMARK   10  A    between atoms: C_28  and  C_36
REMARK   11  A    between atoms: C_29  and  C_34
REMARK   12  A    between atoms: C_31  and  C_32
REMARK   13  A    between atoms: C_31  and  C_33
REMARK                            x       y       z     vdW  Elec       q    Type
REMARK                         _______ _______ _______ _____ _____    ______ ____
ROOT
ATOM      1  C   UNL     1      -4.399   4.786   0.993  0.00  0.00    +0.144 C 
ENDROOT
BRANCH   1   8
ATOM      2  C   UNL     1      -4.134   6.070   3.569  0.00  0.00    +0.044 C 
ATOM      3  C   UNL     1      -5.252   5.089   3.326  0.00  0.00    -0.045 A 
ATOM      4  C   UNL     1      -6.155   4.807   4.333  0.00  0.00    +0.008 A 
ATOM      5  C   UNL     1      -7.180   3.902   4.117  0.00  0.00    -0.037 A 
ATOM      6  C   UNL     1      -7.303   3.283   2.887  0.00  0.00    -0.037 A 
ATOM      7  C   UNL     1      -6.401   3.572   1.877  0.00  0.00    +0.011 A 
ATOM      8  C   UNL     1      -5.379   4.475   2.095  0.00  0.00    -0.016 A 
ATOM      9  C   UNL     1      -8.492   2.346   2.902  0.00  0.00    -0.006 C 
ATOM     10  C   UNL     1      -8.816   2.129   4.395  0.00  0.00    +0.006 C 
ATOM     11  C   UNL     1      -8.277   3.422   5.043  0.00  0.00    -0.006 C 
ATOM     12  C   UNL     1      -7.708   3.124   6.431  0.00  0.00    +0.016 C 
ATOM     13  C   UNL     1      -9.387   4.471   5.137  0.00  0.00    +0.016 C 
ATOM     14  C   UNL     1     -10.324   1.998   4.616  0.00  0.00    +0.009 C 
ATOM     15  C   UNL     1      -9.683   2.988   2.188  0.00  0.00    +0.016 C 
ATOM     16  C   UNL     1      -8.128   1.016   2.239  0.00  0.00    +0.016 C 
ENDBRANCH   1   8
BRANCH   1  17
ATOM     17  O   UNL     1      -5.047   4.648  -0.274  0.00  0.00    -0.387 OA
ATOM     18  H   UNL     1      -5.395   3.762  -0.443  0.00  0.00    +0.210 HD
ENDBRANCH   1  17
BRANCH   1  19
ATOM     19  C   UNL     1      -3.219   3.816   1.070  0.00  0.00    +0.025 C 
BRANCH  19  20
ATOM     20  C   UNL     1      -2.230   4.125  -0.055  0.00  0.00    -0.031 C 
ATOM     21  C   UNL     1      -1.715   5.531   0.108  0.00  0.00    -0.012 A 
ATOM     22  C   UNL     1      -1.566   6.381  -0.968  0.00  0.00    -0.040 A 
ATOM     23  C   UNL     1      -1.083   7.666  -0.775  0.00  0.00    +0.053 A 
ATOM     24  C   UNL     1      -0.749   8.108   0.495  0.00  0.00    +0.170 A 
ATOM     25  C   UNL     1      -0.900   7.255   1.583  0.00  0.00    +0.208 A 
ATOM     26  C   UNL     1      -1.388   5.971   1.386  0.00  0.00    +0.167 A 
ATOM     27  O   UNL     1      -0.509   7.915   2.713  0.00  0.00    -0.449 OA
ATOM     28  C   UNL     1      -0.504   9.311   2.360  0.00  0.00    +0.467 C 
ATOM     29  O   UNL     1      -0.263   9.303   0.941  0.00  0.00    -0.452 OA
ATOM     30  C   UNL     1      -1.919   5.951  -2.369  0.00  0.00    +0.017 C 
ATOM     31  C   UNL     1      -2.026   4.428  -2.438  0.00  0.00    -0.074 C 
ATOM     32  C   UNL     1      -3.327   2.581  -1.560  0.00  0.00    -0.095 C 
ATOM     33  N   UNL     1      -2.921   3.989  -1.348  0.00  0.00    +0.383 N 
ATOM     34  H   UNL     1      -3.760   4.581  -1.344  0.00  0.00    -0.081 HD
BRANCH  26  35
ATOM     35  O   UNL     1      -1.543   5.136   2.449  0.00  0.00    -0.491 OA
ATOM     36  C   UNL     1      -0.392   4.400   2.869  0.00  0.00    +0.277 C 
ENDBRANCH  26  35
ENDBRANCH  19  20
ENDBRANCH   1  19
TORSDOF 5
