REMARK  Name = ZINC08990960
REMARK  18 active torsions:
REMARK  status: ('A' for Active; 'I' for Inactive)
REMARK    1  A    between atoms: C_1  and  C_2
REMARK    2  A    between atoms: C_2  and  C_3
REMARK    3  A    between atoms: C_2  and  C_4
REMARK    4  A    between atoms: C_4  and  N_69
REMARK    5  A    between atoms: C_5  and  C_6
REMARK    6  A    between atoms: C_5  and  N_69
REMARK    7  A    between atoms: C_7  and  O_29
REMARK    8  A    between atoms: C_14  and  C_15
REMARK    9  A    between atoms: C_18  and  O_25
REMARK   10  A    between atoms: C_19  and  O_23
REMARK   11  A    between atoms: C_20  and  O_21
REMARK   12  A    between atoms: O_21  and  C_22
REMARK   13  A    between atoms: O_23  and  C_24
REMARK   14  A    between atoms: O_25  and  C_26
REMARK   15  A    between atoms: C_30  and  C_31
REMARK   16  A    between atoms: C_30  and  N_69
REMARK   17  A    between atoms: C_31  and  C_32
REMARK   18  A    between atoms: C_31  and  C_33
REMARK                            x       y       z     vdW  Elec       q    Type
REMARK                         _______ _______ _______ _____ _____    ______ ____
ROOT
ATOM      1  C   UNL     1      -3.771  -2.965   0.791  0.00  0.00    +0.020 A 
ATOM      2  C   UNL     1      -4.511  -4.134   0.858  0.00  0.00    +0.122 A 
ATOM      3  C   UNL     1      -3.915  -5.327   1.255  0.00  0.00    +0.046 A 
ATOM      4  C   UNL     1      -2.589  -5.356   1.585  0.00  0.00    +0.019 A 
ATOM      5  C   UNL     1      -1.831  -4.187   1.521  0.00  0.00    +0.068 A 
ATOM      6  C   UNL     1      -2.421  -2.977   1.122  0.00  0.00    +0.144 A 
ATOM      7  O   UNL     1      -1.498  -1.991   1.145  0.00  0.00    -0.451 OA
ATOM      8  C   UNL     1      -0.283  -2.449   1.531  0.00  0.00    +0.176 C 
ATOM      9  C   UNL     1       0.852  -1.710   1.652  0.00  0.00    +0.062 C 
ATOM     10  C   UNL     1      -0.416  -3.885   1.802  0.00  0.00    +0.231 C 
ATOM     11  O   UNL     1       0.451  -4.657   2.177  0.00  0.00    -0.283 OA
ENDROOT
BRANCH   9  12
ATOM     12  C   UNL     1       0.805  -0.259   1.455  0.00  0.00    +0.024 A 
ATOM     13  C   UNL     1      -0.367   0.352   0.988  0.00  0.00    +0.015 A 
ATOM     14  C   UNL     1      -0.407   1.714   0.804  0.00  0.00    +0.050 A 
ATOM     15  C   UNL     1       0.713   2.493   1.080  0.00  0.00    +0.165 A 
ATOM     16  C   UNL     1       1.883   1.901   1.544  0.00  0.00    +0.204 A 
ATOM     17  C   UNL     1       1.937   0.528   1.734  0.00  0.00    +0.172 A 
BRANCH  17  18
ATOM     18  O   UNL     1       3.077  -0.054   2.188  0.00  0.00    -0.491 OA
ATOM     19  C   UNL     1       4.069  -0.383   1.213  0.00  0.00    +0.277 C 
ENDBRANCH  17  18
BRANCH  16  20
ATOM     20  O   UNL     1       2.974   2.668   1.813  0.00  0.00    -0.488 OA
ATOM     21  C   UNL     1       3.149   3.096   3.165  0.00  0.00    +0.277 C 
ENDBRANCH  16  20
BRANCH  15  22
ATOM     22  O   UNL     1       0.663   3.838   0.895  0.00  0.00    -0.491 OA
ATOM     23  C   UNL     1      -0.568   4.382   0.416  0.00  0.00    +0.277 C 
ENDBRANCH  15  22
ENDBRANCH   9  12
BRANCH   2  24
ATOM     24  O   UNL     1      -5.829  -4.115   0.534  0.00  0.00    -0.506 OA
ATOM     25  H   UNL     1      -6.006  -4.287  -0.401  0.00  0.00    +0.292 HD
ENDBRANCH   2  24
BRANCH   1  26
ATOM     26  C   UNL     1      -4.429  -1.680   0.359  0.00  0.00    -0.036 C 
BRANCH  26  27
ATOM     27  N   UNL     1      -4.584  -1.697  -1.111  0.00  0.00    +0.383 N 
ATOM     28  H   UNL     1      -4.939  -2.616  -1.398  0.00  0.00    -0.081 HD
BRANCH  27  29
ATOM     29  C   UNL     1      -5.547  -0.657  -1.530  0.00  0.00    -0.075 C 
BRANCH  29  31
ATOM     30  C   UNL     1      -6.765  -2.266  -3.003  0.00  0.00    +0.005 C 
ATOM     31  C   UNL     1      -5.990  -0.947  -2.965  0.00  0.00    -0.034 C 
ATOM     32  C   UNL     1      -6.889   0.187  -3.461  0.00  0.00    +0.005 C 
ENDBRANCH  29  31
ENDBRANCH  27  29
BRANCH  27  33
ATOM     33  C   UNL     1      -3.276  -1.464  -1.759  0.00  0.00    -0.075 C 
BRANCH  33  34
ATOM     34  C   UNL     1      -2.570  -2.810  -1.929  0.00  0.00    -0.034 C 
ATOM     35  C   UNL     1      -3.370  -3.687  -2.894  0.00  0.00    +0.005 C 
ATOM     36  C   UNL     1      -1.166  -2.582  -2.493  0.00  0.00    +0.005 C 
ENDBRANCH  33  34
ENDBRANCH  27  33
ENDBRANCH  26  27
ENDBRANCH   1  26
TORSDOF 11
