REMARK  Name = ZINC08791654
REMARK  8 active torsions:
REMARK  status: ('A' for Active; 'I' for Inactive)
REMARK    1  A    between atoms: C_1  and  C_2
REMARK    2  A    between atoms: C_7  and  C_8
REMARK    3  A    between atoms: C_17  and  C_19
REMARK    4  A    between atoms: C_19  and  C_20
REMARK    5  A    between atoms: N_32  and  C_35
REMARK    6  A    between atoms: C_35  and  C_36
REMARK    7  A    between atoms: C_36  and  O_37
REMARK    8  A    between atoms: O_37  and  C_38
REMARK                            x       y       z     vdW  Elec       q    Type
REMARK                         _______ _______ _______ _____ _____    ______ ____
ROOT
ATOM      1  C   UNL     1      -6.248  -1.904   1.606  0.00  0.00    +0.044 C 
ATOM      2  C   UNL     1      -5.174  -0.855   1.483  0.00  0.00    -0.046 A 
ATOM      3  C   UNL     1      -5.346   0.209   0.616  0.00  0.00    +0.004 A 
ATOM      4  C   UNL     1      -4.360   1.172   0.504  0.00  0.00    +0.005 A 
ATOM      5  C   UNL     1      -3.209   1.072   1.254  0.00  0.00    -0.027 A 
ATOM      6  C   UNL     1      -3.024   0.005   2.128  0.00  0.00    +0.039 A 
ATOM      7  C   UNL     1      -4.023  -0.961   2.236  0.00  0.00    -0.026 A 
ATOM      8  C   UNL     1      -3.845  -2.124   3.178  0.00  0.00    +0.046 C 
ATOM      9  N   UNL     1      -1.789   0.116   2.771  0.00  0.00    -0.286 N 
ATOM     10  C   UNL     1      -1.110   1.212   2.381  0.00  0.00    +0.211 C 
ATOM     11  O   UNL     1      -0.015   1.560   2.767  0.00  0.00    -0.277 OA
ATOM     12  C   UNL     1      -1.974   1.919   1.373  0.00  0.00    +0.050 C 
ATOM     13  C   UNL     1      -1.260   2.065   0.019  0.00  0.00    +0.088 C 
ATOM     14  C   UNL     1      -0.698   3.514   0.032  0.00  0.00    +0.073 C 
ATOM     15  C   UNL     1      -1.113   4.090   1.403  0.00  0.00    -0.053 C 
ATOM     16  C   UNL     1       0.799   3.307   0.014  0.00  0.00    +0.224 C 
ATOM     17  O   UNL     1       1.629   4.191   0.010  0.00  0.00    -0.275 OA
ATOM     18  N   UNL     1       1.067   1.996   0.003  0.00  0.00    -0.240 N 
ATOM     19  C   UNL     1      -0.014   1.208   0.009  0.00  0.00    +0.225 C 
ATOM     20  O   UNL     1       0.002  -0.004   0.002  0.00  0.00    -0.275 OA
ATOM     21  H   UNL     1      -1.459  -0.522   3.423  0.00  0.00    +0.155 HD
ATOM     22  N   UNL     1      -2.268   3.278   1.793  0.00  0.00    +0.394 N 
ATOM     23  H   UNL     1      -2.400   3.314   2.811  0.00  0.00    -0.083 HD
ATOM     24  H   UNL     1      -3.116   3.619   1.326  0.00  0.00    -0.083 HD
ENDROOT
BRANCH  15  25
ATOM     25  C   UNL     1      -1.488   5.568   1.268  0.00  0.00    +0.022 C 
BRANCH  25  26
ATOM     26  C   UNL     1      -1.770   6.141   2.632  0.00  0.00    -0.024 A 
ATOM     27  C   UNL     1      -2.974   6.263   3.214  0.00  0.00    +0.087 A 
ATOM     28  N   UNL     1      -2.839   6.825   4.454  0.00  0.00    -0.360 N 
ATOM     29  H   UNL     1      -3.569   7.011   5.064  0.00  0.00    +0.165 HD
ATOM     30  C   UNL     1      -1.512   7.095   4.703  0.00  0.00    +0.047 A 
ATOM     31  C   UNL     1      -0.784   6.678   3.574  0.00  0.00    +0.003 A 
ATOM     32  C   UNL     1       0.603   6.830   3.543  0.00  0.00    +0.010 A 
ATOM     33  C   UNL     1       1.248   7.384   4.613  0.00  0.00    +0.001 A 
ATOM     34  C   UNL     1       0.535   7.796   5.730  0.00  0.00    +0.002 A 
ATOM     35  C   UNL     1      -0.834   7.655   5.781  0.00  0.00    +0.026 A 
ENDBRANCH  25  26
ENDBRANCH  15  25
BRANCH  18  36
ATOM     36  C   UNL     1       2.433   1.466  -0.015  0.00  0.00    +0.144 C 
BRANCH  36  37
ATOM     37  C   UNL     1       2.893   1.292  -1.464  0.00  0.00    +0.179 C 
BRANCH  37  38
ATOM     38  O   UNL     1       2.975   2.571  -2.095  0.00  0.00    -0.381 OA
ATOM     39  C   UNL     1       3.399   2.521  -3.459  0.00  0.00    +0.194 C 
ENDBRANCH  37  38
ENDBRANCH  36  37
ENDBRANCH  18  36
TORSDOF 5
