REMARK  Name = ZINC35664168
REMARK  11 active torsions:
REMARK  status: ('A' for Active; 'I' for Inactive)
REMARK    1  A    between atoms: C_1  and  C_2
REMARK    2  A    between atoms: C_2  and  N_3
REMARK    3  A    between atoms: C_4  and  C_23
REMARK    4  A    between atoms: C_5  and  C_18
REMARK    5  A    between atoms: C_6  and  C_11
REMARK    6  A    between atoms: C_15  and  C_17
REMARK    7  A    between atoms: C_18  and  O_20
REMARK    8  A    between atoms: O_20  and  C_21
REMARK    9  A    between atoms: C_21  and  C_22
REMARK   10  A    between atoms: C_23  and  N_24
REMARK   11  A    between atoms: C_31  and  C_33
REMARK                            x       y       z     vdW  Elec       q    Type
REMARK                         _______ _______ _______ _____ _____    ______ ____
ROOT
ATOM      1  N   UNL     1      -1.699  -0.607  -0.119  0.00  0.00    -0.261 N 
ATOM      2  C   UNL     1      -2.057  -1.083   1.110  0.00  0.00    +0.010 C 
ATOM      3  C   UNL     1      -3.168  -1.833   1.270  0.00  0.00    +0.076 C 
ATOM      4  C   UNL     1      -4.004  -2.128   0.041  0.00  0.00    +0.143 C 
ATOM      5  N   UNL     1      -3.532  -1.567  -1.236  0.00  0.00    -0.288 N 
ATOM      6  C   UNL     1      -2.403  -0.832  -1.236  0.00  0.00    +0.307 C 
ATOM      7  O   UNL     1      -2.007  -0.362  -2.285  0.00  0.00    -0.252 OA
ATOM      8  H   UNL     1      -4.024  -1.721  -2.058  0.00  0.00    +0.151 HD
ENDROOT
BRANCH   4   9
ATOM      9  C   UNL     1      -4.092  -3.624  -0.113  0.00  0.00    -0.022 A 
ATOM     10  C   UNL     1      -3.040  -4.325  -0.673  0.00  0.00    +0.006 A 
ATOM     11  C   UNL     1      -3.121  -5.697  -0.814  0.00  0.00    +0.001 A 
ATOM     12  C   UNL     1      -4.254  -6.370  -0.395  0.00  0.00    +0.003 A 
ATOM     13  C   UNL     1      -5.306  -5.669   0.166  0.00  0.00    -0.050 A 
ATOM     14  C   UNL     1      -5.223  -4.297   0.311  0.00  0.00    +0.009 A 
ATOM     15  C   UNL     1      -6.541  -6.402   0.622  0.00  0.00    +0.044 C 
ENDBRANCH   4   9
BRANCH   1  17
ATOM     16  C   UNL     1      -0.844   1.684  -0.137  0.00  0.00    +0.025 C 
ATOM     17  C   UNL     1      -0.481   0.200  -0.220  0.00  0.00    +0.111 C 
ENDBRANCH   1  17
BRANCH   3  18
ATOM     18  C   UNL     1      -3.539  -2.328   2.543  0.00  0.00    +0.339 C 
ATOM     19  O   UNL     1      -2.894  -2.019   3.527  0.00  0.00    -0.245 OA
BRANCH  18  20
ATOM     20  O   UNL     1      -4.609  -3.142   2.665  0.00  0.00    -0.462 OA
BRANCH  20  21
ATOM     21  C   UNL     1      -4.926  -3.603   3.979  0.00  0.00    +0.229 C 
ATOM     22  C   UNL     1      -6.159  -4.507   3.919  0.00  0.00    +0.048 C 
ENDBRANCH  20  21
ENDBRANCH  18  20
ENDBRANCH   3  18
BRANCH   2  23
ATOM     23  C   UNL     1      -1.197  -0.766   2.306  0.00  0.00    -0.026 C 
BRANCH  23  24
ATOM     24  N   UNL     1      -0.327  -1.913   2.601  0.00  0.00    +0.384 N 
ATOM     25  C   UNL     1       0.325  -1.677   3.887  0.00  0.00    -0.077 C 
ATOM     26  C   UNL     1       0.611  -3.005   4.553  0.00  0.00    +0.000 C 
ATOM     27  C   UNL     1       2.038  -3.460   4.198  0.00  0.00    +0.106 C 
ATOM     28  N   UNL     1       2.354  -3.165   2.786  0.00  0.00    -0.299 N 
ATOM     29  C   UNL     1       1.398  -3.375   1.718  0.00  0.00    +0.089 C 
ATOM     30  C   UNL     1       0.552  -2.097   1.512  0.00  0.00    -0.059 C 
ATOM     31  C   UNL     1       3.575  -2.683   2.481  0.00  0.00    +0.253 C 
ATOM     32  O   UNL     1       4.429  -2.599   3.343  0.00  0.00    -0.269 OA
ATOM     33  H   UNL     1      -0.905  -2.736   2.687  0.00  0.00    -0.081 HD
BRANCH  31  34
ATOM     34  C   UNL     1       3.873  -2.260   1.109  0.00  0.00    +0.074 A 
ATOM     35  C   UNL     1       5.083  -1.863   0.561  0.00  0.00    +0.021 A 
ATOM     36  C   UNL     1       5.052  -1.520  -0.769  0.00  0.00    +0.008 A 
ATOM     37  C   UNL     1       3.876  -1.588  -1.440  0.00  0.00    +0.046 A 
ATOM     38  S   UNL     1       2.777  -2.127  -0.290  0.00  0.00    -0.092 S 
ENDBRANCH  31  34
ENDBRANCH  23  24
ENDBRANCH   2  23
TORSDOF 8
