REMARK  Name = ZINC13034033
REMARK  11 active torsions:
REMARK  status: ('A' for Active; 'I' for Inactive)
REMARK    1  A    between atoms: C_1  and  C_2
REMARK    2  A    between atoms: C_2  and  C_3
REMARK    3  A    between atoms: C_10  and  C_15
REMARK    4  A    between atoms: C_15  and  N_66
REMARK    5  A    between atoms: C_16  and  C_17
REMARK    6  A    between atoms: C_16  and  N_66
REMARK    7  A    between atoms: C_22  and  C_24
REMARK    8  A    between atoms: C_22  and  C_26
REMARK    9  A    between atoms: C_22  and  N_66
REMARK   10  A    between atoms: C_24  and  C_25
REMARK   11  A    between atoms: N_30  and  C_31
REMARK                            x       y       z     vdW  Elec       q    Type
REMARK                         _______ _______ _______ _____ _____    ______ ____
ROOT
ATOM      1  N   UNL     1      -2.994   4.600   1.769  0.00  0.00    +0.392 N 
ATOM      2  H   UNL     1      -3.013   3.841   2.459  0.00  0.00    -0.080 HD
ENDROOT
BRANCH   1   3
ATOM      3  C   UNL     1      -2.766   4.024   0.427  0.00  0.00    -0.036 C 
BRANCH   3  11
ATOM      4  C   UNL     1       0.068  -1.442   1.043  0.00  0.00    -0.047 A 
ATOM      5  C   UNL     1       1.364  -0.960   0.920  0.00  0.00    +0.005 A 
ATOM      6  C   UNL     1       1.600   0.384   0.728  0.00  0.00    +0.026 A 
ATOM      7  C   UNL     1       0.529   1.269   0.655  0.00  0.00    +0.049 A 
ATOM      8  C   UNL     1      -0.784   0.776   0.780  0.00  0.00    -0.001 A 
ATOM      9  C   UNL     1      -0.999  -0.592   0.975  0.00  0.00    +0.013 A 
ATOM     10  C   UNL     1      -1.904   1.716   0.709  0.00  0.00    +0.017 A 
ATOM     11  C   UNL     1      -1.636   3.031   0.512  0.00  0.00    +0.001 A 
ATOM     12  C   UNL     1      -0.301   3.473   0.393  0.00  0.00    +0.251 A 
ATOM     13  O   UNL     1      -0.081   4.660   0.222  0.00  0.00    -0.268 OA
ATOM     14  N   UNL     1       0.735   2.618   0.463  0.00  0.00    -0.322 N 
ATOM     15  H   UNL     1       1.640   2.956   0.377  0.00  0.00    +0.169 HD
BRANCH   4  17
ATOM     16  C   UNL     1      -0.306  -3.608  -0.105  0.00  0.00    +0.009 C 
ATOM     17  C   UNL     1      -0.164  -2.916   1.252  0.00  0.00    +0.032 C 
ENDBRANCH   4  17
ENDBRANCH   3  11
ENDBRANCH   1   3
BRANCH   1  18
ATOM     18  C   UNL     1      -1.898   5.532   2.111  0.00  0.00    -0.034 C 
BRANCH  18  19
ATOM     19  C   UNL     1      -2.081   5.999   3.532  0.00  0.00    -0.027 A 
ATOM     20  C   UNL     1      -1.698   5.397   4.684  0.00  0.00    +0.009 A 
ATOM     21  C   UNL     1      -1.974   6.016   5.889  0.00  0.00    +0.008 A 
ATOM     22  C   UNL     1      -2.620   7.208   5.882  0.00  0.00    +0.045 A 
ATOM     23  S   UNL     1      -2.852   7.492   4.134  0.00  0.00    -0.103 S 
ENDBRANCH  18  19
ENDBRANCH   1  18
BRANCH   1  24
ATOM     24  C   UNL     1      -4.289   5.311   1.800  0.00  0.00    +0.003 C 
BRANCH  24  25
ATOM     25  C   UNL     1      -5.378   4.314   2.103  0.00  0.00    +0.138 A 
ATOM     26  N   UNL     1      -5.500   3.111   1.595  0.00  0.00    -0.115 NA
ATOM     27  N   UNL     1      -6.554   2.571   2.103  0.00  0.00    -0.023 NA
ATOM     28  N   UNL     1      -7.111   3.400   2.915  0.00  0.00    -0.044 NA
ATOM     29  N   UNL     1      -6.415   4.486   2.942  0.00  0.00    -0.228 N 
BRANCH  29  30
ATOM     30  C   UNL     1      -6.701   5.683   3.738  0.00  0.00    +0.111 C 
ATOM     31  C   UNL     1      -6.760   5.320   5.236  0.00  0.00    +0.027 C 
ATOM     32  C   UNL     1      -7.896   6.212   5.798  0.00  0.00    +0.002 C 
ATOM     33  C   UNL     1      -8.937   6.204   4.651  0.00  0.00    +0.002 C 
ATOM     34  C   UNL     1      -8.084   6.245   3.366  0.00  0.00    +0.027 C 
ENDBRANCH  29  30
ENDBRANCH  24  25
BRANCH  24  35
ATOM     35  C   UNL     1      -4.567   5.975   0.450  0.00  0.00    -0.011 C 
ATOM     36  C   UNL     1      -3.548   7.090   0.210  0.00  0.00    +0.002 C 
ENDBRANCH  24  35
ENDBRANCH   1  24
TORSDOF 9
