REMARK  Name = ZINC09436204
REMARK  14 active torsions:
REMARK  status: ('A' for Active; 'I' for Inactive)
REMARK    1  A    between atoms: C_1  and  C_2
REMARK    2  A    between atoms: C_2  and  N_64
REMARK    3  A    between atoms: C_3  and  C_4
REMARK    4  A    between atoms: C_3  and  N_64
REMARK    5  A    between atoms: C_5  and  C_6
REMARK    6  A    between atoms: C_5  and  N_64
REMARK    7  A    between atoms: C_6  and  N_7
REMARK    8  A    between atoms: C_8  and  C_27
REMARK    9  A    between atoms: C_11  and  C_12
REMARK   10  A    between atoms: C_11  and  O_22
REMARK   11  A    between atoms: C_15  and  O_18
REMARK   12  A    between atoms: O_18  and  C_19
REMARK   13  A    between atoms: C_19  and  C_20
REMARK   14  A    between atoms: C_19  and  C_21
REMARK                            x       y       z     vdW  Elec       q    Type
REMARK                         _______ _______ _______ _____ _____    ______ ____
ROOT
ATOM      1  N   UNL     1       2.029   0.811  -1.077  0.00  0.00    -0.285 N 
ATOM      2  C   UNL     1       1.962   2.125  -0.429  0.00  0.00    +0.144 C 
ATOM      3  C   UNL     1       0.499   2.493  -0.346  0.00  0.00    +0.071 C 
ATOM      4  C   UNL     1      -0.037   3.648   0.190  0.00  0.00    +0.133 C 
ATOM      5  C   UNL     1      -0.205   1.429  -0.929  0.00  0.00    +0.249 C 
ATOM      6  O   UNL     1      -1.414   1.356  -1.054  0.00  0.00    -0.282 OA
ATOM      7  C   UNL     1       0.781   0.403  -1.364  0.00  0.00    +0.288 C 
ATOM      8  O   UNL     1       0.500  -0.647  -1.905  0.00  0.00    -0.266 OA
ENDROOT
BRANCH   2   9
ATOM      9  C   UNL     1       2.706   3.144  -1.253  0.00  0.00    -0.022 A 
ATOM     10  C   UNL     1       2.615   3.118  -2.632  0.00  0.00    +0.007 A 
ATOM     11  C   UNL     1       3.292   4.056  -3.388  0.00  0.00    +0.020 A 
ATOM     12  C   UNL     1       4.071   5.015  -2.764  0.00  0.00    +0.041 A 
ATOM     13  C   UNL     1       4.167   5.037  -1.384  0.00  0.00    +0.020 A 
ATOM     14  C   UNL     1       3.484   4.102  -0.629  0.00  0.00    +0.007 A 
ATOM     15 CL   UNL     1       4.928   6.189  -3.713  0.00  0.00    -0.084 Cl
ENDBRANCH   2   9
BRANCH   4  16
ATOM     16  C   UNL     1      -1.495   3.788   0.325  0.00  0.00    +0.017 A 
ATOM     17  C   UNL     1      -2.150   4.888  -0.241  0.00  0.00    +0.015 A 
ATOM     18  C   UNL     1      -3.515   5.012  -0.116  0.00  0.00    +0.046 A 
ATOM     19  C   UNL     1      -4.242   4.053   0.580  0.00  0.00    +0.121 A 
ATOM     20  C   UNL     1      -3.595   2.961   1.149  0.00  0.00    +0.046 A 
ATOM     21  C   UNL     1      -2.231   2.825   1.026  0.00  0.00    +0.015 A 
BRANCH  19  22
ATOM     22  O   UNL     1      -5.587   4.183   0.705  0.00  0.00    -0.489 OA
BRANCH  22  23
ATOM     23  C   UNL     1      -6.268   3.178   1.459  0.00  0.00    +0.167 C 
ATOM     24  C   UNL     1      -7.579   3.750   2.004  0.00  0.00    +0.051 C 
ATOM     25  C   UNL     1      -6.571   1.980   0.556  0.00  0.00    +0.051 C 
ENDBRANCH  22  23
ENDBRANCH  19  22
ENDBRANCH   4  16
BRANCH   4  26
ATOM     26  O   UNL     1       0.777   4.648   0.591  0.00  0.00    -0.506 OA
ATOM     27  H   UNL     1       0.228   5.401   0.951  0.00  0.00    +0.292 HD
ENDBRANCH   4  26
BRANCH   1  28
ATOM     28  C   UNL     1       3.256   0.065  -1.363  0.00  0.00    +0.090 C 
BRANCH  28  29
ATOM     29  C   UNL     1       3.772   0.445  -2.752  0.00  0.00    -0.060 C 
BRANCH  29  30
ATOM     30  N   UNL     1       5.020  -0.300  -3.018  0.00  0.00    +0.380 N 
ATOM     31  H   UNL     1       5.665  -0.161  -2.231  0.00  0.00    -0.082 HD
BRANCH  30  33
ATOM     32  C   UNL     1       3.799  -1.996  -4.338  0.00  0.00    -0.017 C 
ATOM     33  C   UNL     1       4.729  -1.743  -3.150  0.00  0.00    -0.082 C 
ENDBRANCH  30  33
BRANCH  30  34
ATOM     34  C   UNL     1       5.656   0.202  -4.254  0.00  0.00    -0.082 C 
ATOM     35  C   UNL     1       7.093  -0.318  -4.315  0.00  0.00    -0.017 C 
ENDBRANCH  30  34
ENDBRANCH  29  30
ENDBRANCH  28  29
ENDBRANCH   1  28
TORSDOF 10
