REMARK  Name = ZINC12420460
REMARK  9 active torsions:
REMARK  status: ('A' for Active; 'I' for Inactive)
REMARK    1  A    between atoms: C_1  and  O_2
REMARK    2  A    between atoms: O_2  and  C_3
REMARK    3  A    between atoms: C_6  and  C_9
REMARK    4  A    between atoms: C_9  and  C_11
REMARK    5  A    between atoms: C_9  and  N_24
REMARK    6  A    between atoms: N_15  and  C_16
REMARK    7  A    between atoms: C_19  and  O_22
REMARK    8  A    between atoms: O_22  and  C_23
REMARK    9  A    between atoms: C_32  and  C_38
REMARK                            x       y       z     vdW  Elec       q    Type
REMARK                         _______ _______ _______ _____ _____    ______ ____
ROOT
ATOM      1  C   UNL     1      -1.170   2.189   0.617  0.00  0.00    +0.176 C 
ENDROOT
BRANCH   1   2
ATOM      2  N   UNL     1      -2.336   2.128  -0.269  0.00  0.00    -0.284 N 
ATOM      3  C   UNL     1      -2.876   3.277  -1.061  0.00  0.00    +0.149 C 
ATOM      4  C   UNL     1      -4.303   2.876  -1.256  0.00  0.00    +0.116 C 
ATOM      5  C   UNL     1      -5.100   2.996   0.011  0.00  0.00    +0.008 C 
ATOM      6  C   UNL     1      -6.333   2.631  -0.310  0.00  0.00    +0.004 C 
ATOM      7  C   UNL     1      -6.255   2.231  -1.789  0.00  0.00    +0.157 C 
ATOM      8  O   UNL     1      -5.213   3.168  -2.290  0.00  0.00    -0.359 OA
ATOM      9  C   UNL     1      -5.467   0.865  -1.722  0.00  0.00    +0.150 C 
ATOM     10  C   UNL     1      -4.047   1.348  -1.574  0.00  0.00    +0.129 C 
ATOM     11  C   UNL     1      -3.102   1.010  -0.494  0.00  0.00    +0.224 C 
ATOM     12  O   UNL     1      -3.017  -0.052   0.085  0.00  0.00    -0.275 OA
BRANCH   9  13
ATOM     13  C   UNL     1      -5.891   0.054  -0.524  0.00  0.00    +0.363 C 
ATOM     14  O   UNL     1      -5.117  -0.128   0.386  0.00  0.00    -0.246 OA
ATOM     15  O   UNL     1      -7.127  -0.465  -0.468  0.00  0.00    -0.246 OA
ENDBRANCH   9  13
ENDBRANCH   1   2
BRANCH   1  19
ATOM     16  C   UNL     1      -2.274   0.830   4.516  0.00  0.00    +0.120 A 
ATOM     17  C   UNL     1      -1.091   0.393   3.937  0.00  0.00    +0.046 A 
ATOM     18  C   UNL     1      -0.737   0.834   2.676  0.00  0.00    +0.009 A 
ATOM     19  C   UNL     1      -1.560   1.709   1.992  0.00  0.00    -0.019 A 
ATOM     20  C   UNL     1      -2.736   2.150   2.569  0.00  0.00    +0.009 A 
ATOM     21  C   UNL     1      -3.098   1.708   3.827  0.00  0.00    +0.046 A 
BRANCH  16  23
ATOM     22  C   UNL     1      -3.855   0.889   6.290  0.00  0.00    +0.277 C 
ATOM     23  O   UNL     1      -2.624   0.398   5.756  0.00  0.00    -0.495 OA
ENDBRANCH  16  23
ENDBRANCH   1  19
BRANCH   1  24
ATOM     24  C   UNL     1      -0.077   1.309   0.070  0.00  0.00    +0.181 A 
ATOM     25  N   UNL     1      -0.210   0.080  -0.356  0.00  0.00    -0.111 NA
ATOM     26  N   UNL     1       0.916  -0.384  -0.763  0.00  0.00    -0.023 NA
ATOM     27  N   UNL     1       1.839   0.506  -0.628  0.00  0.00    -0.039 NA
ATOM     28  N   UNL     1       1.223   1.645  -0.079  0.00  0.00    -0.195 N 
BRANCH  28  29
ATOM     29  C   UNL     1       1.829   2.869   0.245  0.00  0.00    +0.069 A 
ATOM     30  C   UNL     1       1.205   4.063  -0.092  0.00  0.00    +0.031 A 
ATOM     31  C   UNL     1       1.799   5.266   0.231  0.00  0.00    +0.048 A 
ATOM     32  C   UNL     1       3.024   5.283   0.883  0.00  0.00    +0.120 A 
ATOM     33  C   UNL     1       3.650   4.090   1.215  0.00  0.00    +0.048 A 
ATOM     34  C   UNL     1       3.054   2.886   0.897  0.00  0.00    +0.031 A 
BRANCH  32  35
ATOM     35  O   UNL     1       3.611   6.469   1.196  0.00  0.00    -0.495 OA
ATOM     36  C   UNL     1       2.911   7.657   0.824  0.00  0.00    +0.277 C 
ENDBRANCH  32  35
ENDBRANCH  28  29
ENDBRANCH   1  24
TORSDOF 7
