REMARK  Name = ZINC08739445
REMARK  5 active torsions:
REMARK  status: ('A' for Active; 'I' for Inactive)
REMARK    1  A    between atoms: C_1  and  N_53
REMARK    2  A    between atoms: C_3  and  C_26
REMARK    3  A    between atoms: C_5  and  C_18
REMARK    4  A    between atoms: C_18  and  C_20
REMARK    5  A    between atoms: C_30  and  N_32
REMARK                            x       y       z     vdW  Elec       q    Type
REMARK                         _______ _______ _______ _____ _____    ______ ____
ROOT
ATOM      1  C   UNL     1       0.805   1.560   1.383  0.00  0.00    -0.094 C 
ATOM      2  C   UNL     1      -0.903   2.759   0.126  0.00  0.00    -0.068 C 
ATOM      3  C   UNL     1      -2.431   2.586  -0.070  0.00  0.00    +0.013 C 
ATOM      4  C   UNL     1      -2.842   1.726   1.149  0.00  0.00    +0.068 C 
ATOM      5  C   UNL     1      -1.550   1.029   1.592  0.00  0.00    +0.051 C 
ATOM      6  C   UNL     1      -1.717  -0.467   1.593  0.00  0.00    -0.026 A 
ATOM      7  C   UNL     1      -2.024  -1.383   0.612  0.00  0.00    +0.024 A 
ATOM      8  C   UNL     1      -2.117  -2.728   0.926  0.00  0.00    +0.041 A 
ATOM      9  C   UNL     1      -1.899  -3.147   2.227  0.00  0.00    +0.022 A 
ATOM     10  C   UNL     1      -1.591  -2.232   3.212  0.00  0.00    +0.025 A 
ATOM     11  C   UNL     1      -1.495  -0.877   2.903  0.00  0.00    +0.036 A 
ATOM     12  N   UNL     1      -1.200   0.225   3.710  0.00  0.00    -0.286 N 
ATOM     13  C   UNL     1      -1.209   1.379   3.017  0.00  0.00    +0.212 C 
ATOM     14  O   UNL     1      -0.988   2.487   3.457  0.00  0.00    -0.277 OA
ATOM     15 CL   UNL     1      -2.505  -3.886  -0.308  0.00  0.00    -0.084 Cl
ATOM     16  H   UNL     1      -1.012   0.165   4.660  0.00  0.00    +0.155 HD
ATOM     17  N   UNL     1      -0.503   1.454   0.668  0.00  0.00    +0.391 N 
ATOM     18  H   UNL     1      -0.416   0.774  -0.096  0.00  0.00    -0.080 HD
ENDROOT
BRANCH   3  19
ATOM     19  C   UNL     1      -3.127   3.922  -0.040  0.00  0.00    -0.043 A 
ATOM     20  C   UNL     1      -2.409   5.069   0.244  0.00  0.00    +0.004 A 
ATOM     21  C   UNL     1      -3.047   6.295   0.267  0.00  0.00    +0.002 A 
ATOM     22  C   UNL     1      -4.404   6.373   0.017  0.00  0.00    +0.033 A 
ATOM     23  C   UNL     1      -5.123   5.226  -0.262  0.00  0.00    +0.126 A 
ATOM     24  C   UNL     1      -4.484   4.000  -0.290  0.00  0.00    +0.036 A 
BRANCH  23  25
ATOM     25  N   UNL     1      -6.576   5.309  -0.529  0.00  0.00    +0.056 N 
ATOM     26  O   UNL     1      -7.209   4.298  -0.775  0.00  0.00    -0.126 OA
ATOM     27  O   UNL     1      -7.139   6.389  -0.504  0.00  0.00    -0.126 OA
ENDBRANCH  23  25
ENDBRANCH   3  19
BRANCH   4  28
ATOM     28  C   UNL     1      -3.370   2.603   2.255  0.00  0.00    +0.166 C 
ATOM     29  O   UNL     1      -2.911   3.713   2.420  0.00  0.00    -0.292 OA
BRANCH  28  30
ATOM     30  C   UNL     1      -4.442   2.112   3.135  0.00  0.00    +0.018 A 
ATOM     31  C   UNL     1      -4.978   0.834   2.944  0.00  0.00    +0.011 A 
ATOM     32  C   UNL     1      -5.980   0.380   3.776  0.00  0.00    +0.001 A 
ATOM     33  C   UNL     1      -6.462   1.188   4.790  0.00  0.00    +0.000 A 
ATOM     34  C   UNL     1      -5.941   2.456   4.982  0.00  0.00    +0.001 A 
ATOM     35  C   UNL     1      -4.935   2.923   4.162  0.00  0.00    +0.011 A 
ENDBRANCH  28  30
ENDBRANCH   4  28
TORSDOF 4
