REMARK  Name = ZINC12341629
REMARK  4 active torsions:
REMARK  status: ('A' for Active; 'I' for Inactive)
REMARK    1  A    between atoms: C_1  and  C_2
REMARK    2  A    between atoms: C_5  and  C_18
REMARK    3  A    between atoms: C_5  and  C_19
REMARK    4  A    between atoms: N_14  and  N_15
REMARK                            x       y       z     vdW  Elec       q    Type
REMARK                         _______ _______ _______ _____ _____    ______ ____
ROOT
ATOM      1  C   UNL     1      -0.019   1.526   0.010  0.00  0.00    +0.012 C 
ATOM      2  C   UNL     1       0.002  -0.004   0.002  0.00  0.00    +0.020 C 
ATOM      3  C   UNL     1       0.718  -0.497  -1.260  0.00  0.00    +0.033 C 
ATOM      4  C   UNL     1       0.839  -2.026  -1.291  0.00  0.00    +0.038 C 
ATOM      5  N   UNL     1       1.517  -2.463  -0.059  0.00  0.00    -0.260 N 
ATOM      6  C   UNL     1       1.427  -1.696   1.092  0.00  0.00    +0.050 A 
ATOM      7  C   UNL     1       0.726  -0.500   1.219  0.00  0.00    -0.022 A 
ATOM      8  C   UNL     1       0.765   0.110   2.450  0.00  0.00    +0.006 A 
ATOM      9  C   UNL     1       1.473  -0.455   3.504  0.00  0.00    +0.001 A 
ATOM     10  C   UNL     1       2.174  -1.650   3.386  0.00  0.00    +0.012 A 
ATOM     11  C   UNL     1       2.141  -2.277   2.146  0.00  0.00    +0.029 A 
ATOM     12  C   UNL     1       2.716  -3.508   1.591  0.00  0.00    +0.152 C 
ATOM     13  N   UNL     1       3.469  -4.386   2.213  0.00  0.00    -0.184 NA
ATOM     14  C   UNL     1       2.265  -3.548   0.178  0.00  0.00    +0.272 C 
ATOM     15  O   UNL     1       2.531  -4.420  -0.629  0.00  0.00    -0.268 OA
ATOM     16  C   UNL     1       1.659  -2.453  -2.510  0.00  0.00    +0.032 C 
ATOM     17  C   UNL     1      -0.555  -2.652  -1.362  0.00  0.00    +0.032 C 
ENDROOT
BRANCH  13  18
ATOM     18  N   UNL     1       3.900  -5.426   1.583  0.00  0.00    -0.282 N 
ATOM     19  H   UNL     1       3.668  -5.559   0.651  0.00  0.00    +0.164 HD
ATOM     20  H   UNL     1       4.456  -6.075   2.043  0.00  0.00    +0.164 HD
ENDBRANCH  13  18
TORSDOF 1
