REMARK  Name = ZINC09433330
REMARK  15 active torsions:
REMARK  status: ('A' for Active; 'I' for Inactive)
REMARK    1  A    between atoms: C_1  and  C_2
REMARK    2  A    between atoms: C_2  and  C_3
REMARK    3  A    between atoms: C_3  and  C_4
REMARK    4  A    between atoms: C_4  and  N_73
REMARK    5  A    between atoms: C_5  and  C_6
REMARK    6  A    between atoms: C_5  and  N_73
REMARK    7  A    between atoms: C_6  and  N_7
REMARK    8  A    between atoms: C_8  and  C_10
REMARK    9  A    between atoms: N_20  and  C_28
REMARK   10  A    between atoms: C_21  and  C_23
REMARK   11  A    between atoms: C_28  and  C_29
REMARK   12  A    between atoms: C_29  and  C_30
REMARK   13  A    between atoms: C_29  and  C_31
REMARK   14  A    between atoms: C_32  and  C_33
REMARK   15  A    between atoms: C_32  and  N_73
REMARK                            x       y       z     vdW  Elec       q    Type
REMARK                         _______ _______ _______ _____ _____    ______ ____
ROOT
ATOM      1  C   UNL     1       1.681  -0.578  -0.390  0.00  0.00    +0.131 C 
ATOM      2  C   UNL     1       1.033   0.775  -0.257  0.00  0.00    -0.021 A 
ATOM      3  C   UNL     1       1.767   1.927  -0.440  0.00  0.00    +0.005 A 
ATOM      4  C   UNL     1       1.153   3.163  -0.327  0.00  0.00    +0.000 A 
ATOM      5  C   UNL     1      -0.196   3.251  -0.034  0.00  0.00    +0.001 A 
ATOM      6  C   UNL     1      -0.941   2.104   0.156  0.00  0.00    +0.013 A 
ATOM      7  C   UNL     1      -0.326   0.858   0.050  0.00  0.00    +0.041 A 
ATOM      8  C   UNL     1      -1.093  -0.388   0.262  0.00  0.00    +0.247 C 
ATOM      9  O   UNL     1      -2.308  -0.365   0.285  0.00  0.00    -0.270 OA
ATOM     10  N   UNL     1      -0.430  -1.550   0.423  0.00  0.00    -0.289 N 
ATOM     11  C   UNL     1       1.024  -1.572   0.564  0.00  0.00    +0.129 C 
ENDROOT
BRANCH  11  12
ATOM     12  C   UNL     1       1.389  -1.214   1.982  0.00  0.00    +0.011 A 
ATOM     13  C   UNL     1       2.351  -1.745   2.776  0.00  0.00    +0.013 A 
ATOM     14  C   UNL     1       2.509  -1.253   4.058  0.00  0.00    +0.008 A 
ATOM     15  C   UNL     1       1.697  -0.254   4.483  0.00  0.00    +0.045 A 
ATOM     16  S   UNL     1       0.673   0.026   3.048  0.00  0.00    -0.100 S 
ENDBRANCH  11  12
BRANCH   1  18
ATOM     17  N   UNL     1       2.206  -0.469  -2.805  0.00  0.00    -0.317 N 
ATOM     18  C   UNL     1       1.528  -1.069  -1.806  0.00  0.00    +0.223 C 
ATOM     19  O   UNL     1       0.795  -2.004  -2.048  0.00  0.00    -0.275 OA
ATOM     20  H   UNL     1       2.793   0.279  -2.611  0.00  0.00    +0.149 HD
BRANCH  17  21
ATOM     21  C   UNL     1       2.057  -0.946  -4.182  0.00  0.00    +0.085 C 
BRANCH  21  22
ATOM     22  C   UNL     1       2.928  -0.099  -5.112  0.00  0.00    -0.059 C 
BRANCH  22  23
ATOM     23  N   UNL     1       2.748  -0.581  -6.498  0.00  0.00    +0.385 N 
ATOM     24  H   UNL     1       2.724  -1.608  -6.493  0.00  0.00    -0.081 HD
BRANCH  23  25
ATOM     25  C   UNL     1       1.474  -0.073  -7.048  0.00  0.00    -0.078 C 
BRANCH  25  26
ATOM     26  C   UNL     1       1.206  -0.762  -8.387  0.00  0.00    -0.019 C 
BRANCH  26  28
ATOM     27  C   UNL     1      -0.391  -0.952 -10.300  0.00  0.00    +0.004 C 
ATOM     28  C   UNL     1      -0.122  -0.263  -8.960  0.00  0.00    -0.005 C 
ENDBRANCH  26  28
ENDBRANCH  25  26
ENDBRANCH  23  25
BRANCH  23  29
ATOM     29  C   UNL     1       3.877  -0.132  -7.339  0.00  0.00    -0.003 C 
BRANCH  29  30
ATOM     30  C   UNL     1       5.066  -1.016  -7.064  0.00  0.00    +0.089 A 
ATOM     31  C   UNL     1       5.397  -2.125  -7.749  0.00  0.00    +0.042 A 
ATOM     32  C   UNL     1       6.574  -2.637  -7.156  0.00  0.00    +0.041 A 
ATOM     33  C   UNL     1       6.893  -1.809  -6.145  0.00  0.00    +0.195 A 
ATOM     34  O   UNL     1       5.979  -0.826  -6.098  0.00  0.00    -0.470 OA
ENDBRANCH  29  30
ENDBRANCH  23  29
ENDBRANCH  22  23
ENDBRANCH  21  22
ENDBRANCH  17  21
ENDBRANCH   1  18
BRANCH  10  35
ATOM     35  C   UNL     1      -1.178  -2.808   0.457  0.00  0.00    +0.111 C 
BRANCH  35  36
ATOM     36  C   UNL     1      -1.450  -3.201   1.911  0.00  0.00    +0.000 C 
ATOM     37  C   UNL     1      -2.384  -2.171   2.551  0.00  0.00    +0.009 C 
ATOM     38  C   UNL     1      -2.109  -4.581   1.952  0.00  0.00    +0.009 C 
ENDBRANCH  35  36
ENDBRANCH  10  35
TORSDOF 12
