REMARK  Name = ZINC12546367
REMARK  7 active torsions:
REMARK  status: ('A' for Active; 'I' for Inactive)
REMARK    1  A    between atoms: C_1  and  O_2
REMARK    2  A    between atoms: O_2  and  C_3
REMARK    3  A    between atoms: C_11  and  S_13
REMARK    4  A    between atoms: S_13  and  C_14
REMARK    5  A    between atoms: C_14  and  C_15
REMARK    6  A    between atoms: C_18  and  C_34
REMARK    7  A    between atoms: C_26  and  C_27
REMARK                            x       y       z     vdW  Elec       q    Type
REMARK                         _______ _______ _______ _____ _____    ______ ____
ROOT
ATOM      1  C   UNL     1       4.287  -0.428   2.156  0.00  0.00    +0.246 C 
ATOM      2  O   UNL     1       4.013   0.582   2.770  0.00  0.00    -0.273 OA
ATOM      3  N   UNL     1       4.113  -0.473   0.821  0.00  0.00    -0.181 N 
ATOM      4  C   UNL     1       3.599   0.625  -0.030  0.00  0.00    +0.176 C 
ATOM      5  C   UNL     1       4.127   0.215  -1.416  0.00  0.00    +0.069 C 
ATOM      6  C   UNL     1       3.074   0.426  -2.506  0.00  0.00    +0.012 C 
ATOM      7  C   UNL     1       3.603  -0.172  -3.807  0.00  0.00    +0.005 C 
ATOM      8  C   UNL     1       3.836  -1.667  -3.732  0.00  0.00    +0.037 C 
ATOM      9  C   UNL     1       4.283  -2.155  -2.388  0.00  0.00    -0.021 C 
ATOM     10  C   UNL     1       4.702  -3.435  -2.247  0.00  0.00    +0.051 C 
ATOM     11  C   UNL     1       4.275  -1.297  -1.266  0.00  0.00    +0.068 C 
ATOM     12  N   UNL     1       4.385  -1.566  -0.011  0.00  0.00    -0.181 NA
ENDROOT
BRANCH  10  13
ATOM     13  C   UNL     1       4.715  -4.331  -3.401  0.00  0.00    +0.128 A 
ATOM     14  C   UNL     1       5.111  -5.640  -3.398  0.00  0.00    +0.049 A 
ATOM     15  C   UNL     1       4.959  -6.111  -4.714  0.00  0.00    +0.042 A 
ATOM     16  C   UNL     1       4.484  -5.085  -5.451  0.00  0.00    +0.195 A 
ATOM     17  O   UNL     1       4.332  -4.014  -4.655  0.00  0.00    -0.464 OA
ENDBRANCH  10  13
BRANCH   4  18
ATOM     18  C   UNL     1       2.092   0.660  -0.014  0.00  0.00    +0.128 A 
ATOM     19  C   UNL     1       1.331   1.769  -0.001  0.00  0.00    +0.046 A 
ATOM     20  C   UNL     1      -0.016   1.341   0.009  0.00  0.00    +0.041 A 
ATOM     21  C   UNL     1       0.002  -0.004   0.002  0.00  0.00    +0.195 A 
ATOM     22  O   UNL     1       1.282  -0.411  -0.012  0.00  0.00    -0.466 OA
ENDBRANCH   4  18
BRANCH   1  23
ATOM     23  C   UNL     1       4.823  -1.632   2.887  0.00  0.00    +0.175 C 
BRANCH  23  24
ATOM     24  S   UNL     1       4.942  -1.262   4.655  0.00  0.00    -0.078 S 
BRANCH  24  33
ATOM     25  C   UNL     1       7.196  -6.488   7.340  0.00  0.00    +0.122 A 
ATOM     26  C   UNL     1       7.177  -6.958   6.032  0.00  0.00    +0.048 A 
ATOM     27  C   UNL     1       6.742  -6.150   5.006  0.00  0.00    +0.033 A 
ATOM     28  C   UNL     1       6.315  -4.848   5.280  0.00  0.00    +0.090 A 
ATOM     29  C   UNL     1       6.334  -4.376   6.602  0.00  0.00    +0.070 A 
ATOM     30  C   UNL     1       6.775  -5.201   7.626  0.00  0.00    +0.073 A 
ATOM     31  N   UNL     1       5.862  -3.075   6.554  0.00  0.00    -0.333 N 
ATOM     32  H   UNL     1       5.751  -2.455   7.331  0.00  0.00    +0.168 HD
ATOM     33  C   UNL     1       5.575  -2.795   5.247  0.00  0.00    +0.168 A 
ATOM     34  N   UNL     1       5.837  -3.840   4.502  0.00  0.00    -0.222 NA
BRANCH  25  36
ATOM     35  C   UNL     1       8.049  -8.613   7.981  0.00  0.00    +0.277 C 
ATOM     36  O   UNL     1       7.629  -7.296   8.344  0.00  0.00    -0.495 OA
ENDBRANCH  25  36
ENDBRANCH  24  33
ENDBRANCH  23  24
ENDBRANCH   1  23
TORSDOF 6
