REMARK  Name = ZINC06282918
REMARK  7 active torsions:
REMARK  status: ('A' for Active; 'I' for Inactive)
REMARK    1  A    between atoms: C_1  and  O_2
REMARK    2  A    between atoms: O_2  and  C_3
REMARK    3  A    between atoms: C_8  and  C_15
REMARK    4  A    between atoms: C_15  and  C_17
REMARK    5  A    between atoms: C_15  and  N_72
REMARK    6  A    between atoms: N_21  and  C_22
REMARK    7  A    between atoms: C_22  and  C_23
REMARK                            x       y       z     vdW  Elec       q    Type
REMARK                         _______ _______ _______ _____ _____    ______ ____
ROOT
ATOM      1  C   UNL     1      -1.294  -0.772   0.010  0.00  0.00    +0.039 C 
ENDROOT
BRANCH   1   7
ATOM      2  C   UNL     1       4.598   1.934  -0.321  0.00  0.00    +0.122 A 
ATOM      3  C   UNL     1       4.735   0.549  -0.406  0.00  0.00    +0.046 A 
ATOM      4  C   UNL     1       3.638  -0.259  -0.362  0.00  0.00    +0.013 A 
ATOM      5  C   UNL     1       2.363   0.304  -0.228  0.00  0.00    -0.001 A 
ATOM      6  C   UNL     1       1.167  -0.536  -0.176  0.00  0.00    +0.017 A 
ATOM      7  C   UNL     1      -0.043   0.065  -0.046  0.00  0.00    +0.011 A 
ATOM      8  C   UNL     1      -0.133   1.470   0.038  0.00  0.00    +0.251 A 
ATOM      9  O   UNL     1      -1.231   1.989   0.149  0.00  0.00    -0.268 OA
ATOM     10  N   UNL     1       0.960   2.251  -0.009  0.00  0.00    -0.322 N 
ATOM     11  H   UNL     1       0.862   3.214   0.052  0.00  0.00    +0.169 HD
ATOM     12  C   UNL     1       2.218   1.703  -0.140  0.00  0.00    +0.053 A 
ATOM     13  C   UNL     1       3.347   2.511  -0.188  0.00  0.00    +0.072 A 
BRANCH   2  15
ATOM     14  C   UNL     1       6.964   2.068  -0.505  0.00  0.00    +0.277 C 
ATOM     15  O   UNL     1       5.702   2.724  -0.367  0.00  0.00    -0.495 OA
ENDBRANCH   2  15
ENDBRANCH   1   7
BRANCH   1  26
ATOM     16  C   UNL     1      -3.372  -1.087   1.212  0.00  0.00    -0.077 C 
ATOM     17  C   UNL     1      -4.192  -0.598   2.408  0.00  0.00    -0.018 C 
ATOM     18  C   UNL     1      -3.444  -0.927   3.703  0.00  0.00    +0.003 C 
ATOM     19  C   UNL     1      -2.060  -0.274   3.663  0.00  0.00    -0.044 C 
ATOM     20  C   UNL     1      -1.301  -0.772   2.431  0.00  0.00    -0.071 C 
ATOM     21  C   UNL     1      -2.216   1.246   3.588  0.00  0.00    +0.005 C 
ATOM     22  C   UNL     1      -0.833   1.899   3.550  0.00  0.00    +0.000 C 
ATOM     23  C   UNL     1      -0.059   1.528   4.816  0.00  0.00    +0.000 C 
ATOM     24  C   UNL     1       0.098   0.008   4.890  0.00  0.00    +0.000 C 
ATOM     25  C   UNL     1      -1.284  -0.647   4.927  0.00  0.00    +0.005 C 
ATOM     26  N   UNL     1      -2.061  -0.403   1.218  0.00  0.00    +0.390 N 
ATOM     27  H   UNL     1      -2.215   0.612   1.218  0.00  0.00    -0.080 HD
ENDBRANCH   1  26
BRANCH   1  28
ATOM     28  C   UNL     1      -2.137  -0.498  -1.209  0.00  0.00    +0.143 A 
ATOM     29  N   UNL     1      -2.865   0.568  -1.434  0.00  0.00    -0.115 NA
ATOM     30  N   UNL     1      -3.433   0.427  -2.582  0.00  0.00    -0.023 NA
ATOM     31  N   UNL     1      -3.086  -0.701  -3.095  0.00  0.00    -0.044 NA
ATOM     32  N   UNL     1      -2.283  -1.299  -2.281  0.00  0.00    -0.228 N 
BRANCH  32  33
ATOM     33  C   UNL     1      -1.652  -2.605  -2.484  0.00  0.00    +0.178 C 
BRANCH  33  34
ATOM     34  C   UNL     1      -2.558  -3.703  -1.922  0.00  0.00    +0.140 C 
ATOM     35  C   UNL     1      -1.933  -5.098  -2.175  0.00  0.00    +0.035 C 
ATOM     36  C   UNL     1      -2.593  -5.926  -1.039  0.00  0.00    +0.031 C 
ATOM     37  C   UNL     1      -2.703  -4.890   0.100  0.00  0.00    +0.160 C 
ATOM     38  O   UNL     1      -2.652  -3.587  -0.493  0.00  0.00    -0.375 OA
ENDBRANCH  33  34
ENDBRANCH  32  33
ENDBRANCH   1  28
TORSDOF 6
