REMARK  Name = ZINC11737010
REMARK  4 active torsions:
REMARK  status: ('A' for Active; 'I' for Inactive)
REMARK    1  A    between atoms: C_2  and  S_12
REMARK    2  A    between atoms: C_6  and  N_7
REMARK    3  A    between atoms: S_12  and  N_15
REMARK    4  A    between atoms: N_15  and  C_16
REMARK                            x       y       z     vdW  Elec       q    Type
REMARK                         _______ _______ _______ _____ _____    ______ ____
ROOT
ATOM      1  C   UNL     1       1.562  -2.587   2.048  0.00  0.00    +0.055 A 
ATOM      2  C   UNL     1       2.602  -1.877   2.619  0.00  0.00    +0.111 A 
ATOM      3  C   UNL     1       2.775  -0.539   2.320  0.00  0.00    +0.078 A 
ATOM      4  C   UNL     1       1.907   0.099   1.444  0.00  0.00    +0.166 A 
ATOM      5  C   UNL     1       0.863  -0.610   0.867  0.00  0.00    +0.183 A 
ATOM      6  C   UNL     1       0.690  -1.958   1.171  0.00  0.00    +0.072 A 
ATOM      7  O   UNL     1       0.002  -0.004   0.002  0.00  0.00    -0.483 OA
ATOM      8  C   UNL     1      -0.017   1.427   0.010  0.00  0.00    +0.270 C 
ATOM      9  C   UNL     1       1.434   1.927  -0.001  0.00  0.00    +0.270 C 
ATOM     10  O   UNL     1       2.092   1.418   1.164  0.00  0.00    -0.485 OA
ENDROOT
BRANCH   6  11
ATOM     11  N   UNL     1      -0.363  -2.677   0.594  0.00  0.00    -0.355 N 
ATOM     12  H   UNL     1      -0.972  -2.237  -0.019  0.00  0.00    +0.142 HD
ATOM     13  H   UNL     1      -0.483  -3.616   0.806  0.00  0.00    +0.142 HD
ENDBRANCH   6  11
BRANCH   2  14
ATOM     14  S   UNL     1       3.708  -2.679   3.731  0.00  0.00    +0.059 S 
ATOM     15  O   UNL     1       3.658  -4.066   3.424  0.00  0.00    -0.153 OA
ATOM     16  O   UNL     1       4.919  -1.936   3.706  0.00  0.00    -0.153 OA
BRANCH  14  17
ATOM     17  N   UNL     1       3.080  -2.509   5.254  0.00  0.00    -0.187 NA
ATOM     18  H   UNL     1       3.557  -1.989   5.920  0.00  0.00    +0.148 HD
BRANCH  17  19
ATOM     19  C   UNL     1       1.805  -3.144   5.596  0.00  0.00    +0.077 C 
ATOM     20  C   UNL     1       0.657  -2.120   5.481  0.00  0.00    +0.020 C 
ATOM     21  C   UNL     1      -0.292  -2.481   6.651  0.00  0.00    +0.002 C 
ATOM     22  C   UNL     1       0.693  -2.865   7.784  0.00  0.00    +0.002 C 
ATOM     23  C   UNL     1       1.828  -3.618   7.059  0.00  0.00    +0.020 C 
ENDBRANCH  17  19
ENDBRANCH  14  17
ENDBRANCH   2  14
TORSDOF 4
