REMARK  Name = ZINC36028155
REMARK  11 active torsions:
REMARK  status: ('A' for Active; 'I' for Inactive)
REMARK    1  A    between atoms: C_1  and  C_2
REMARK    2  A    between atoms: C_2  and  C_3
REMARK    3  A    between atoms: C_3  and  C_5
REMARK    4  A    between atoms: C_3  and  C_6
REMARK    5  A    between atoms: N_10  and  C_29
REMARK    6  A    between atoms: N_15  and  S_18
REMARK    7  A    between atoms: S_18  and  C_21
REMARK    8  A    between atoms: C_29  and  C_30
REMARK    9  A    between atoms: C_30  and  C_31
REMARK   10  A    between atoms: C_31  and  O_32
REMARK   11  A    between atoms: O_32  and  C_33
REMARK                            x       y       z     vdW  Elec       q    Type
REMARK                         _______ _______ _______ _____ _____    ______ ____
ROOT
ATOM      1  C   UNL     1       0.962  -2.184   2.328  0.00  0.00    +0.022 C 
ATOM      2  C   UNL     1      -0.540  -2.365   2.358  0.00  0.00    +0.201 C 
ATOM      3  O   UNL     1      -1.354  -1.626   1.847  0.00  0.00    -0.277 OA
ATOM      4  N   UNL     1      -0.822  -3.489   3.051  0.00  0.00    -0.314 N 
ATOM      5  C   UNL     1       0.426  -4.109   3.504  0.00  0.00    +0.006 C 
ATOM      6  N   UNL     1       1.474  -3.070   3.401  0.00  0.00    +0.401 N 
ATOM      7  C   UNL     1       0.785  -5.292   2.606  0.00  0.00    +0.023 C 
ATOM      8  C   UNL     1      -0.324  -6.346   2.688  0.00  0.00    +0.109 C 
ATOM      9  N   UNL     1      -0.543  -6.693   4.098  0.00  0.00    -0.177 NA
ATOM     10  C   UNL     1      -0.821  -5.615   5.057  0.00  0.00    +0.109 C 
ATOM     11  C   UNL     1       0.292  -4.566   4.956  0.00  0.00    +0.023 C 
ATOM     12  H   UNL     1       2.358  -3.478   3.135  0.00  0.00    -0.082 HD
ATOM     13  H   UNL     1       1.561  -2.564   4.269  0.00  0.00    -0.082 HD
ENDROOT
BRANCH   9  14
ATOM     14  S   UNL     1      -0.479  -8.270   4.598  0.00  0.00    +0.062 S 
ATOM     15  O   UNL     1      -1.365  -8.382   5.704  0.00  0.00    -0.153 OA
ATOM     16  O   UNL     1      -0.612  -9.072   3.432  0.00  0.00    -0.153 OA
BRANCH  14  17
ATOM     17  C   UNL     1       1.144  -8.554   5.222  0.00  0.00    +0.125 A 
ATOM     18  C   UNL     1       1.335  -8.790   6.571  0.00  0.00    +0.030 A 
ATOM     19  C   UNL     1       2.608  -9.012   7.061  0.00  0.00    +0.003 A 
ATOM     20  C   UNL     1       3.692  -8.998   6.203  0.00  0.00    +0.021 A 
ATOM     21  C   UNL     1       3.503  -8.762   4.854  0.00  0.00    +0.061 A 
ATOM     22  C   UNL     1       2.227  -8.546   4.362  0.00  0.00    +0.086 A 
ATOM     23 CL   UNL     1       1.987  -8.257   2.667  0.00  0.00    -0.080 Cl
ATOM     24 CL   UNL     1       4.864  -8.745   3.776  0.00  0.00    -0.082 Cl
ENDBRANCH  14  17
ENDBRANCH   9  14
BRANCH   1  25
ATOM     25  C   UNL     1       1.329  -0.727   2.618  0.00  0.00    -0.020 C 
ATOM     26  C   UNL     1       2.851  -0.582   2.655  0.00  0.00    +0.006 C 
BRANCH  25  28
ATOM     27  C   UNL     1       1.016   1.637   1.875  0.00  0.00    +0.004 C 
ATOM     28  C   UNL     1       0.757   0.171   1.520  0.00  0.00    -0.001 C 
ENDBRANCH  25  28
ENDBRANCH   1  25
BRANCH   4  29
ATOM     29  C   UNL     1      -2.167  -4.008   3.310  0.00  0.00    +0.108 C 
BRANCH  29  30
ATOM     30  C   UNL     1      -2.705  -3.404   4.609  0.00  0.00    +0.047 C 
BRANCH  30  31
ATOM     31  C   UNL     1      -4.049  -4.049   4.953  0.00  0.00    +0.161 C 
BRANCH  31  32
ATOM     32  O   UNL     1      -4.552  -3.485   6.165  0.00  0.00    -0.383 OA
ATOM     33  C   UNL     1      -5.810  -4.022   6.578  0.00  0.00    +0.193 C 
ENDBRANCH  31  32
ENDBRANCH  30  31
ENDBRANCH  29  30
ENDBRANCH   4  29
TORSDOF 8
