REMARK  Name = ZINC50901452
REMARK  10 active torsions:
REMARK  status: ('A' for Active; 'I' for Inactive)
REMARK    1  A    between atoms: C_1  and  C_2
REMARK    2  A    between atoms: C_2  and  C_3
REMARK    3  A    between atoms: C_3  and  C_4
REMARK    4  A    between atoms: C_4  and  N_5
REMARK    5  A    between atoms: C_6  and  C_8
REMARK    6  A    between atoms: N_13  and  C_15
REMARK    7  A    between atoms: C_15  and  N_16
REMARK    8  A    between atoms: C_22  and  C_28
REMARK    9  A    between atoms: C_23  and  C_27
REMARK   10  A    between atoms: C_24  and  C_26
REMARK                            x       y       z     vdW  Elec       q    Type
REMARK                         _______ _______ _______ _____ _____    ______ ____
ROOT
ATOM      1  C   UNL     1      -4.465  -4.396  -0.294  0.00  0.00    +0.058 C 
ATOM      2  C   UNL     1      -5.079  -3.832   0.991  0.00  0.00    +0.009 C 
ATOM      3  C   UNL     1      -6.475  -4.431   1.184  0.00  0.00    -0.018 C 
ATOM      4  C   UNL     1      -6.368  -5.958   1.213  0.00  0.00    -0.076 C 
ATOM      5  N   UNL     1      -5.799  -6.437  -0.052  0.00  0.00    +0.393 N 
ATOM      6  C   UNL     1      -4.433  -5.923  -0.210  0.00  0.00    -0.064 C 
ATOM      7  H   UNL     1      -6.369  -6.114  -0.820  0.00  0.00    -0.079 HD
ENDROOT
BRANCH   1   9
ATOM      8  N   UNL     1      -2.844  -2.544  -0.546  0.00  0.00    -0.315 N 
ATOM      9  C   UNL     1      -3.061  -3.871  -0.453  0.00  0.00    +0.214 C 
ATOM     10  O   UNL     1      -2.126  -4.643  -0.497  0.00  0.00    -0.276 OA
ATOM     11  H   UNL     1      -3.591  -1.927  -0.510  0.00  0.00    +0.149 HD
BRANCH   8  12
ATOM     12  C   UNL     1      -1.479  -2.034  -0.700  0.00  0.00    +0.104 C 
BRANCH  12  13
ATOM     13  C   UNL     1      -1.512  -0.506  -0.781  0.00  0.00    +0.018 C 
BRANCH  13  15
ATOM     14  C   UNL     1      -0.119   1.554  -1.024  0.00  0.00    +0.004 C 
ATOM     15  C   UNL     1      -0.087   0.026  -0.943  0.00  0.00    -0.002 C 
ENDBRANCH  13  15
ENDBRANCH  12  13
ENDBRANCH   8  12
ENDBRANCH   1   9
BRANCH   5  16
ATOM     16  C   UNL     1      -5.771  -7.905  -0.050  0.00  0.00    +0.070 C 
BRANCH  16  17
ATOM     17  N   UNL     1      -7.142  -8.420  -0.047  0.00  0.00    -0.271 N 
ATOM     18  C   UNL     1      -7.811  -8.926   1.010  0.00  0.00    +0.197 A 
ATOM     19  S   UNL     1      -7.193  -9.078   2.599  0.00  0.00    -0.010 S 
ATOM     20  N   UNL     1      -9.031  -9.287   0.616  0.00  0.00    -0.185 NA
ATOM     21  C   UNL     1      -9.182  -9.030  -0.684  0.00  0.00    +0.253 A 
ATOM     22  N   UNL     1      -8.018  -8.477  -1.140  0.00  0.00    -0.222 N 
ATOM     23  C   UNL     1      -7.896  -8.111  -2.434  0.00  0.00    +0.046 A 
ATOM     24  C   UNL     1      -8.948  -8.297  -3.278  0.00  0.00    -0.008 A 
ATOM     25  C   UNL     1     -10.127  -8.861  -2.782  0.00  0.00    +0.047 A 
ATOM     26  N   UNL     1     -10.210  -9.214  -1.516  0.00  0.00    -0.216 NA
ATOM     27  C   UNL     1     -11.302  -9.073  -3.701  0.00  0.00    +0.066 C 
ATOM     28  C   UNL     1      -8.843  -7.898  -4.727  0.00  0.00    +0.047 C 
ATOM     29  C   UNL     1      -6.612  -7.505  -2.938  0.00  0.00    +0.066 C 
ENDBRANCH  16  17
ENDBRANCH   5  16
TORSDOF 6
