REMARK  Name = ZINC10876814
REMARK  6 active torsions:
REMARK  status: ('A' for Active; 'I' for Inactive)
REMARK    1  A    between atoms: C_13  and  C_17
REMARK    2  A    between atoms: C_17  and  O_19
REMARK    3  A    between atoms: O_19  and  C_20
REMARK    4  A    between atoms: C_20  and  C_21
REMARK    5  A    between atoms: N_23  and  C_24
REMARK    6  A    between atoms: C_25  and  C_33
REMARK                            x       y       z     vdW  Elec       q    Type
REMARK                         _______ _______ _______ _____ _____    ______ ____
ROOT
ATOM      1  O   UNL     1       3.603   6.236   0.104  0.00  0.00    -0.452 OA
ENDROOT
BRANCH   1   2
ATOM      2  C   UNL     1       2.442   5.559   0.009  0.00  0.00    +0.340 C 
ATOM      3  O   UNL     1       1.391   6.163  -0.071  0.00  0.00    -0.245 OA
BRANCH   2  16
ATOM      4  C   UNL     1      -1.336   1.895   4.846  0.00  0.00    +0.001 A 
ATOM      5  C   UNL     1      -1.350   3.277   4.864  0.00  0.00    +0.001 A 
ATOM      6  C   UNL     1      -0.612   3.998   3.941  0.00  0.00    +0.012 A 
ATOM      7  C   UNL     1       0.136   3.329   2.976  0.00  0.00    +0.033 A 
ATOM      8  C   UNL     1       0.145   1.922   2.954  0.00  0.00    +0.033 A 
ATOM      9  C   UNL     1      -0.594   1.213   3.897  0.00  0.00    +0.012 A 
ATOM     10  C   UNL     1       0.942   1.204   1.938  0.00  0.00    +0.195 C 
ATOM     11  O   UNL     1       0.953  -0.011   1.921  0.00  0.00    -0.287 OA
ATOM     12  C   UNL     1       1.719   1.965   0.936  0.00  0.00    +0.034 A 
ATOM     13  C   UNL     1       2.469   1.292  -0.028  0.00  0.00    +0.012 A 
ATOM     14  C   UNL     1       3.197   2.005  -0.964  0.00  0.00    +0.002 A 
ATOM     15  C   UNL     1       3.190   3.386  -0.956  0.00  0.00    +0.016 A 
ATOM     16  C   UNL     1       2.447   4.081   0.001  0.00  0.00    +0.070 A 
ATOM     17  C   UNL     1       1.705   3.367   0.955  0.00  0.00    +0.047 A 
ATOM     18  C   UNL     1       0.914   4.088   1.975  0.00  0.00    +0.195 C 
ATOM     19  O   UNL     1       0.903   5.303   1.990  0.00  0.00    -0.287 OA
ENDBRANCH   2  16
ENDBRANCH   1   2
BRANCH   1  20
ATOM     20  C   UNL     1       3.522   7.686   0.105  0.00  0.00    +0.328 C 
BRANCH  20  21
ATOM     21  C   UNL     1       4.908   8.266   0.218  0.00  0.00    +0.255 C 
ATOM     22  O   UNL     1       5.870   7.530   0.289  0.00  0.00    -0.272 OA
ATOM     23  N   UNL     1       5.080   9.603   0.239  0.00  0.00    -0.277 N 
ATOM     24  H   UNL     1       4.311  10.192   0.182  0.00  0.00    +0.155 HD
BRANCH  23  25
ATOM     25  C   UNL     1       6.355  10.137   0.342  0.00  0.00    +0.084 A 
ATOM     26  C   UNL     1       6.731  11.472   0.374  0.00  0.00    +0.068 A 
ATOM     27  C   UNL     1       8.149  11.768   0.491  0.00  0.00    -0.023 A 
ATOM     28  C   UNL     1       8.959  10.689   0.549  0.00  0.00    -0.004 A 
ATOM     29  S   UNL     1       7.867   9.299   0.456  0.00  0.00    -0.077 S 
ATOM     30  C   UNL     1      10.452  10.686   0.664  0.00  0.00    +0.043 C 
ATOM     31  C   UNL     1      10.966  12.094   0.333  0.00  0.00    +0.005 C 
ATOM     32  C   UNL     1      10.137  13.118   1.113  0.00  0.00    +0.005 C 
ATOM     33  C   UNL     1       8.718  13.181   0.544  0.00  0.00    +0.037 C 
BRANCH  26  34
ATOM     34  C   UNL     1       5.734  12.545   0.295  0.00  0.00    +0.244 C 
ATOM     35  O   UNL     1       5.237  12.989   1.313  0.00  0.00    -0.270 OA
ATOM     36  N   UNL     1       5.369  13.038  -0.905  0.00  0.00    -0.325 N 
ATOM     37  H   UNL     1       5.766  12.684  -1.716  0.00  0.00    +0.145 HD
ATOM     38  H   UNL     1       4.710  13.748  -0.957  0.00  0.00    +0.145 HD
ENDBRANCH  26  34
ENDBRANCH  23  25
ENDBRANCH  20  21
ENDBRANCH   1  20
TORSDOF 6
