REMARK  Name = ZINC17029189
REMARK  7 active torsions:
REMARK  status: ('A' for Active; 'I' for Inactive)
REMARK    1  A    between atoms: C_1  and  C_2
REMARK    2  A    between atoms: C_2  and  N_3
REMARK    3  A    between atoms: C_16  and  C_18
REMARK    4  A    between atoms: N_22  and  C_25
REMARK    5  A    between atoms: C_30  and  O_31
REMARK    6  A    between atoms: O_31  and  C_32
REMARK    7  A    between atoms: C_32  and  C_33
REMARK                            x       y       z     vdW  Elec       q    Type
REMARK                         _______ _______ _______ _____ _____    ______ ____
ROOT
ATOM      1  C   UNL     1       1.753  -2.331  -0.041  0.00  0.00    +0.074 A 
ATOM      2  C   UNL     1       1.354  -3.205   0.926  0.00  0.00    +0.260 A 
ATOM      3  N   UNL     1       2.226  -3.544   1.930  0.00  0.00    -0.274 N 
ATOM      4  C   UNL     1       3.465  -3.020   1.964  0.00  0.00    +0.337 A 
ATOM      5  N   UNL     1       3.877  -2.156   1.018  0.00  0.00    -0.225 N 
ATOM      6  C   UNL     1       3.054  -1.801   0.011  0.00  0.00    +0.267 A 
ATOM      7  O   UNL     1       3.434  -1.022  -0.846  0.00  0.00    -0.267 OA
ATOM      8  O   UNL     1       4.223  -3.332   2.862  0.00  0.00    -0.246 OA
ATOM      9  O   UNL     1       0.112  -3.732   0.897  0.00  0.00    -0.267 OA
ATOM     10  H   UNL     1       1.947  -4.166   2.621  0.00  0.00    +0.173 HD
ENDROOT
BRANCH   1  24
ATOM     11  N   UNL     1       0.690  -0.478  -1.207  0.00  0.00    +0.388 N 
ATOM     12  C   UNL     1      -0.079  -0.076  -2.393  0.00  0.00    -0.073 C 
ATOM     13  C   UNL     1       0.777  -0.281  -3.651  0.00  0.00    +0.019 C 
ATOM     14  C   UNL     1       1.349  -1.675  -3.598  0.00  0.00    -0.022 A 
ATOM     15  C   UNL     1       1.958  -2.460  -4.647  0.00  0.00    +0.003 A 
ATOM     16  C   UNL     1       2.212  -2.207  -5.999  0.00  0.00    +0.010 A 
ATOM     17  C   UNL     1       2.822  -3.208  -6.714  0.00  0.00    +0.001 A 
ATOM     18  C   UNL     1       3.174  -4.417  -6.136  0.00  0.00    +0.002 A 
ATOM     19  C   UNL     1       2.935  -4.694  -4.801  0.00  0.00    +0.026 A 
ATOM     20  C   UNL     1       2.317  -3.697  -4.050  0.00  0.00    +0.047 A 
ATOM     21  N   UNL     1       1.942  -3.640  -2.738  0.00  0.00    -0.359 N 
ATOM     22  H   UNL     1       2.067  -4.351  -2.090  0.00  0.00    +0.166 HD
ATOM     23  C   UNL     1       1.365  -2.428  -2.474  0.00  0.00    +0.011 A 
ATOM     24  C   UNL     1       0.814  -1.943  -1.154  0.00  0.00    +0.021 C 
ATOM     25  H   UNL     1       1.609  -0.066  -1.251  0.00  0.00    -0.080 HD
BRANCH  11  27
ATOM     26  C   UNL     1      -0.019   1.526   0.010  0.00  0.00    -0.017 C 
ATOM     27  C   UNL     1       0.002  -0.004   0.002  0.00  0.00    -0.081 C 
ENDBRANCH  11  27
ENDBRANCH   1  24
BRANCH   5  28
ATOM     28  C   UNL     1       5.174  -1.625   1.079  0.00  0.00    +0.096 A 
ATOM     29  C   UNL     1       6.221  -2.274   0.443  0.00  0.00    +0.030 A 
ATOM     30  C   UNL     1       7.498  -1.749   0.503  0.00  0.00    +0.002 A 
ATOM     31  C   UNL     1       7.735  -0.577   1.197  0.00  0.00    +0.004 A 
ATOM     32  C   UNL     1       6.696   0.076   1.833  0.00  0.00    +0.048 A 
ATOM     33  C   UNL     1       5.412  -0.440   1.772  0.00  0.00    +0.144 A 
BRANCH  33  34
ATOM     34  O   UNL     1       4.388   0.204   2.392  0.00  0.00    -0.490 OA
BRANCH  34  35
ATOM     35  C   UNL     1       4.706   1.413   3.083  0.00  0.00    +0.226 C 
ATOM     36  C   UNL     1       3.436   1.990   3.713  0.00  0.00    +0.048 C 
ENDBRANCH  34  35
ENDBRANCH  33  34
ENDBRANCH   5  28
TORSDOF 5
