REMARK  Name = ZINC40111256
REMARK  10 active torsions:
REMARK  status: ('A' for Active; 'I' for Inactive)
REMARK    1  A    between atoms: C_1  and  C_2
REMARK    2  A    between atoms: C_2  and  C_3
REMARK    3  A    between atoms: C_3  and  C_4
REMARK    4  A    between atoms: C_4  and  N_5
REMARK    5  A    between atoms: C_6  and  C_30
REMARK    6  A    between atoms: C_8  and  C_13
REMARK    7  A    between atoms: C_13  and  C_15
REMARK    8  A    between atoms: C_18  and  S_21
REMARK    9  A    between atoms: S_21  and  N_24
REMARK   10  A    between atoms: C_34  and  O_36
REMARK                            x       y       z     vdW  Elec       q    Type
REMARK                         _______ _______ _______ _____ _____    ______ ____
ROOT
ATOM      1  N   UNL     1       0.993  -2.292  -2.612  0.00  0.00    -0.284 N 
ATOM      2  C   UNL     1       0.816  -2.320  -4.069  0.00  0.00    +0.145 C 
ATOM      3  C   UNL     1       2.072  -2.942  -4.633  0.00  0.00    +0.076 C 
ATOM      4  C   UNL     1       2.872  -3.233  -3.580  0.00  0.00    +0.249 C 
ATOM      5  C   UNL     1       2.197  -2.821  -2.331  0.00  0.00    +0.288 C 
ATOM      6  O   UNL     1       2.661  -2.945  -1.215  0.00  0.00    -0.266 OA
ATOM      7  O   UNL     1       4.095  -3.804  -3.659  0.00  0.00    -0.282 OA
ENDROOT
BRANCH   2   8
ATOM      8  C   UNL     1       0.648  -0.919  -4.597  0.00  0.00    -0.019 A 
ATOM      9  C   UNL     1       1.531   0.074  -4.214  0.00  0.00    +0.006 A 
ATOM     10  C   UNL     1       1.380   1.361  -4.697  0.00  0.00    +0.004 A 
ATOM     11  C   UNL     1       0.345   1.657  -5.563  0.00  0.00    +0.045 A 
ATOM     12  C   UNL     1      -0.542   0.663  -5.949  0.00  0.00    +0.117 A 
ATOM     13  C   UNL     1      -0.385  -0.629  -5.467  0.00  0.00    +0.051 A 
BRANCH  12  14
ATOM     14  O   UNL     1      -1.561   0.952  -6.800  0.00  0.00    -0.507 OA
ATOM     15  H   UNL     1      -1.362   0.767  -7.728  0.00  0.00    +0.292 HD
ENDBRANCH  12  14
ENDBRANCH   2   8
BRANCH   3  16
ATOM     16  C   UNL     1       2.367  -3.185  -6.048  0.00  0.00    +0.195 C 
ATOM     17  O   UNL     1       3.277  -2.587  -6.591  0.00  0.00    -0.287 OA
BRANCH  16  18
ATOM     18  C   UNL     1       1.560  -4.156  -6.816  0.00  0.00    +0.022 A 
ATOM     19  C   UNL     1       0.547  -4.882  -6.184  0.00  0.00    +0.013 A 
ATOM     20  C   UNL     1      -0.203  -5.786  -6.907  0.00  0.00    +0.029 A 
ATOM     21  C   UNL     1       0.046  -5.976  -8.255  0.00  0.00    +0.106 A 
ATOM     22  C   UNL     1       1.048  -5.260  -8.887  0.00  0.00    +0.029 A 
ATOM     23  C   UNL     1       1.802  -4.348  -8.178  0.00  0.00    +0.013 A 
BRANCH  21  24
ATOM     24  S   UNL     1      -0.917  -7.133  -9.170  0.00  0.00    +0.061 S 
ATOM     25  O   UNL     1      -0.177  -7.438 -10.345  0.00  0.00    -0.153 OA
ATOM     26  O   UNL     1      -1.331  -8.134  -8.250  0.00  0.00    -0.153 OA
BRANCH  24  27
ATOM     27  N   UNL     1      -2.288  -6.348  -9.664  0.00  0.00    -0.177 NA
ATOM     28  C   UNL     1      -3.456  -6.252  -8.778  0.00  0.00    +0.109 C 
ATOM     29  C   UNL     1      -3.857  -4.779  -8.648  0.00  0.00    +0.017 C 
ATOM     30  C   UNL     1      -4.076  -4.189 -10.043  0.00  0.00    +0.003 C 
ATOM     31  C   UNL     1      -2.773  -4.266 -10.842  0.00  0.00    +0.017 C 
ATOM     32  C   UNL     1      -2.358  -5.728 -10.995  0.00  0.00    +0.109 C 
ENDBRANCH  24  27
ENDBRANCH  21  24
ENDBRANCH  16  18
ENDBRANCH   3  16
BRANCH   1  33
ATOM     33  C   UNL     1       0.030  -1.775  -1.637  0.00  0.00    +0.109 C 
BRANCH  33  34
ATOM     34  C   UNL     1       0.293  -0.286  -1.401  0.00  0.00    +0.019 C 
BRANCH  34  36
ATOM     35  C   UNL     1      -0.449   1.743  -0.146  0.00  0.00    +0.004 C 
ATOM     36  C   UNL     1      -0.712   0.255  -0.382  0.00  0.00    -0.002 C 
ENDBRANCH  34  36
ENDBRANCH  33  34
ENDBRANCH   1  33
TORSDOF 9
