REMARK  Name = ZINC09209626
REMARK  7 active torsions:
REMARK  status: ('A' for Active; 'I' for Inactive)
REMARK    1  A    between atoms: C_1  and  C_2
REMARK    2  A    between atoms: C_6  and  C_36
REMARK    3  A    between atoms: C_7  and  C_11
REMARK    4  A    between atoms: N_13  and  C_14
REMARK    5  A    between atoms: C_15  and  C_25
REMARK    6  A    between atoms: C_20  and  C_24
REMARK    7  A    between atoms: N_27  and  C_28
REMARK                            x       y       z     vdW  Elec       q    Type
REMARK                         _______ _______ _______ _____ _____    ______ ____
ROOT
ATOM      1  C   UNL     1       1.215   1.137  -5.321  0.00  0.00    +0.085 A 
ATOM      2  C   UNL     1       0.520   2.161  -4.694  0.00  0.00    +0.069 A 
ATOM      3  C   UNL     1       0.729   3.513  -5.184  0.00  0.00    -0.023 A 
ATOM      4  C   UNL     1       1.590   3.623  -6.220  0.00  0.00    -0.004 A 
ATOM      5  S   UNL     1       2.119   1.965  -6.545  0.00  0.00    -0.077 S 
ATOM      6  C   UNL     1       1.996   4.878  -6.927  0.00  0.00    +0.046 C 
ATOM      7  C   UNL     1       1.006   5.989  -6.548  0.00  0.00    -0.009 C 
ATOM      8  C   UNL     1       0.822   5.989  -5.028  0.00  0.00    +0.008 C 
ATOM      9  C   UNL     1       0.047   4.743  -4.597  0.00  0.00    +0.037 C 
ATOM     10  C   UNL     1       1.557   7.343  -6.998  0.00  0.00    +0.008 C 
ENDROOT
BRANCH   1  13
ATOM     11  C   UNL     1       1.941  -1.072  -5.763  0.00  0.00    +0.284 C 
ATOM     12  O   UNL     1       2.640  -0.652  -6.666  0.00  0.00    -0.266 OA
ATOM     13  N   UNL     1       1.190  -0.219  -5.039  0.00  0.00    -0.273 N 
ATOM     14  H   UNL     1       0.633  -0.554  -4.319  0.00  0.00    +0.156 HD
BRANCH  11  21
ATOM     15  C   UNL     1       0.706  -7.851  -3.040  0.00  0.00    +0.044 C 
ATOM     16  C   UNL     1       1.261  -6.745  -3.901  0.00  0.00    -0.047 A 
ATOM     17  C   UNL     1       2.165  -7.048  -4.910  0.00  0.00    +0.004 A 
ATOM     18  C   UNL     1       2.678  -6.059  -5.700  0.00  0.00    +0.012 A 
ATOM     19  C   UNL     1       2.289  -4.734  -5.490  0.00  0.00    +0.024 A 
ATOM     20  C   UNL     1       2.626  -3.460  -6.125  0.00  0.00    +0.008 A 
ATOM     21  C   UNL     1       1.914  -2.510  -5.464  0.00  0.00    +0.194 A 
ATOM     22  O   UNL     1       1.184  -3.087  -4.486  0.00  0.00    -0.450 OA
ATOM     23  C   UNL     1       1.373  -4.420  -4.469  0.00  0.00    +0.136 A 
ATOM     24  C   UNL     1       0.864  -5.444  -3.678  0.00  0.00    +0.050 A 
ATOM     25  C   UNL     1       3.571  -3.244  -7.279  0.00  0.00    +0.048 C 
ENDBRANCH  11  21
ENDBRANCH   1  13
BRANCH   2  26
ATOM     26  C   UNL     1      -0.387   1.891  -3.574  0.00  0.00    +0.247 C 
ATOM     27  O   UNL     1      -1.562   1.657  -3.786  0.00  0.00    -0.270 OA
ATOM     28  N   UNL     1       0.081   1.901  -2.310  0.00  0.00    -0.307 N 
ATOM     29  H   UNL     1       1.018   2.087  -2.141  0.00  0.00    +0.149 HD
BRANCH  28  30
ATOM     30  C   UNL     1      -0.825   1.630  -1.191  0.00  0.00    +0.096 C 
ATOM     31  C   UNL     1      -1.543   2.930  -0.792  0.00  0.00    +0.046 C 
ATOM     32  C   UNL     1      -2.247   2.694   0.575  0.00  0.00    +0.168 C 
ATOM     33  S   UNL     1      -0.951   1.717   1.458  0.00  0.00    -0.029 S 
ATOM     34  O   UNL     1      -1.568   0.623   2.122  0.00  0.00    -0.174 OA
ATOM     35  O   UNL     1      -0.121   2.605   2.195  0.00  0.00    -0.174 OA
ATOM     36  C   UNL     1      -0.013   1.086   0.008  0.00  0.00    +0.188 C 
ENDBRANCH  28  30
ENDBRANCH   2  26
TORSDOF 4
