REMARK  Name = ZINC35467709
REMARK  9 active torsions:
REMARK  status: ('A' for Active; 'I' for Inactive)
REMARK    1  A    between atoms: C_1  and  C_2
REMARK    2  A    between atoms: C_3  and  C_22
REMARK    3  A    between atoms: C_4  and  C_21
REMARK    4  A    between atoms: C_5  and  C_10
REMARK    5  A    between atoms: C_6  and  C_9
REMARK    6  A    between atoms: C_7  and  C_8
REMARK    7  A    between atoms: C_10  and  C_12
REMARK    8  A    between atoms: C_10  and  N_19
REMARK    9  A    between atoms: N_19  and  C_20
REMARK                            x       y       z     vdW  Elec       q    Type
REMARK                         _______ _______ _______ _____ _____    ______ ____
ROOT
ATOM      1  C   UNL     1       0.032  -4.227   0.135  0.00  0.00    -0.009 C 
ENDROOT
BRANCH   1   6
ATOM      2  C   UNL     1      -0.025   1.421   1.356  0.00  0.00    +0.044 C 
ATOM      3  C   UNL     1      -0.010  -0.052   1.037  0.00  0.00    -0.044 A 
ATOM      4  C   UNL     1      -0.264  -0.483  -0.251  0.00  0.00    -0.044 A 
ATOM      5  C   UNL     1      -0.250  -1.834  -0.543  0.00  0.00    -0.045 A 
ATOM      6  C   UNL     1       0.018  -2.754   0.453  0.00  0.00    -0.051 A 
ATOM      7  C   UNL     1       0.272  -2.323   1.742  0.00  0.00    -0.045 A 
ATOM      8  C   UNL     1       0.263  -0.972   2.033  0.00  0.00    -0.044 A 
ATOM      9  C   UNL     1       0.546  -0.501   3.436  0.00  0.00    +0.044 C 
ATOM     10  C   UNL     1       0.564  -3.326   2.828  0.00  0.00    +0.044 C 
ATOM     11  C   UNL     1      -0.528  -2.304  -1.948  0.00  0.00    +0.044 C 
ATOM     12  C   UNL     1      -0.556   0.519  -1.338  0.00  0.00    +0.044 C 
ENDBRANCH   1   6
BRANCH   1  13
ATOM     13  C   UNL     1      -1.352  -4.667  -0.271  0.00  0.00    -0.043 A 
ATOM     14  C   UNL     1      -1.611  -5.006  -1.586  0.00  0.00    +0.003 A 
ATOM     15  C   UNL     1      -2.879  -5.410  -1.959  0.00  0.00    +0.000 A 
ATOM     16  C   UNL     1      -3.889  -5.473  -1.017  0.00  0.00    +0.001 A 
ATOM     17  C   UNL     1      -3.631  -5.134   0.298  0.00  0.00    +0.015 A 
ATOM     18  C   UNL     1      -2.360  -4.735   0.672  0.00  0.00    +0.020 A 
ATOM     19 BR   UNL     1      -2.005  -4.278   2.472  0.00  0.00    -0.050 Br
ENDBRANCH   1  13
BRANCH   1  20
ATOM     20  N   UNL     1       0.969  -4.481  -0.967  0.00  0.00    +0.384 N 
ATOM     21  C   UNL     1       2.337  -4.177  -0.526  0.00  0.00    -0.099 C 
ATOM     22  H   UNL     1       0.912  -5.451  -1.240  0.00  0.00    -0.085 HD
ATOM     23  H   UNL     1       0.731  -3.896  -1.753  0.00  0.00    -0.085 HD
ENDBRANCH   1  20
TORSDOF 3
