REMARK  Name = ZINC39691257
REMARK  7 active torsions:
REMARK  status: ('A' for Active; 'I' for Inactive)
REMARK    1  A    between atoms: C_1  and  C_2
REMARK    2  A    between atoms: C_7  and  C_8
REMARK    3  A    between atoms: C_8  and  C_9
REMARK    4  A    between atoms: C_9  and  N_10
REMARK    5  A    between atoms: C_11  and  C_13
REMARK    6  A    between atoms: C_24  and  C_26
REMARK    7  A    between atoms: C_29  and  C_31
REMARK                            x       y       z     vdW  Elec       q    Type
REMARK                         _______ _______ _______ _____ _____    ______ ____
ROOT
ATOM      1  C   UNL     1      -2.571   2.266   6.027  0.00  0.00    +0.100 C 
ATOM      2  C   UNL     1      -1.717   3.548   5.913  0.00  0.00    +0.121 C 
ATOM      3  N   UNL     1      -2.690   4.619   5.591  0.00  0.00    -0.294 N 
ATOM      4  C   UNL     1      -3.877   4.299   6.419  0.00  0.00    +0.115 C 
ATOM      5  C   UNL     1      -3.988   2.763   6.362  0.00  0.00    -0.004 C 
ATOM      6  C   UNL     1      -4.967   2.345   5.269  0.00  0.00    -0.010 C 
ATOM      7  C   UNL     1      -6.377   2.801   5.653  0.00  0.00    -0.082 C 
ATOM      8  N   UNL     1      -6.757   2.197   6.936  0.00  0.00    +0.379 N 
ATOM      9  C   UNL     1      -5.866   2.676   7.999  0.00  0.00    -0.082 C 
ATOM     10  C   UNL     1      -4.434   2.215   7.714  0.00  0.00    -0.010 C 
ATOM     11  C   UNL     1      -2.531   5.650   4.738  0.00  0.00    +0.282 C 
ATOM     12  O   UNL     1      -3.432   6.454   4.580  0.00  0.00    -0.267 OA
ATOM     13  H   UNL     1      -7.709   2.449   7.157  0.00  0.00    -0.086 HD
ATOM     14  H   UNL     1      -6.686   1.192   6.866  0.00  0.00    -0.086 HD
ENDROOT
BRANCH  11  15
ATOM     15  C   UNL     1      -1.275   5.803   3.999  0.00  0.00    +0.190 A 
ATOM     16  C   UNL     1      -0.980   6.808   3.105  0.00  0.00    +0.055 A 
ATOM     17  C   UNL     1       0.317   6.567   2.640  0.00  0.00    +0.050 A 
ATOM     18  C   UNL     1       0.761   5.435   3.261  0.00  0.00    +0.136 A 
ATOM     19  O   UNL     1      -0.203   4.987   4.082  0.00  0.00    -0.450 OA
BRANCH  18  20
ATOM     20  C   UNL     1       2.085   4.810   3.067  0.00  0.00    +0.017 A 
ATOM     21  C   UNL     1       3.009   5.383   2.189  0.00  0.00    +0.014 A 
ATOM     22  C   UNL     1       4.243   4.795   2.012  0.00  0.00    +0.039 A 
ATOM     23  C   UNL     1       4.569   3.639   2.703  0.00  0.00    +0.123 A 
ATOM     24  C   UNL     1       3.657   3.066   3.575  0.00  0.00    +0.039 A 
ATOM     25  C   UNL     1       2.421   3.648   3.764  0.00  0.00    +0.014 A 
ATOM     26  F   UNL     1       5.780   3.068   2.526  0.00  0.00    -0.205 F 
ENDBRANCH  18  20
ENDBRANCH  11  15
BRANCH   1  28
ATOM     27  N   UNL     1      -2.735   0.181   4.705  0.00  0.00    -0.315 N 
ATOM     28  C   UNL     1      -2.574   1.519   4.718  0.00  0.00    +0.218 C 
ATOM     29  O   UNL     1      -2.431   2.123   3.675  0.00  0.00    -0.275 OA
ATOM     30  H   UNL     1      -2.849  -0.301   5.539  0.00  0.00    +0.149 HD
BRANCH  27  31
ATOM     31  C   UNL     1      -2.737  -0.544   3.432  0.00  0.00    +0.109 C 
BRANCH  31  32
ATOM     32  C   UNL     1      -2.935  -2.038   3.697  0.00  0.00    +0.054 C 
BRANCH  32  39
ATOM     33  C   UNL     1      -0.439  -2.865   2.501  0.00  0.00    +0.044 C 
ATOM     34  C   UNL     1      -1.743  -3.180   1.816  0.00  0.00    -0.047 A 
ATOM     35  C   UNL     1      -1.746  -3.870   0.618  0.00  0.00    +0.003 A 
ATOM     36  C   UNL     1      -2.942  -4.159  -0.011  0.00  0.00    +0.000 A 
ATOM     37  C   UNL     1      -4.137  -3.759   0.559  0.00  0.00    +0.000 A 
ATOM     38  C   UNL     1      -4.135  -3.070   1.757  0.00  0.00    +0.004 A 
ATOM     39  C   UNL     1      -2.938  -2.785   2.388  0.00  0.00    -0.043 A 
ENDBRANCH  32  39
ENDBRANCH  31  32
ENDBRANCH  27  31
ENDBRANCH   1  28
TORSDOF 6
