REMARK  Name = ZINC36219010
REMARK  13 active torsions:
REMARK  status: ('A' for Active; 'I' for Inactive)
REMARK    1  A    between atoms: C_1  and  C_2
REMARK    2  A    between atoms: C_5  and  C_8
REMARK    3  A    between atoms: C_8  and  N_9
REMARK    4  A    between atoms: C_10  and  C_30
REMARK    5  A    between atoms: C_12  and  C_17
REMARK    6  A    between atoms: C_21  and  N_23
REMARK    7  A    between atoms: C_24  and  C_26
REMARK    8  A    between atoms: C_26  and  C_27
REMARK    9  A    between atoms: C_27  and  C_28
REMARK   10  A    between atoms: C_27  and  C_29
REMARK   11  A    between atoms: N_32  and  C_33
REMARK   12  A    between atoms: C_33  and  C_35
REMARK   13  A    between atoms: C_33  and  C_36
REMARK                            x       y       z     vdW  Elec       q    Type
REMARK                         _______ _______ _______ _____ _____    ______ ____
ROOT
ATOM      1  N   UNL     1       1.438  -4.762  -0.037  0.00  0.00    -0.248 N 
ATOM      2  C   UNL     1       2.261  -5.023  -1.235  0.00  0.00    +0.210 C 
ATOM      3  C   UNL     1       3.686  -5.115  -0.639  0.00  0.00    +0.238 C 
ATOM      4  O   UNL     1       3.417  -5.484   0.727  0.00  0.00    -0.440 OA
ATOM      5  C   UNL     1       2.192  -5.031   1.045  0.00  0.00    +0.405 C 
ATOM      6  O   UNL     1       1.806  -4.882   2.187  0.00  0.00    -0.226 OA
ENDROOT
BRANCH   3   7
ATOM      7  C   UNL     1       4.493  -6.179  -1.337  0.00  0.00    -0.003 A 
ATOM      8  C   UNL     1       4.318  -7.510  -1.001  0.00  0.00    +0.007 A 
ATOM      9  C   UNL     1       5.056  -8.489  -1.639  0.00  0.00    +0.002 A 
ATOM     10  C   UNL     1       5.971  -8.142  -2.614  0.00  0.00    +0.023 A 
ATOM     11  C   UNL     1       6.149  -6.808  -2.953  0.00  0.00    +0.034 A 
ATOM     12  C   UNL     1       5.402  -5.826  -2.314  0.00  0.00    +0.030 A 
BRANCH  11  13
ATOM     13  N   UNL     1       7.076  -6.453  -3.939  0.00  0.00    -0.285 N 
ATOM     14  C   UNL     1       8.224  -7.147  -4.067  0.00  0.00    +0.217 C 
ATOM     15  O   UNL     1       8.417  -8.130  -3.383  0.00  0.00    -0.275 OA
ATOM     16  H   UNL     1       6.891  -5.707  -4.532  0.00  0.00    +0.155 HD
BRANCH  14  17
ATOM     17  C   UNL     1       9.268  -6.702  -5.059  0.00  0.00    +0.099 C 
BRANCH  17  18
ATOM     18  C   UNL     1      10.463  -7.655  -5.003  0.00  0.00    -0.008 C 
ATOM     19  C   UNL     1      11.467  -7.277  -6.095  0.00  0.00    +0.008 C 
ATOM     20  C   UNL     1      11.136  -7.550  -3.633  0.00  0.00    +0.008 C 
ENDBRANCH  17  18
ENDBRANCH  14  17
ENDBRANCH  11  13
ENDBRANCH   3   7
BRANCH   2  21
ATOM     21  C   UNL     1       1.862  -6.322  -1.887  0.00  0.00    +0.238 C 
ATOM     22  O   UNL     1       1.231  -7.146  -1.261  0.00  0.00    -0.274 OA
ATOM     23  N   UNL     1       2.208  -6.568  -3.166  0.00  0.00    -0.307 N 
ATOM     24  H   UNL     1       2.714  -5.909  -3.667  0.00  0.00    +0.149 HD
BRANCH  23  25
ATOM     25  C   UNL     1       1.821  -7.830  -3.800  0.00  0.00    +0.100 C 
ATOM     26  C   UNL     1       0.403  -7.705  -4.362  0.00  0.00    +0.033 C 
BRANCH  25  27
ATOM     27  C   UNL     1       2.779  -8.145  -4.920  0.00  0.00    -0.027 A 
ATOM     28  C   UNL     1       3.237  -7.132  -5.743  0.00  0.00    +0.005 A 
ATOM     29  C   UNL     1       4.115  -7.420  -6.770  0.00  0.00    +0.000 A 
ATOM     30  C   UNL     1       4.537  -8.721  -6.975  0.00  0.00    +0.000 A 
ATOM     31  C   UNL     1       4.080  -9.733  -6.152  0.00  0.00    +0.000 A 
ATOM     32  C   UNL     1       3.204  -9.444  -5.122  0.00  0.00    +0.005 A 
ENDBRANCH  25  27
ENDBRANCH  23  25
ENDBRANCH   2  21
BRANCH   1  33
ATOM     33  C   UNL     1       0.051  -4.289  -0.028  0.00  0.00    +0.147 C 
BRANCH  33  38
ATOM     34  C   UNL     1      -0.017   1.489   0.041  0.00  0.00    +0.044 C 
ATOM     35  C   UNL     1       0.001  -0.018   0.023  0.00  0.00    -0.050 A 
ATOM     36  C   UNL     1       0.007  -0.695  -1.182  0.00  0.00    +0.003 A 
ATOM     37  C   UNL     1       0.024  -2.077  -1.199  0.00  0.00    +0.005 A 
ATOM     38  C   UNL     1       0.034  -2.783  -0.010  0.00  0.00    -0.030 A 
ATOM     39  C   UNL     1       0.029  -2.106   1.195  0.00  0.00    +0.005 A 
ATOM     40  C   UNL     1       0.017  -0.724   1.212  0.00  0.00    +0.003 A 
ENDBRANCH  33  38
ENDBRANCH   1  33
TORSDOF 9
