REMARK  Name = ZINC07127598
REMARK  5 active torsions:
REMARK  status: ('A' for Active; 'I' for Inactive)
REMARK    1  A    between atoms: C_1  and  C_2
REMARK    2  A    between atoms: C_2  and  O_3
REMARK    3  A    between atoms: O_3  and  C_4
REMARK    4  A    between atoms: C_9  and  C_10
REMARK    5  A    between atoms: C_26  and  C_29
REMARK                            x       y       z     vdW  Elec       q    Type
REMARK                         _______ _______ _______ _____ _____    ______ ____
ROOT
ATOM      1  C   UNL     1      -3.583   1.484  -0.604  0.00  0.00    +0.212 C 
ATOM      2  N   UNL     1      -2.373   0.919   0.018  0.00  0.00    -0.293 N 
ATOM      3  C   UNL     1      -1.205   1.634   0.017  0.00  0.00    +0.183 C 
ATOM      4  N   UNL     1      -1.207   2.955   0.029  0.00  0.00    -0.183 NA
ATOM      5  C   UNL     1      -2.395   3.599  -0.039  0.00  0.00    +0.236 A 
ATOM      6  N   UNL     1      -3.571   2.925  -0.323  0.00  0.00    -0.285 N 
ATOM      7  C   UNL     1      -4.585   3.834  -0.284  0.00  0.00    +0.072 A 
ATOM      8  C   UNL     1      -5.957   3.732  -0.474  0.00  0.00    +0.028 A 
ATOM      9  C   UNL     1      -6.701   4.895  -0.358  0.00  0.00    +0.002 A 
ATOM     10  C   UNL     1      -6.116   6.114  -0.064  0.00  0.00    +0.002 A 
ATOM     11  C   UNL     1      -4.753   6.244   0.132  0.00  0.00    +0.030 A 
ATOM     12  C   UNL     1      -3.980   5.082   0.019  0.00  0.00    +0.091 A 
ATOM     13  N   UNL     1      -2.656   4.871   0.152  0.00  0.00    -0.210 NA
ATOM     14  N   UNL     1      -0.011   0.966   0.007  0.00  0.00    -0.331 N 
ATOM     15  H   UNL     1      -2.404   0.041   0.429  0.00  0.00    +0.151 HD
ATOM     16  H   UNL     1       0.002  -0.004   0.002  0.00  0.00    +0.145 HD
ATOM     17  H   UNL     1       0.822   1.462   0.002  0.00  0.00    +0.145 HD
ENDROOT
BRANCH   1  23
ATOM     18  C   UNL     1      -4.733   1.306  -2.822  0.00  0.00    +0.128 A 
ATOM     19  C   UNL     1      -4.704   1.084  -4.192  0.00  0.00    +0.053 A 
ATOM     20  C   UNL     1      -3.509   0.809  -4.818  0.00  0.00    +0.001 A 
ATOM     21  C   UNL     1      -2.323   0.754  -4.096  0.00  0.00    +0.125 A 
ATOM     22  C   UNL     1      -2.359   0.979  -2.723  0.00  0.00    +0.056 A 
ATOM     23  C   UNL     1      -3.556   1.247  -2.092  0.00  0.00    +0.038 A 
ATOM     24  O   UNL     1      -1.263   0.484  -4.909  0.00  0.00    -0.488 OA
ATOM     25  C   UNL     1      -1.742  -0.086  -6.139  0.00  0.00    +0.175 C 
ATOM     26  C   UNL     1      -3.162   0.517  -6.265  0.00  0.00    +0.083 C 
ATOM     27  C   UNL     1      -1.808  -1.611  -6.045  0.00  0.00    +0.052 C 
BRANCH  18  28
ATOM     28  O   UNL     1      -5.911   1.579  -2.200  0.00  0.00    -0.492 OA
BRANCH  28  30
ATOM     29  C   UNL     1      -8.300   1.942  -2.147  0.00  0.00    +0.048 C 
ATOM     30  C   UNL     1      -7.082   1.623  -3.017  0.00  0.00    +0.225 C 
ENDBRANCH  28  30
ENDBRANCH  18  28
ENDBRANCH   1  23
TORSDOF 3
