REMARK  Name = ZINC21148501
REMARK  14 active torsions:
REMARK  status: ('A' for Active; 'I' for Inactive)
REMARK    1  A    between atoms: C_1  and  C_2
REMARK    2  A    between atoms: C_2  and  C_3
REMARK    3  A    between atoms: C_3  and  C_4
REMARK    4  A    between atoms: C_4  and  N_5
REMARK    5  A    between atoms: N_5  and  C_6
REMARK    6  A    between atoms: N_5  and  C_10
REMARK    7  A    between atoms: C_6  and  C_7
REMARK    8  A    between atoms: C_7  and  C_8
REMARK    9  A    between atoms: C_8  and  C_9
REMARK   10  A    between atoms: C_10  and  C_11
REMARK   11  A    between atoms: C_11  and  C_12
REMARK   12  A    between atoms: C_12  and  N_13
REMARK   13  A    between atoms: C_14  and  C_16
REMARK   14  A    between atoms: C_29  and  C_33
REMARK                            x       y       z     vdW  Elec       q    Type
REMARK                         _______ _______ _______ _____ _____    ______ ____
ROOT
ATOM      1  N   UNL     1       3.535   9.335   1.466  0.00  0.00    -0.315 N 
ATOM      2  C   UNL     1       4.761   9.036   0.991  0.00  0.00    +0.218 C 
ATOM      3  O   UNL     1       5.749   9.356   1.618  0.00  0.00    -0.275 OA
ATOM      4  H   UNL     1       2.639   9.044   0.898  0.00  0.00    +0.149 HD
ENDROOT
BRANCH   2   5
ATOM      5  C   UNL     1       4.903   8.302  -0.318  0.00  0.00    +0.092 C 
ATOM      6  C   UNL     1       6.388   8.085  -0.622  0.00  0.00    +0.016 C 
ATOM      7  C   UNL     1       6.522   7.287  -1.923  0.00  0.00    +0.020 C 
ATOM      8  C   UNL     1       5.775   5.959  -1.780  0.00  0.00    +0.107 C 
ATOM      9  N   UNL     1       4.359   6.222  -1.490  0.00  0.00    -0.307 N 
ATOM     10  C   UNL     1       4.203   6.945  -0.222  0.00  0.00    +0.119 C 
ATOM     11  C   UNL     1       3.628   5.047  -1.484  0.00  0.00    +0.184 A 
ATOM     12  N   UNL     1       4.034   3.825  -1.708  0.00  0.00    -0.139 NA
ATOM     13  N   UNL     1       3.154   2.748  -1.661  0.00  0.00    -0.170 N 
ATOM     14  C   UNL     1       3.450   1.432  -1.874  0.00  0.00    +0.275 A 
ATOM     15  O   UNL     1       4.595   1.099  -2.139  0.00  0.00    -0.266 OA
ATOM     16  C   UNL     1       2.444   0.470  -1.789  0.00  0.00    +0.095 A 
ATOM     17  C   UNL     1       1.154   0.855  -1.490  0.00  0.00    +0.046 A 
ATOM     18  N   UNL     1       0.901   2.145  -1.288  0.00  0.00    -0.227 NA
ATOM     19  C   UNL     1       1.852   3.041  -1.369  0.00  0.00    +0.200 A 
ATOM     20  S   UNL     1       1.887   4.809  -1.169  0.00  0.00    -0.013 S 
ATOM     21  C   UNL     1       0.052  -0.168  -1.392  0.00  0.00    +0.066 C 
ENDBRANCH   2   5
BRANCH   1  22
ATOM     22  C   UNL     1       3.397  10.047   2.739  0.00  0.00    +0.102 C 
BRANCH  22  23
ATOM     23  C   UNL     1       1.913  10.261   3.045  0.00  0.00    +0.000 C 
BRANCH  23  24
ATOM     24  C   UNL     1       1.768  11.005   4.374  0.00  0.00    -0.077 C 
BRANCH  24  25
ATOM     25  N   UNL     1       0.343  11.209   4.668  0.00  0.00    +0.380 N 
ATOM     26  H   UNL     1      -0.120  11.675   3.786  0.00  0.00    -0.082 HD
BRANCH  25  27
ATOM     27  C   UNL     1      -0.334   9.928   4.909  0.00  0.00    -0.079 C 
BRANCH  27  28
ATOM     28  C   UNL     1       0.302   9.235   6.116  0.00  0.00    -0.019 C 
BRANCH  28  30
ATOM     29  C   UNL     1       0.254   7.193   7.555  0.00  0.00    +0.004 C 
ATOM     30  C   UNL     1      -0.382   7.886   6.348  0.00  0.00    -0.005 C 
ENDBRANCH  28  30
ENDBRANCH  27  28
ENDBRANCH  25  27
BRANCH  25  31
ATOM     31  C   UNL     1       0.166  12.121   5.806  0.00  0.00    -0.079 C 
BRANCH  31  32
ATOM     32  C   UNL     1      -1.280  12.618   5.841  0.00  0.00    -0.019 C 
BRANCH  32  33
ATOM     33  C   UNL     1      -1.465  13.566   7.027  0.00  0.00    -0.005 C 
ATOM     34  C   UNL     1      -2.912  14.063   7.062  0.00  0.00    +0.004 C 
ENDBRANCH  32  33
ENDBRANCH  31  32
ENDBRANCH  25  31
ENDBRANCH  24  25
ENDBRANCH  23  24
ENDBRANCH  22  23
ENDBRANCH   1  22
TORSDOF 11
