REMARK  Name = ZINC36300822
REMARK  4 active torsions:
REMARK  status: ('A' for Active; 'I' for Inactive)
REMARK    1  A    between atoms: C_1  and  C_2
REMARK    2  A    between atoms: C_11  and  C_24
REMARK    3  A    between atoms: C_12  and  C_14
REMARK    4  A    between atoms: C_24  and  C_25
REMARK                            x       y       z     vdW  Elec       q    Type
REMARK                         _______ _______ _______ _____ _____    ______ ____
ROOT
ATOM      1  C   UNL     1       0.266   1.503   0.019  0.00  0.00    +0.008 C 
ATOM      2  C   UNL     1       0.240  -0.027   0.016  0.00  0.00    -0.009 C 
ATOM      3  C   UNL     1      -1.210  -0.517  -0.046  0.00  0.00    +0.010 C 
ATOM      4  C   UNL     1      -1.239  -2.026  -0.286  0.00  0.00    +0.055 C 
ATOM      5  C   UNL     1      -0.360  -2.711   0.759  0.00  0.00    +0.036 A 
ATOM      6  C   UNL     1       0.559  -2.010   1.433  0.00  0.00    +0.013 A 
ATOM      7  S   UNL     1       1.305  -3.210   2.506  0.00  0.00    -0.054 S 
ATOM      8  C   UNL     1       0.334  -4.608   1.990  0.00  0.00    +0.179 A 
ATOM      9  N   UNL     1      -0.488  -4.067   1.040  0.00  0.00    -0.293 N 
ATOM     10  C   UNL     1      -1.276  -5.125   0.599  0.00  0.00    +0.063 A 
ATOM     11  C   UNL     1      -0.900  -6.230   1.288  0.00  0.00    +0.094 A 
ATOM     12  N   UNL     1       0.091  -5.878   2.134  0.00  0.00    -0.221 NA
ATOM     13  C   UNL     1       0.885  -0.556   1.306  0.00  0.00    +0.047 C 
ENDROOT
BRANCH  11  14
ATOM     14  C   UNL     1      -1.477  -7.588   1.139  0.00  0.00    +0.006 A 
ATOM     15  C   UNL     1      -1.748  -8.360   2.268  0.00  0.00    +0.014 A 
ATOM     16  C   UNL     1      -2.284  -9.623   2.127  0.00  0.00    +0.050 A 
ATOM     17  C   UNL     1      -2.555 -10.131   0.863  0.00  0.00    +0.162 A 
ATOM     18  C   UNL     1      -2.289  -9.364  -0.266  0.00  0.00    +0.163 A 
ATOM     19  C   UNL     1      -1.755  -8.093  -0.129  0.00  0.00    +0.059 A 
ATOM     20  O   UNL     1      -2.556  -9.843  -1.512  0.00  0.00    -0.485 OA
ATOM     21  C   UNL     1      -2.747 -11.257  -1.631  0.00  0.00    +0.270 C 
ATOM     22  C   UNL     1      -3.688 -11.711  -0.506  0.00  0.00    +0.270 C 
ATOM     23  O   UNL     1      -3.079 -11.382   0.747  0.00  0.00    -0.485 OA
ENDBRANCH  11  14
BRANCH  10  24
ATOM     24  C   UNL     1      -2.352  -5.055  -0.454  0.00  0.00    +0.181 C 
BRANCH  24  25
ATOM     25  C   UNL     1      -1.730  -5.193  -1.819  0.00  0.00    +0.362 C 
ATOM     26  O   UNL     1      -0.523  -5.334  -1.927  0.00  0.00    -0.246 OA
ATOM     27  O   UNL     1      -2.432  -5.163  -2.815  0.00  0.00    -0.246 OA
ENDBRANCH  24  25
ENDBRANCH  10  24
TORSDOF 3
