REMARK  Name = ZINC18200775
REMARK  11 active torsions:
REMARK  status: ('A' for Active; 'I' for Inactive)
REMARK    1  A    between atoms: C_1  and  C_2
REMARK    2  A    between atoms: C_2  and  C_3
REMARK    3  A    between atoms: C_2  and  C_4
REMARK    4  A    between atoms: C_2  and  C_5
REMARK    5  A    between atoms: C_7  and  C_16
REMARK    6  A    between atoms: C_9  and  C_12
REMARK    7  A    between atoms: C_10  and  O_11
REMARK    8  A    between atoms: C_12  and  C_13
REMARK    9  A    between atoms: C_12  and  C_14
REMARK   10  A    between atoms: C_12  and  C_15
REMARK   11  A    between atoms: C_34  and  C_37
REMARK                            x       y       z     vdW  Elec       q    Type
REMARK                         _______ _______ _______ _____ _____    ______ ____
ROOT
ATOM      1  C   UNL     1       2.921   7.551  -0.003  0.00  0.00    +0.092 C 
ATOM      2  C   UNL     1       3.429   8.032  -1.330  0.00  0.00    +0.067 A 
ATOM      3  C   UNL     1       3.251   7.290  -2.458  0.00  0.00    +0.113 A 
ATOM      4  N   UNL     1       3.722   7.760  -3.661  0.00  0.00    -0.295 N 
ATOM      5  H   UNL     1       3.591   7.220  -4.492  0.00  0.00    +0.172 HD
ATOM      6  C   UNL     1       4.358   8.944  -3.725  0.00  0.00    +0.328 A 
ATOM      7  O   UNL     1       4.768   9.346  -4.797  0.00  0.00    -0.247 OA
ATOM      8  N   UNL     1       4.546   9.690  -2.622  0.00  0.00    -0.275 N 
ATOM      9  H   UNL     1       5.023  10.567  -2.691  0.00  0.00    +0.173 HD
ATOM     10  C   UNL     1       4.099   9.266  -1.423  0.00  0.00    +0.260 A 
ATOM     11  O   UNL     1       4.272   9.947  -0.427  0.00  0.00    -0.267 OA
ATOM     12  N   UNL     1       2.608   6.080  -2.393  0.00  0.00    -0.303 N 
ATOM     13  C   UNL     1       2.492   5.415  -1.202  0.00  0.00    +0.017 C 
ATOM     14  C   UNL     1       2.634   6.071  -0.032  0.00  0.00    +0.024 C 
ATOM     15  C   UNL     1       2.517   5.396   1.197  0.00  0.00    +0.162 C 
ATOM     16  O   UNL     1       2.668   6.013   2.233  0.00  0.00    -0.292 OA
ATOM     17  C   UNL     1       2.208   3.925   1.252  0.00  0.00    +0.088 C 
ATOM     18  C   UNL     1       1.402   3.539   0.007  0.00  0.00    +0.039 C 
ATOM     19  C   UNL     1       2.206   3.933  -1.233  0.00  0.00    +0.060 C 
ATOM     20  H   UNL     1       2.232   5.692  -3.199  0.00  0.00    +0.153 HD
ENDROOT
BRANCH   1  23
ATOM     21  C   UNL     1       0.443   9.769   1.783  0.00  0.00    -0.000 A 
ATOM     22  C   UNL     1       1.603   9.088   1.468  0.00  0.00    +0.012 A 
ATOM     23  C   UNL     1       1.654   8.293   0.338  0.00  0.00    -0.034 A 
ATOM     24  C   UNL     1       0.547   8.182  -0.482  0.00  0.00    +0.012 A 
ATOM     25  C   UNL     1      -0.617   8.857  -0.169  0.00  0.00    -0.000 A 
ATOM     26  C   UNL     1      -0.671   9.655   0.964  0.00  0.00    +0.124 A 
BRANCH  21  28
ATOM     27  C   UNL     1       1.738  10.585   3.734  0.00  0.00    +0.015 C 
ATOM     28  C   UNL     1       0.388  10.635   3.015  0.00  0.00    -0.009 C 
ATOM     29  C   UNL     1       0.078  12.078   2.611  0.00  0.00    +0.015 C 
ATOM     30  C   UNL     1      -0.708  10.121   3.951  0.00  0.00    +0.015 C 
ENDBRANCH  21  28
BRANCH  25  31
ATOM     31  C   UNL     1      -1.825   8.730  -1.061  0.00  0.00    -0.009 C 
ATOM     32  C   UNL     1      -1.501   7.799  -2.230  0.00  0.00    +0.015 C 
ATOM     33  C   UNL     1      -2.994   8.154  -0.258  0.00  0.00    +0.015 C 
ATOM     34  C   UNL     1      -2.208  10.110  -1.599  0.00  0.00    +0.015 C 
ENDBRANCH  25  31
BRANCH  26  35
ATOM     35  O   UNL     1      -1.813  10.324   1.272  0.00  0.00    -0.506 OA
ATOM     36  H   UNL     1      -1.867  11.209   0.887  0.00  0.00    +0.292 HD
ENDBRANCH  26  35
ENDBRANCH   1  23
BRANCH  18  37
ATOM     37  C   UNL     1       1.160   2.051   0.002  0.00  0.00    -0.006 A 
ATOM     38  C   UNL     1      -0.017   1.378   0.010  0.00  0.00    +0.011 A 
ATOM     39  C   UNL     1       0.002  -0.004   0.002  0.00  0.00    +0.008 A 
ATOM     40  C   UNL     1       1.196  -0.645  -0.013  0.00  0.00    +0.045 A 
ATOM     41  S   UNL     1       2.348   0.719  -0.017  0.00  0.00    -0.101 S 
ENDBRANCH  18  37
TORSDOF 5
