REMARK  Name = ZINC10068806
REMARK  7 active torsions:
REMARK  status: ('A' for Active; 'I' for Inactive)
REMARK    1  A    between atoms: C_1  and  N_56
REMARK    2  A    between atoms: C_2  and  N_56
REMARK    3  A    between atoms: C_3  and  C_4
REMARK    4  A    between atoms: C_3  and  N_56
REMARK    5  A    between atoms: C_4  and  C_5
REMARK    6  A    between atoms: C_5  and  N_6
REMARK    7  A    between atoms: C_18  and  C_20
REMARK                            x       y       z     vdW  Elec       q    Type
REMARK                         _______ _______ _______ _____ _____    ______ ____
ROOT
ATOM      1  N   UNL     1      -3.707   7.578  -0.025  0.00  0.00    -0.246 N 
ATOM      2  C   UNL     1      -4.871   8.324  -0.114  0.00  0.00    +0.168 A 
ATOM      3  N   UNL     1      -5.013   9.629  -0.124  0.00  0.00    -0.221 NA
ATOM      4  C   UNL     1      -6.222  10.226  -0.217  0.00  0.00    +0.116 A 
ATOM      5  C   UNL     1      -6.512  11.612  -0.240  0.00  0.00    +0.152 A 
ATOM      6  C   UNL     1      -7.806  12.056  -0.341  0.00  0.00    +0.079 A 
ATOM      7  C   UNL     1      -8.872  11.169  -0.425  0.00  0.00    +0.127 A 
ATOM      8  C   UNL     1      -8.623   9.807  -0.406  0.00  0.00    +0.055 A 
ATOM      9  C   UNL     1      -7.330   9.355  -0.305  0.00  0.00    +0.046 A 
ATOM     10  S   UNL     1      -6.559   7.755  -0.254  0.00  0.00    -0.052 S 
ATOM     11  F   UNL     1     -10.138  11.630  -0.524  0.00  0.00    -0.205 F 
ATOM     12  F   UNL     1      -5.503  12.507  -0.160  0.00  0.00    -0.203 F 
ATOM     13  C   UNL     1      -2.514   8.198   0.068  0.00  0.00    +0.259 C 
ATOM     14  O   UNL     1      -2.465   9.409   0.176  0.00  0.00    -0.269 OA
ENDROOT
BRANCH  13  15
ATOM     15  C   UNL     1      -1.272   7.411   0.040  0.00  0.00    +0.122 A 
ATOM     16  C   UNL     1      -1.007   6.541  -1.010  0.00  0.00    +0.032 A 
ATOM     17  C   UNL     1       0.194   5.808  -0.995  0.00  0.00    +0.026 A 
ATOM     18  C   UNL     1       0.514   4.878  -2.081  0.00  0.00    -0.007 A 
ATOM     19  C   UNL     1      -0.353   4.687  -3.159  0.00  0.00    +0.009 A 
ATOM     20  C   UNL     1      -0.013   3.815  -4.153  0.00  0.00    +0.001 A 
ATOM     21  C   UNL     1       1.182   3.104  -4.100  0.00  0.00    +0.001 A 
ATOM     22  C   UNL     1       2.049   3.268  -3.062  0.00  0.00    +0.008 A 
ATOM     23  C   UNL     1       1.733   4.161  -2.026  0.00  0.00    -0.017 A 
ATOM     24  C   UNL     1       2.604   4.356  -0.936  0.00  0.00    +0.012 A 
ATOM     25  C   UNL     1       2.295   5.221   0.062  0.00  0.00    +0.047 A 
ATOM     26  C   UNL     1       1.104   5.957   0.062  0.00  0.00    +0.140 A 
ATOM     27  O   UNL     1       0.844   6.804   1.079  0.00  0.00    -0.422 OA
ATOM     28  C   UNL     1      -0.286   7.529   1.118  0.00  0.00    +0.350 A 
ATOM     29  O   UNL     1      -0.492   8.285   2.050  0.00  0.00    -0.244 OA
ENDBRANCH  13  15
BRANCH   1  30
ATOM     30  C   UNL     1      -3.774   6.115  -0.031  0.00  0.00    +0.114 C 
BRANCH  30  31
ATOM     31  C   UNL     1      -4.032   5.609   1.389  0.00  0.00    +0.001 C 
BRANCH  31  32
ATOM     32  C   UNL     1      -4.225   4.092   1.364  0.00  0.00    -0.078 C 
BRANCH  32  35
ATOM     33  C   UNL     1      -5.014   2.216   2.675  0.00  0.00    -0.097 C 
ATOM     34  C   UNL     1      -3.485   3.818   3.653  0.00  0.00    -0.097 C 
ATOM     35  N   UNL     1      -4.614   3.638   2.716  0.00  0.00    +0.376 N 
ATOM     36  H   UNL     1      -5.409   4.200   3.040  0.00  0.00    -0.083 HD
ENDBRANCH  32  35
ENDBRANCH  31  32
ENDBRANCH  30  31
ENDBRANCH   1  30
TORSDOF 5
