REMARK  Name = ZINC62039071
REMARK  8 active torsions:
REMARK  status: ('A' for Active; 'I' for Inactive)
REMARK    1  A    between atoms: C_1  and  C_2
REMARK    2  A    between atoms: C_7  and  C_11
REMARK    3  A    between atoms: N_13  and  C_14
REMARK    4  A    between atoms: C_15  and  C_28
REMARK    5  A    between atoms: C_20  and  C_24
REMARK    6  A    between atoms: C_24  and  C_25
REMARK    7  A    between atoms: C_24  and  C_26
REMARK    8  A    between atoms: C_24  and  C_27
REMARK                            x       y       z     vdW  Elec       q    Type
REMARK                         _______ _______ _______ _____ _____    ______ ____
ROOT
ATOM      1  C   UNL     1       0.112  -6.716   4.338  0.00  0.00    +0.085 A 
ATOM      2  C   UNL     1       0.115  -6.908   5.710  0.00  0.00    +0.068 A 
ATOM      3  C   UNL     1       0.137  -8.280   6.189  0.00  0.00    -0.023 A 
ATOM      4  C   UNL     1       0.151  -9.207   5.207  0.00  0.00    -0.004 A 
ATOM      5  S   UNL     1       0.129  -8.271   3.706  0.00  0.00    -0.077 S 
ATOM      6  C   UNL     1       0.176 -10.695   5.375  0.00  0.00    +0.046 C 
ATOM      7  C   UNL     1       0.564 -11.009   6.828  0.00  0.00    -0.000 C 
ATOM      8  C   UNL     1      -0.286 -10.147   7.765  0.00  0.00    +0.009 C 
ATOM      9  C   UNL     1       0.143  -8.681   7.656  0.00  0.00    +0.037 C 
ENDROOT
BRANCH   2  10
ATOM     10  C   UNL     1       0.098  -5.775   6.641  0.00  0.00    +0.244 C 
ATOM     11  O   UNL     1      -0.963  -5.321   7.027  0.00  0.00    -0.270 OA
ATOM     12  N   UNL     1       1.258  -5.236   7.067  0.00  0.00    -0.325 N 
ATOM     13  H   UNL     1       2.103  -5.598   6.759  0.00  0.00    +0.145 HD
ATOM     14  H   UNL     1       1.246  -4.487   7.683  0.00  0.00    +0.145 HD
ENDBRANCH   2  10
BRANCH   1  17
ATOM     15  C   UNL     1       0.087  -5.515   2.298  0.00  0.00    +0.268 C 
ATOM     16  O   UNL     1       0.098  -6.567   1.689  0.00  0.00    -0.268 OA
ATOM     17  N   UNL     1       0.093  -5.516   3.646  0.00  0.00    -0.274 N 
ATOM     18  H   UNL     1       0.085  -4.676   4.131  0.00  0.00    +0.156 HD
BRANCH  15  25
ATOM     19  C   UNL     1      -0.018   1.503   0.010  0.00  0.00    +0.044 C 
ATOM     20  C   UNL     1       0.002  -0.004   0.002  0.00  0.00    -0.046 A 
ATOM     21  C   UNL     1       0.006  -0.703  -1.218  0.00  0.00    +0.021 A 
ATOM     22  C   UNL     1       0.024  -2.051  -1.230  0.00  0.00    +0.093 A 
ATOM     23  N   UNL     1       0.039  -2.759  -0.060  0.00  0.00    -0.306 N 
ATOM     24  C   UNL     1       0.059  -4.095   0.203  0.00  0.00    +0.125 A 
ATOM     25  C   UNL     1       0.067  -4.237   1.561  0.00  0.00    +0.144 A 
ATOM     26  N   UNL     1       0.053  -3.008   2.111  0.00  0.00    -0.223 NA
ATOM     27  C   UNL     1       0.036  -2.104   1.146  0.00  0.00    +0.139 A 
ATOM     28  C   UNL     1       0.022  -0.693   1.173  0.00  0.00    +0.050 A 
ENDBRANCH  15  25
ENDBRANCH   1  17
BRANCH   7  29
ATOM     29  C   UNL     1       0.308 -12.490   7.117  0.00  0.00    -0.035 C 
ATOM     30  C   UNL     1       1.149 -13.347   6.169  0.00  0.00    +0.011 C 
ATOM     31  C   UNL     1       0.694 -12.801   8.564  0.00  0.00    +0.011 C 
ATOM     32  C   UNL     1      -1.175 -12.802   6.907  0.00  0.00    +0.011 C 
ENDBRANCH   7  29
TORSDOF 4
