REMARK  Name = ZINC08846525
REMARK  7 active torsions:
REMARK  status: ('A' for Active; 'I' for Inactive)
REMARK    1  A    between atoms: N_9  and  C_30
REMARK    2  A    between atoms: C_10  and  C_12
REMARK    3  A    between atoms: C_12  and  N_13
REMARK    4  A    between atoms: C_14  and  C_15
REMARK    5  A    between atoms: C_19  and  C_23
REMARK    6  A    between atoms: C_30  and  N_32
REMARK    7  A    between atoms: N_32  and  C_33
REMARK                            x       y       z     vdW  Elec       q    Type
REMARK                         _______ _______ _______ _____ _____    ______ ____
ROOT
ATOM      1  C   UNL     1      -1.236   3.133   0.031  0.00  0.00    +0.000 A 
ATOM      2  C   UNL     1      -1.220   1.751   0.012  0.00  0.00    +0.000 A 
ATOM      3  C   UNL     1      -0.014   1.081   0.003  0.00  0.00    +0.006 A 
ATOM      4  C   UNL     1       1.183   1.784  -0.003  0.00  0.00    -0.022 A 
ATOM      5  C   UNL     1       1.168   3.161   0.004  0.00  0.00    -0.041 A 
ATOM      6  C   UNL     1      -0.048   3.833   0.025  0.00  0.00    +0.004 A 
ATOM      7  C   UNL     1       2.425   3.991  -0.019  0.00  0.00    +0.054 C 
ATOM      8  C   UNL     1       3.628   3.170   0.442  0.00  0.00    +0.112 C 
ATOM      9  N   UNL     1       3.598   1.883  -0.274  0.00  0.00    -0.304 N 
ATOM     10  C   UNL     1       2.465   0.991  -0.006  0.00  0.00    +0.127 C 
ENDROOT
BRANCH   9  11
ATOM     11  C   UNL     1       4.572   1.540  -1.139  0.00  0.00    +0.134 C 
ATOM     12  S   UNL     1       5.808   2.659  -1.525  0.00  0.00    -0.019 S 
BRANCH  11  13
ATOM     13  N   UNL     1       4.573   0.314  -1.700  0.00  0.00    -0.324 N 
ATOM     14  H   UNL     1       3.736  -0.376  -1.517  0.00  0.00    +0.148 HD
BRANCH  13  15
ATOM     15  C   UNL     1       5.689  -0.099  -2.555  0.00  0.00    +0.072 C 
ATOM     16  C   UNL     1       5.425   0.331  -4.013  0.00  0.00    +0.022 C 
ATOM     17  C   UNL     1       5.991  -0.835  -4.861  0.00  0.00    +0.002 C 
ATOM     18  C   UNL     1       5.610  -2.082  -4.026  0.00  0.00    +0.002 C 
ATOM     19  C   UNL     1       5.807  -1.633  -2.564  0.00  0.00    +0.022 C 
ENDBRANCH  13  15
ENDBRANCH  11  13
ENDBRANCH   9  11
BRANCH  10  20
ATOM     20  C   UNL     1       2.654   0.323   1.357  0.00  0.00    +0.168 C 
BRANCH  20  21
ATOM     21  N   UNL     1       3.955  -0.349   1.396  0.00  0.00    -0.289 NA
ATOM     22  C   UNL     1       4.339  -1.008   2.504  0.00  0.00    +0.119 C 
BRANCH  22  23
ATOM     23  C   UNL     1       5.572  -1.646   2.540  0.00  0.00    +0.077 C 
ATOM     24  C   UNL     1       6.501  -1.640   1.391  0.00  0.00    +0.169 C 
ATOM     25  O   UNL     1       6.654  -0.654   0.700  0.00  0.00    -0.292 OA
ATOM     26  C   UNL     1       7.256  -2.921   1.120  0.00  0.00    +0.088 C 
ATOM     27  C   UNL     1       7.888  -3.413   2.425  0.00  0.00    +0.034 C 
ATOM     28  C   UNL     1       6.798  -3.675   3.468  0.00  0.00    +0.088 C 
ATOM     29  C   UNL     1       6.048  -2.384   3.728  0.00  0.00    +0.169 C 
ATOM     30  O   UNL     1       5.848  -1.978   4.854  0.00  0.00    -0.292 OA
BRANCH  27  31
ATOM     31  C   UNL     1       8.647  -4.688   2.164  0.00  0.00    -0.043 A 
ATOM     32  C   UNL     1       7.982  -5.803   1.688  0.00  0.00    +0.007 A 
ATOM     33  C   UNL     1       8.678  -6.972   1.444  0.00  0.00    +0.038 A 
ATOM     34  C   UNL     1      10.040  -7.029   1.685  0.00  0.00    +0.123 A 
ATOM     35  C   UNL     1      10.704  -5.914   2.167  0.00  0.00    +0.038 A 
ATOM     36  C   UNL     1      10.007  -4.745   2.406  0.00  0.00    +0.007 A 
ATOM     37  F   UNL     1      10.720  -8.172   1.451  0.00  0.00    -0.205 F 
ENDBRANCH  27  31
ENDBRANCH  22  23
ENDBRANCH  20  21
ENDBRANCH  10  20
TORSDOF 7
