REMARK  Name = ZINC25643650
REMARK  10 active torsions:
REMARK  status: ('A' for Active; 'I' for Inactive)
REMARK    1  A    between atoms: C_1  and  C_2
REMARK    2  A    between atoms: C_2  and  C_4
REMARK    3  A    between atoms: C_2  and  O_20
REMARK    4  A    between atoms: N_6  and  C_7
REMARK    5  A    between atoms: C_10  and  N_17
REMARK    6  A    between atoms: C_12  and  C_13
REMARK    7  A    between atoms: O_20  and  C_21
REMARK    8  A    between atoms: C_21  and  C_23
REMARK    9  A    between atoms: C_23  and  C_24
REMARK   10  A    between atoms: N_27  and  C_29
REMARK                            x       y       z     vdW  Elec       q    Type
REMARK                         _______ _______ _______ _____ _____    ______ ____
ROOT
ATOM      1  C   UNL     1       4.583  -0.665  -1.066  0.00  0.00    +0.062 C 
ATOM      2  C   UNL     1       3.744  -0.963   0.178  0.00  0.00    +0.259 C 
ENDROOT
BRANCH   2   3
ATOM      3  C   UNL     1       2.426  -0.238   0.080  0.00  0.00    +0.258 C 
ATOM      4  O   UNL     1       1.388  -0.864   0.087  0.00  0.00    -0.271 OA
ATOM      5  N   UNL     1       2.403   1.107  -0.015  0.00  0.00    -0.282 N 
ATOM      6  H   UNL     1       3.344   1.669  -0.095  0.00  0.00    +0.155 HD
BRANCH   5   7
ATOM      7  C   UNL     1       1.180   1.787  -0.010  0.00  0.00    +0.045 A 
ATOM      8  C   UNL     1       0.064   1.216  -0.609  0.00  0.00    +0.026 A 
ATOM      9  C   UNL     1      -1.140   1.892  -0.607  0.00  0.00    +0.034 A 
ATOM     10  C   UNL     1      -1.238   3.131  -0.001  0.00  0.00    +0.127 A 
ATOM     11  C   UNL     1      -0.130   3.702   0.596  0.00  0.00    +0.047 A 
ATOM     12  C   UNL     1       1.079   3.033   0.593  0.00  0.00    +0.078 A 
BRANCH  12  13
ATOM     13  C   UNL     1       2.287   3.656   1.244  0.00  0.00    +0.419 C 
ATOM     14  F   UNL     1       1.939   4.902   1.777  0.00  0.00    -0.166 F 
ATOM     15  F   UNL     1       2.747   2.822   2.268  0.00  0.00    -0.166 F 
ATOM     16  F   UNL     1       3.297   3.823   0.289  0.00  0.00    -0.166 F 
ENDBRANCH  12  13
BRANCH  10  17
ATOM     17  N   UNL     1      -2.532   3.851   0.003  0.00  0.00    +0.056 N 
ATOM     18  O   UNL     1      -2.619   4.944   0.532  0.00  0.00    -0.126 OA
ATOM     19  O   UNL     1      -3.510   3.349  -0.522  0.00  0.00    -0.126 OA
ENDBRANCH  10  17
ENDBRANCH   5   7
ENDBRANCH   2   3
BRANCH   2  20
ATOM     20  O   UNL     1       3.504  -2.392   0.269  0.00  0.00    -0.452 OA
BRANCH  20  21
ATOM     21  C   UNL     1       4.403  -3.119   0.951  0.00  0.00    +0.312 C 
ATOM     22  O   UNL     1       5.359  -2.578   1.456  0.00  0.00    -0.250 OA
BRANCH  21  23
ATOM     23  C   UNL     1       4.221  -4.608   1.089  0.00  0.00    +0.158 C 
BRANCH  23  24
ATOM     24  C   UNL     1       5.358  -5.182   1.894  0.00  0.00    +0.001 A 
ATOM     25  C   UNL     1       5.386  -5.335   3.284  0.00  0.00    +0.139 A 
ATOM     26  N   UNL     1       6.536  -5.867   3.614  0.00  0.00    -0.175 NA
ATOM     27  N   UNL     1       7.277  -6.069   2.443  0.00  0.00    -0.240 N 
ATOM     28  C   UNL     1       6.529  -5.644   1.399  0.00  0.00    +0.118 A 
BRANCH  27  29
ATOM     29  C   UNL     1       8.565  -6.619   2.366  0.00  0.00    +0.065 A 
ATOM     30  C   UNL     1       9.184  -6.769   1.132  0.00  0.00    +0.028 A 
ATOM     31  C   UNL     1      10.454  -7.307   1.060  0.00  0.00    +0.002 A 
ATOM     32  C   UNL     1      11.104  -7.706   2.213  0.00  0.00    +0.000 A 
ATOM     33  C   UNL     1      10.488  -7.562   3.442  0.00  0.00    +0.002 A 
ATOM     34  C   UNL     1       9.220  -7.020   3.522  0.00  0.00    +0.028 A 
ENDBRANCH  27  29
ENDBRANCH  23  24
ENDBRANCH  21  23
ENDBRANCH  20  21
ENDBRANCH   2  20
TORSDOF 9
