REMARK  Name = ZINC40873731
REMARK  10 active torsions:
REMARK  status: ('A' for Active; 'I' for Inactive)
REMARK    1  A    between atoms: C_1  and  N_2
REMARK    2  A    between atoms: N_2  and  C_3
REMARK    3  A    between atoms: C_3  and  C_4
REMARK    4  A    between atoms: C_4  and  C_5
REMARK    5  A    between atoms: C_5  and  C_8
REMARK    6  A    between atoms: C_11  and  N_14
REMARK    7  A    between atoms: N_19  and  C_26
REMARK    8  A    between atoms: C_21  and  C_22
REMARK    9  A    between atoms: C_29  and  O_32
REMARK   10  A    between atoms: O_32  and  C_33
REMARK                            x       y       z     vdW  Elec       q    Type
REMARK                         _______ _______ _______ _____ _____    ______ ____
ROOT
ATOM      1  N   UNL     1       5.898   0.411  -4.754  0.00  0.00    -0.266 N 
ATOM      2  C   UNL     1       5.931   1.861  -4.614  0.00  0.00    +0.119 C 
ATOM      3  C   UNL     1       7.320   2.389  -4.247  0.00  0.00    +0.059 C 
ATOM      4  C   UNL     1       8.340   1.713  -5.118  0.00  0.00    +0.016 A 
ATOM      5  C   UNL     1       8.133   0.435  -5.638  0.00  0.00    +0.133 A 
ATOM      6  N   UNL     1       9.234   0.130  -6.356  0.00  0.00    -0.227 N 
ATOM      7  N   UNL     1      10.061   1.121  -6.308  0.00  0.00    -0.161 NA
ATOM      8  C   UNL     1       9.579   2.104  -5.578  0.00  0.00    +0.170 A 
ATOM      9  C   UNL     1       6.886  -0.288  -5.360  0.00  0.00    +0.270 C 
ATOM     10  O   UNL     1       6.747  -1.458  -5.662  0.00  0.00    -0.268 OA
ENDROOT
BRANCH   1  14
ATOM     11  C   UNL     1       2.635  -1.670  -3.213  0.00  0.00    -0.041 A 
ATOM     12  C   UNL     1       3.878  -1.797  -2.619  0.00  0.00    +0.006 A 
ATOM     13  C   UNL     1       4.962  -1.109  -3.128  0.00  0.00    +0.024 A 
ATOM     14  C   UNL     1       4.803  -0.288  -4.237  0.00  0.00    +0.037 A 
ATOM     15  C   UNL     1       3.553  -0.163  -4.831  0.00  0.00    +0.024 A 
ATOM     16  C   UNL     1       2.475  -0.858  -4.321  0.00  0.00    +0.006 A 
BRANCH  11  17
ATOM     17  C   UNL     1       1.455  -2.423  -2.655  0.00  0.00    -0.006 C 
ATOM     18  C   UNL     1       0.742  -1.821  -1.442  0.00  0.00    +0.012 C 
ATOM     19  C   UNL     1       0.072  -1.788  -2.817  0.00  0.00    +0.012 C 
BRANCH  17  20
ATOM     20  C   UNL     1       1.546  -3.948  -2.736  0.00  0.00    -0.008 C 
BRANCH  20  21
ATOM     21  C   UNL     1       1.171  -4.407  -4.146  0.00  0.00    -0.082 C 
BRANCH  21  23
ATOM     22  C   UNL     1       1.012  -6.299  -5.612  0.00  0.00    -0.101 C 
ATOM     23  N   UNL     1       1.372  -5.858  -4.258  0.00  0.00    +0.377 N 
ATOM     24  H   UNL     1       0.790  -6.332  -3.584  0.00  0.00    -0.086 HD
ATOM     25  H   UNL     1       2.341  -6.078  -4.080  0.00  0.00    -0.086 HD
ENDBRANCH  21  23
ENDBRANCH  20  21
ENDBRANCH  17  20
ENDBRANCH  11  17
ENDBRANCH   1  14
BRANCH   6  26
ATOM     26  C   UNL     1       9.447  -1.073  -7.042  0.00  0.00    +0.066 A 
ATOM     27  C   UNL     1       8.428  -1.627  -7.805  0.00  0.00    +0.031 A 
ATOM     28  C   UNL     1       8.639  -2.812  -8.482  0.00  0.00    +0.048 A 
ATOM     29  C   UNL     1       9.869  -3.448  -8.400  0.00  0.00    +0.120 A 
ATOM     30  C   UNL     1      10.888  -2.895  -7.638  0.00  0.00    +0.048 A 
ATOM     31  C   UNL     1      10.680  -1.708  -6.965  0.00  0.00    +0.031 A 
BRANCH  29  32
ATOM     32  O   UNL     1      10.076  -4.614  -9.067  0.00  0.00    -0.495 OA
ATOM     33  C   UNL     1      11.366  -5.215  -8.938  0.00  0.00    +0.277 C 
ENDBRANCH  29  32
ENDBRANCH   6  26
BRANCH   8  34
ATOM     34  C   UNL     1      10.258   3.420  -5.296  0.00  0.00    +0.436 C 
ATOM     35  F   UNL     1      11.031   3.307  -4.136  0.00  0.00    -0.164 F 
ATOM     36  F   UNL     1      11.083   3.759  -6.374  0.00  0.00    -0.164 F 
ATOM     37  F   UNL     1       9.292   4.415  -5.117  0.00  0.00    -0.164 F 
ENDBRANCH   8  34
TORSDOF 8
