REMARK  Name = ZINC13500178
REMARK  12 active torsions:
REMARK  status: ('A' for Active; 'I' for Inactive)
REMARK    1  A    between atoms: C_1  and  C_2
REMARK    2  A    between atoms: C_2  and  C_3
REMARK    3  A    between atoms: C_3  and  C_4
REMARK    4  A    between atoms: C_4  and  C_6
REMARK    5  A    between atoms: C_4  and  N_73
REMARK    6  A    between atoms: N_10  and  C_11
REMARK    7  A    between atoms: C_16  and  C_17
REMARK    8  A    between atoms: C_16  and  N_73
REMARK    9  A    between atoms: C_21  and  O_29
REMARK   10  A    between atoms: O_29  and  C_30
REMARK   11  A    between atoms: C_30  and  C_31
REMARK   12  A    between atoms: C_32  and  N_73
REMARK                            x       y       z     vdW  Elec       q    Type
REMARK                         _______ _______ _______ _____ _____    ______ ____
ROOT
ATOM      1  N   UNL     1      -2.812   0.708  -1.001  0.00  0.00    +0.391 N 
ATOM      2  H   UNL     1      -2.693   1.610  -1.476  0.00  0.00    -0.080 HD
ENDROOT
BRANCH   1   3
ATOM      3  C   UNL     1      -1.702  -0.188  -1.387  0.00  0.00    -0.067 C 
ATOM      4  C   UNL     1      -1.925  -1.615  -0.845  0.00  0.00    -0.015 C 
ATOM      5  C   UNL     1      -0.505  -2.098  -0.453  0.00  0.00    -0.002 C 
ATOM      6  C   UNL     1       0.143  -0.818   0.131  0.00  0.00    -0.002 C 
ATOM      7  C   UNL     1      -0.387   0.318  -0.768  0.00  0.00    -0.015 C 
ENDBRANCH   1   3
BRANCH   1   8
ATOM      8  C   UNL     1      -4.103   0.117  -1.409  0.00  0.00    +0.003 C 
BRANCH   8   9
ATOM      9  C   UNL     1      -3.930  -0.606  -2.720  0.00  0.00    +0.138 A 
ATOM     10  N   UNL     1      -3.246  -0.190  -3.758  0.00  0.00    -0.115 NA
ATOM     11  N   UNL     1      -3.338  -1.086  -4.680  0.00  0.00    -0.023 NA
ATOM     12  N   UNL     1      -4.063  -2.062  -4.257  0.00  0.00    -0.044 NA
ATOM     13  N   UNL     1      -4.442  -1.806  -3.050  0.00  0.00    -0.228 N 
BRANCH  13  14
ATOM     14  C   UNL     1      -5.277  -2.659  -2.201  0.00  0.00    +0.111 C 
ATOM     15  C   UNL     1      -4.612  -4.040  -2.022  0.00  0.00    +0.027 C 
ATOM     16  C   UNL     1      -5.799  -5.036  -2.025  0.00  0.00    +0.002 C 
ATOM     17  C   UNL     1      -6.749  -4.434  -3.089  0.00  0.00    +0.002 C 
ATOM     18  C   UNL     1      -6.636  -2.909  -2.879  0.00  0.00    +0.027 C 
ENDBRANCH  13  14
ENDBRANCH   8   9
BRANCH   8  19
ATOM     19  C   UNL     1      -5.124   1.243  -1.579  0.00  0.00    -0.008 C 
BRANCH  19  21
ATOM     20  C   UNL     1      -6.101   3.284  -0.518  0.00  0.00    +0.004 C 
ATOM     21  C   UNL     1      -5.013   2.214  -0.401  0.00  0.00    -0.005 C 
ENDBRANCH  19  21
ENDBRANCH   8  19
ENDBRANCH   1   8
BRANCH   1  22
ATOM     22  C   UNL     1      -2.797   0.928   0.461  0.00  0.00    -0.036 C 
BRANCH  22  23
ATOM     23  C   UNL     1      -3.168  -0.337   1.190  0.00  0.00    +0.001 A 
ATOM     24  C   UNL     1      -2.213  -1.047   1.841  0.00  0.00    +0.017 A 
ATOM     25  C   UNL     1      -2.606  -2.275   2.535  0.00  0.00    +0.002 A 
ATOM     26  C   UNL     1      -1.663  -3.050   3.219  0.00  0.00    +0.055 A 
ATOM     27  C   UNL     1      -2.067  -4.202   3.864  0.00  0.00    +0.121 A 
ATOM     28  C   UNL     1      -3.404  -4.592   3.834  0.00  0.00    +0.047 A 
ATOM     29  C   UNL     1      -4.341  -3.837   3.165  0.00  0.00    +0.030 A 
ATOM     30  C   UNL     1      -3.955  -2.673   2.509  0.00  0.00    +0.049 A 
ATOM     31  N   UNL     1      -4.879  -1.902   1.832  0.00  0.00    -0.322 N 
ATOM     32  H   UNL     1      -5.809  -2.177   1.815  0.00  0.00    +0.169 HD
ATOM     33  C   UNL     1      -4.509  -0.776   1.198  0.00  0.00    +0.251 A 
ATOM     34  O   UNL     1      -5.353  -0.120   0.611  0.00  0.00    -0.268 OA
BRANCH  27  35
ATOM     35  O   UNL     1      -1.155  -4.959   4.530  0.00  0.00    -0.492 OA
BRANCH  35  36
ATOM     36  C   UNL     1      -1.639  -6.138   5.175  0.00  0.00    +0.225 C 
ATOM     37  C   UNL     1      -0.478  -6.854   5.867  0.00  0.00    +0.048 C 
ENDBRANCH  35  36
ENDBRANCH  27  35
ENDBRANCH  22  23
ENDBRANCH   1  22
TORSDOF 10
