REMARK  Name = ZINC34729713
REMARK  7 active torsions:
REMARK  status: ('A' for Active; 'I' for Inactive)
REMARK    1  A    between atoms: C_1  and  C_2
REMARK    2  A    between atoms: C_2  and  C_3
REMARK    3  A    between atoms: C_3  and  N_4
REMARK    4  A    between atoms: N_12  and  C_15
REMARK    5  A    between atoms: C_15  and  C_16
REMARK    6  A    between atoms: N_18  and  C_19
REMARK    7  A    between atoms: C_24  and  C_25
REMARK                            x       y       z     vdW  Elec       q    Type
REMARK                         _______ _______ _______ _____ _____    ______ ____
ROOT
ATOM      1  N   UNL     1      -1.424  -2.015  -0.004  0.00  0.00    -0.260 N 
ATOM      2  C   UNL     1      -1.412  -2.664  -1.182  0.00  0.00    +0.265 A 
ATOM      3  O   UNL     1      -1.426  -2.042  -2.229  0.00  0.00    -0.267 OA
ATOM      4  C   UNL     1      -1.382  -4.143  -1.191  0.00  0.00    +0.074 A 
ATOM      5  C   UNL     1      -1.365  -5.048  -2.340  0.00  0.00    -0.023 A 
ATOM      6  C   UNL     1      -1.338  -6.358  -2.028  0.00  0.00    -0.004 A 
ATOM      7  S   UNL     1      -1.333  -6.399  -0.260  0.00  0.00    -0.075 S 
ATOM      8  C   UNL     1      -1.367  -4.759   0.059  0.00  0.00    +0.097 A 
ATOM      9  N   UNL     1      -1.381  -4.019   1.213  0.00  0.00    -0.278 N 
ATOM     10  C   UNL     1      -1.403  -2.674   1.166  0.00  0.00    +0.333 A 
ATOM     11  O   UNL     1      -1.410  -2.042   2.204  0.00  0.00    -0.246 OA
ATOM     12  C   UNL     1      -1.318  -7.512  -2.984  0.00  0.00    +0.043 C 
ATOM     13  C   UNL     1      -1.714  -6.992  -4.374  0.00  0.00    +0.005 C 
ATOM     14  C   UNL     1      -0.905  -5.729  -4.680  0.00  0.00    +0.005 C 
ATOM     15  C   UNL     1      -1.377  -4.578  -3.788  0.00  0.00    +0.037 C 
ENDROOT
BRANCH   1  16
ATOM     16  C   UNL     1      -1.454  -0.550   0.002  0.00  0.00    +0.130 C 
BRANCH  16  18
ATOM     17  C   UNL     1      -0.055   1.520   0.003  0.00  0.00    +0.005 C 
ATOM     18  C   UNL     1      -0.023  -0.010  -0.004  0.00  0.00    +0.018 C 
ENDBRANCH  16  18
ENDBRANCH   1  16
BRANCH   9  19
ATOM     19  C   UNL     1      -1.365  -4.699   2.511  0.00  0.00    +0.223 C 
BRANCH  19  20
ATOM     20  C   UNL     1       0.060  -4.902   2.954  0.00  0.00    +0.237 C 
ATOM     21  O   UNL     1       0.974  -4.517   2.255  0.00  0.00    -0.274 OA
ATOM     22  N   UNL     1       0.321  -5.512   4.128  0.00  0.00    -0.284 N 
ATOM     23  H   UNL     1      -0.408  -5.748   4.724  0.00  0.00    +0.155 HD
BRANCH  22  24
ATOM     24  C   UNL     1       1.641  -5.805   4.486  0.00  0.00    +0.036 A 
ATOM     25  C   UNL     1       2.610  -5.963   3.504  0.00  0.00    +0.023 A 
ATOM     26  C   UNL     1       3.912  -6.252   3.861  0.00  0.00    +0.002 A 
ATOM     27  C   UNL     1       4.252  -6.385   5.195  0.00  0.00    +0.000 A 
ATOM     28  C   UNL     1       3.289  -6.228   6.175  0.00  0.00    +0.005 A 
ATOM     29  C   UNL     1       1.986  -5.933   5.825  0.00  0.00    -0.029 A 
ATOM     30  C   UNL     1       0.939  -5.756   6.894  0.00  0.00    +0.045 C 
ENDBRANCH  22  24
ENDBRANCH  19  20
ENDBRANCH   9  19
TORSDOF 5
