REMARK  Name = ZINC38743491
REMARK  9 active torsions:
REMARK  status: ('A' for Active; 'I' for Inactive)
REMARK    1  A    between atoms: C_1  and  C_2
REMARK    2  A    between atoms: C_2  and  C_3
REMARK    3  A    between atoms: C_2  and  C_4
REMARK    4  A    between atoms: C_2  and  O_27
REMARK    5  A    between atoms: C_8  and  C_13
REMARK    6  A    between atoms: C_16  and  C_19
REMARK    7  A    between atoms: C_22  and  O_25
REMARK    8  A    between atoms: O_25  and  C_26
REMARK    9  A    between atoms: O_27  and  C_28
REMARK                            x       y       z     vdW  Elec       q    Type
REMARK                         _______ _______ _______ _____ _____    ______ ____
ROOT
ATOM      1  C   UNL     1      -1.400  -0.600  -0.273  0.00  0.00    +0.195 C 
ATOM      2  N   UNL     1      -1.409  -2.080  -0.130  0.00  0.00    -0.264 N 
ATOM      3  N   UNL     1      -2.507  -2.592   0.495  0.00  0.00    -0.222 N 
ATOM      4  C   UNL     1      -3.155  -3.812   0.574  0.00  0.00    +0.181 A 
ATOM      5  N   UNL     1      -4.156  -3.682   1.394  0.00  0.00    -0.129 NA
ATOM      6  N   UNL     1      -4.212  -2.475   1.836  0.00  0.00    -0.121 NA
ATOM      7  C   UNL     1      -3.253  -1.778   1.309  0.00  0.00    +0.211 A 
ATOM      8  S   UNL     1      -2.479  -0.180   1.164  0.00  0.00    -0.057 S 
ATOM      9  H   UNL     1      -1.257  -2.530  -1.021  0.00  0.00    +0.168 HD
ENDROOT
BRANCH   4  10
ATOM     10  C   UNL     1      -2.770  -5.069  -0.162  0.00  0.00    +0.222 C 
ATOM     11  C   UNL     1      -3.758  -5.361  -1.277  0.00  0.00    +0.039 C 
ATOM     12  C   UNL     1      -4.283  -6.555  -0.939  0.00  0.00    +0.091 C 
ATOM     13  N   UNL     1      -3.736  -7.001   0.223  0.00  0.00    -0.153 NA
ATOM     14  N   UNL     1      -2.892  -6.244   0.717  0.00  0.00    -0.171 NA
BRANCH  12  15
ATOM     15  C   UNL     1      -5.312  -7.281  -1.723  0.00  0.00    +0.002 A 
ATOM     16  C   UNL     1      -5.802  -6.733  -2.908  0.00  0.00    +0.013 A 
ATOM     17  C   UNL     1      -6.758  -7.410  -3.635  0.00  0.00    +0.046 A 
ATOM     18  C   UNL     1      -7.234  -8.636  -3.188  0.00  0.00    +0.120 A 
ATOM     19  C   UNL     1      -6.748  -9.183  -2.008  0.00  0.00    +0.046 A 
ATOM     20  C   UNL     1      -5.787  -8.514  -1.280  0.00  0.00    +0.013 A 
BRANCH  18  21
ATOM     21  O   UNL     1      -8.176  -9.300  -3.906  0.00  0.00    -0.495 OA
ATOM     22  C   UNL     1      -8.621 -10.555  -3.388  0.00  0.00    +0.277 C 
ENDBRANCH  18  21
ENDBRANCH  12  15
ENDBRANCH   4  10
BRANCH   1  24
ATOM     23  C   UNL     1      -0.069   1.498  -0.013  0.00  0.00    +0.058 C 
ATOM     24  C   UNL     1       0.009  -0.027  -0.106  0.00  0.00    +0.134 C 
ATOM     25  C   UNL     1       0.637  -0.584   1.173  0.00  0.00    +0.058 C 
BRANCH  24  26
ATOM     26  O   UNL     1       0.810  -0.396  -1.230  0.00  0.00    -0.483 OA
BRANCH  26  27
ATOM     27  C   UNL     1       0.337  -0.063  -2.460  0.00  0.00    +0.122 A 
ATOM     28  C   UNL     1      -0.812   0.705  -2.578  0.00  0.00    +0.047 A 
ATOM     29  C   UNL     1      -1.291   1.043  -3.829  0.00  0.00    +0.023 A 
ATOM     30  C   UNL     1      -0.625   0.615  -4.965  0.00  0.00    +0.041 A 
ATOM     31  C   UNL     1       0.521  -0.151  -4.849  0.00  0.00    +0.023 A 
ATOM     32  C   UNL     1       1.007  -0.485  -3.599  0.00  0.00    +0.047 A 
ATOM     33 CL   UNL     1      -1.229   1.040  -6.536  0.00  0.00    -0.084 Cl
ENDBRANCH  26  27
ENDBRANCH  24  26
ENDBRANCH   1  24
TORSDOF 6
