REMARK  Name = ZINC09859689
REMARK  8 active torsions:
REMARK  status: ('A' for Active; 'I' for Inactive)
REMARK    1  A    between atoms: C_1  and  C_2
REMARK    2  A    between atoms: C_5  and  C_8
REMARK    3  A    between atoms: C_12  and  S_14
REMARK    4  A    between atoms: S_14  and  C_15
REMARK    5  A    between atoms: C_15  and  C_16
REMARK    6  A    between atoms: N_18  and  C_19
REMARK    7  A    between atoms: C_24  and  O_25
REMARK    8  A    between atoms: O_25  and  C_26
REMARK                            x       y       z     vdW  Elec       q    Type
REMARK                         _______ _______ _______ _____ _____    ______ ____
ROOT
ATOM      1  C   UNL     1       3.580   6.941  -1.184  0.00  0.00    +0.165 A 
ATOM      2  N   UNL     1       3.520   5.671  -0.811  0.00  0.00    -0.193 NA
ATOM      3  C   UNL     1       2.367   5.126  -0.429  0.00  0.00    +0.228 A 
ATOM      4  C   UNL     1       1.223   5.908  -0.425  0.00  0.00    +0.051 A 
ATOM      5  C   UNL     1       1.320   7.240  -0.823  0.00  0.00    +0.108 A 
ATOM      6  N   UNL     1       2.506   7.718  -1.193  0.00  0.00    -0.221 NA
ATOM      7  C   UNL     1      -0.101   5.341   0.000  0.00  0.00    +0.082 C 
ATOM      8  C   UNL     1      -0.060   3.837  -0.017  0.00  0.00    -0.000 A 
ATOM      9  C   UNL     1      -1.248   3.126  -0.006  0.00  0.00    +0.007 A 
ATOM     10  C   UNL     1      -1.232   1.745  -0.024  0.00  0.00    +0.001 A 
ATOM     11  C   UNL     1      -0.027   1.067  -0.044  0.00  0.00    +0.004 A 
ATOM     12  C   UNL     1       1.160   1.770  -0.056  0.00  0.00    +0.046 A 
ATOM     13  C   UNL     1       1.148   3.161  -0.042  0.00  0.00    +0.134 A 
ATOM     14  O   UNL     1       2.326   3.831  -0.052  0.00  0.00    -0.437 OA
ENDROOT
BRANCH   1  19
ATOM     15  C   UNL     1       8.646   9.146  -2.811  0.00  0.00    +0.044 C 
ATOM     16  C   UNL     1       7.320   8.569  -2.385  0.00  0.00    -0.050 A 
ATOM     17  C   UNL     1       7.239   7.245  -1.992  0.00  0.00    +0.004 A 
ATOM     18  C   UNL     1       6.028   6.711  -1.601  0.00  0.00    +0.012 A 
ATOM     19  C   UNL     1       4.885   7.509  -1.602  0.00  0.00    +0.019 A 
ATOM     20  C   UNL     1       4.972   8.841  -2.004  0.00  0.00    +0.012 A 
ATOM     21  C   UNL     1       6.189   9.365  -2.389  0.00  0.00    +0.004 A 
ENDBRANCH   1  19
BRANCH   5  22
ATOM     22  S   UNL     1      -0.105   8.276  -0.838  0.00  0.00    -0.096 S 
BRANCH  22  23
ATOM     23  C   UNL     1       0.634   9.821  -1.424  0.00  0.00    +0.171 C 
BRANCH  23  24
ATOM     24  C   UNL     1      -0.430  10.884  -1.517  0.00  0.00    +0.228 C 
ATOM     25  O   UNL     1      -1.576  10.623  -1.217  0.00  0.00    -0.275 OA
ATOM     26  N   UNL     1      -0.108  12.124  -1.934  0.00  0.00    -0.282 N 
ATOM     27  H   UNL     1       0.820  12.356  -2.098  0.00  0.00    +0.155 HD
BRANCH  26  28
ATOM     28  C   UNL     1      -1.114  13.079  -2.132  0.00  0.00    +0.076 A 
ATOM     29  C   UNL     1      -2.412  12.675  -2.409  0.00  0.00    +0.027 A 
ATOM     30  C   UNL     1      -3.404  13.619  -2.599  0.00  0.00    +0.002 A 
ATOM     31  C   UNL     1      -3.103  14.967  -2.524  0.00  0.00    +0.004 A 
ATOM     32  C   UNL     1      -1.811  15.377  -2.254  0.00  0.00    +0.047 A 
ATOM     33  C   UNL     1      -0.812  14.437  -2.058  0.00  0.00    +0.141 A 
BRANCH  33  34
ATOM     34  O   UNL     1       0.460  14.839  -1.793  0.00  0.00    -0.493 OA
ATOM     35  C   UNL     1       0.695  16.247  -1.731  0.00  0.00    +0.277 C 
ENDBRANCH  33  34
ENDBRANCH  26  28
ENDBRANCH  23  24
ENDBRANCH  22  23
ENDBRANCH   5  22
TORSDOF 6
