REMARK  Name = ZINC39679064
REMARK  9 active torsions:
REMARK  status: ('A' for Active; 'I' for Inactive)
REMARK    1  A    between atoms: C_1  and  N_2
REMARK    2  A    between atoms: N_2  and  C_3
REMARK    3  A    between atoms: N_2  and  C_4
REMARK    4  A    between atoms: C_4  and  C_5
REMARK    5  A    between atoms: C_5  and  C_6
REMARK    6  A    between atoms: C_6  and  C_7
REMARK    7  A    between atoms: C_7  and  N_8
REMARK    8  A    between atoms: C_9  and  C_11
REMARK    9  A    between atoms: C_22  and  C_24
REMARK                            x       y       z     vdW  Elec       q    Type
REMARK                         _______ _______ _______ _____ _____    ______ ____
ROOT
ATOM      1  C   UNL     1      -6.166  -6.517  -0.752  0.00  0.00    +0.100 C 
ATOM      2  C   UNL     1      -6.620  -6.228   0.696  0.00  0.00    +0.121 C 
ATOM      3  N   UNL     1      -7.356  -7.447   1.108  0.00  0.00    -0.296 N 
ATOM      4  C   UNL     1      -6.571  -8.564   0.529  0.00  0.00    +0.115 C 
ATOM      5  C   UNL     1      -6.134  -8.051  -0.857  0.00  0.00    -0.004 C 
ATOM      6  C   UNL     1      -4.720  -8.529  -1.175  0.00  0.00    -0.010 C 
ATOM      7  C   UNL     1      -4.726 -10.052  -1.332  0.00  0.00    -0.082 C 
ATOM      8  N   UNL     1      -5.646 -10.431  -2.411  0.00  0.00    +0.379 N 
ATOM      9  C   UNL     1      -7.018 -10.050  -2.056  0.00  0.00    -0.082 C 
ATOM     10  C   UNL     1      -7.110  -8.527  -1.929  0.00  0.00    -0.010 C 
ATOM     11  C   UNL     1      -8.483  -7.523   1.843  0.00  0.00    +0.248 C 
ATOM     12  O   UNL     1      -8.918  -8.608   2.179  0.00  0.00    -0.270 OA
ATOM     13  H   UNL     1      -5.377  -9.960  -3.262  0.00  0.00    -0.086 HD
ATOM     14  H   UNL     1      -5.602 -11.429  -2.554  0.00  0.00    -0.086 HD
ENDROOT
BRANCH  11  15
ATOM     15  C   UNL     1      -9.186  -6.296   2.237  0.00  0.00    +0.052 A 
ATOM     16  C   UNL     1      -8.502  -5.157   2.520  0.00  0.00    +0.059 A 
ATOM     17  S   UNL     1      -9.672  -4.022   2.917  0.00  0.00    -0.096 S 
ATOM     18  C   UNL     1     -11.136  -5.001   2.729  0.00  0.00    +0.020 A 
ATOM     19  C   UNL     1     -10.648  -6.260   2.332  0.00  0.00    +0.001 A 
ATOM     20  C   UNL     1     -11.595  -7.274   2.094  0.00  0.00    +0.010 A 
ATOM     21  C   UNL     1     -12.936  -7.021   2.244  0.00  0.00    +0.001 A 
ATOM     22  C   UNL     1     -13.392  -5.769   2.632  0.00  0.00    +0.001 A 
ATOM     23  C   UNL     1     -12.484  -4.758   2.882  0.00  0.00    +0.015 A 
ENDBRANCH  11  15
BRANCH   1  25
ATOM     24  N   UNL     1      -4.435  -5.554  -2.234  0.00  0.00    -0.315 N 
ATOM     25  C   UNL     1      -4.792  -5.945  -0.995  0.00  0.00    +0.218 C 
ATOM     26  O   UNL     1      -4.009  -5.838  -0.075  0.00  0.00    -0.275 OA
ATOM     27  H   UNL     1      -5.061  -5.640  -2.969  0.00  0.00    +0.149 HD
BRANCH  24  28
ATOM     28  C   UNL     1      -3.100  -4.999  -2.470  0.00  0.00    +0.104 C 
BRANCH  28  29
ATOM     29  C   UNL     1      -2.952  -4.638  -3.949  0.00  0.00    +0.017 C 
BRANCH  29  30
ATOM     30  C   UNL     1      -1.557  -4.058  -4.196  0.00  0.00    -0.017 C 
BRANCH  30  31
ATOM     31  C   UNL     1      -1.409  -3.697  -5.675  0.00  0.00    -0.080 C 
BRANCH  31  33
ATOM     32  C   UNL     1       0.115  -2.905  -7.350  0.00  0.00    -0.097 C 
ATOM     33  N   UNL     1      -0.071  -3.140  -5.912  0.00  0.00    +0.376 N 
ATOM     34  C   UNL     1       0.067  -1.870  -5.186  0.00  0.00    -0.097 C 
ATOM     35  H   UNL     1       0.627  -3.792  -5.585  0.00  0.00    -0.083 HD
ENDBRANCH  31  33
ENDBRANCH  30  31
ENDBRANCH  29  30
ENDBRANCH  28  29
ENDBRANCH  24  28
ENDBRANCH   1  25
TORSDOF 7
