REMARK  Name = ZINC39681058
REMARK  8 active torsions:
REMARK  status: ('A' for Active; 'I' for Inactive)
REMARK    1  A    between atoms: C_1  and  C_2
REMARK    2  A    between atoms: C_5  and  O_8
REMARK    3  A    between atoms: O_8  and  C_9
REMARK    4  A    between atoms: C_10  and  C_15
REMARK    5  A    between atoms: C_19  and  C_28
REMARK    6  A    between atoms: N_30  and  C_31
REMARK    7  A    between atoms: C_31  and  C_33
REMARK    8  A    between atoms: C_31  and  C_34
REMARK                            x       y       z     vdW  Elec       q    Type
REMARK                         _______ _______ _______ _____ _____    ______ ____
ROOT
ATOM      1  C   UNL     1       0.278  -6.858  -0.128  0.00  0.00    +0.252 C 
ATOM      2  O   UNL     1       0.238  -6.289  -1.202  0.00  0.00    -0.270 OA
ATOM      3  N   UNL     1       0.306  -8.205  -0.080  0.00  0.00    -0.296 N 
ATOM      4  C   UNL     1       0.427  -9.068   1.119  0.00  0.00    +0.121 C 
ATOM      5  C   UNL     1      -0.526 -10.253   0.843  0.00  0.00    +0.100 C 
ATOM      6  C   UNL     1      -0.653 -10.307  -0.688  0.00  0.00    -0.004 C 
ATOM      7  C   UNL     1       0.219  -9.157  -1.213  0.00  0.00    +0.115 C 
ATOM      8  C   UNL     1      -2.105 -10.093  -1.106  0.00  0.00    -0.010 C 
ATOM      9  C   UNL     1      -2.215 -10.208  -2.629  0.00  0.00    -0.082 C 
ATOM     10  N   UNL     1      -1.752 -11.534  -3.056  0.00  0.00    +0.379 N 
ATOM     11  C   UNL     1      -0.329 -11.695  -2.733  0.00  0.00    -0.082 C 
ATOM     12  C   UNL     1      -0.139 -11.643  -1.215  0.00  0.00    -0.010 C 
ATOM     13  H   UNL     1      -2.286 -12.245  -2.580  0.00  0.00    -0.086 HD
ATOM     14  H   UNL     1      -1.882 -11.629  -4.052  0.00  0.00    -0.086 HD
ENDROOT
BRANCH   1  16
ATOM     15  C   UNL     1      -0.436  -4.881   1.226  0.00  0.00    +0.233 A 
ATOM     16  C   UNL     1       0.294  -6.074   1.121  0.00  0.00    +0.099 A 
ATOM     17  C   UNL     1       1.039  -6.508   2.224  0.00  0.00    +0.020 A 
ATOM     18  C   UNL     1       1.021  -5.737   3.373  0.00  0.00    +0.021 A 
ATOM     19  C   UNL     1       0.276  -4.572   3.400  0.00  0.00    +0.114 A 
ATOM     20  N   UNL     1      -0.414  -4.179   2.346  0.00  0.00    -0.220 NA
BRANCH  15  21
ATOM     21  O   UNL     1      -1.163  -4.442   0.171  0.00  0.00    -0.437 OA
BRANCH  21  26
ATOM     22  C   UNL     1      -3.670   0.584   0.593  0.00  0.00    +0.044 C 
ATOM     23  C   UNL     1      -2.999  -0.761   0.480  0.00  0.00    -0.050 A 
ATOM     24  C   UNL     1      -1.619  -0.845   0.471  0.00  0.00    +0.007 A 
ATOM     25  C   UNL     1      -1.002  -2.076   0.368  0.00  0.00    +0.046 A 
ATOM     26  C   UNL     1      -1.768  -3.229   0.273  0.00  0.00    +0.130 A 
ATOM     27  C   UNL     1      -3.153  -3.142   0.282  0.00  0.00    +0.046 A 
ATOM     28  C   UNL     1      -3.765  -1.909   0.392  0.00  0.00    +0.007 A 
ENDBRANCH  21  26
ENDBRANCH  15  21
ENDBRANCH   1  16
BRANCH   5  29
ATOM     29  C   UNL     1      -1.871 -10.002   1.475  0.00  0.00    +0.219 C 
ATOM     30  O   UNL     1      -2.317  -8.875   1.525  0.00  0.00    -0.275 OA
ATOM     31  N   UNL     1      -2.579 -11.029   1.985  0.00  0.00    -0.308 N 
ATOM     32  H   UNL     1      -2.222 -11.931   1.945  0.00  0.00    +0.149 HD
BRANCH  31  33
ATOM     33  C   UNL     1      -3.886 -10.785   2.599  0.00  0.00    +0.100 C 
ATOM     34  C   UNL     1      -3.695 -10.383   4.062  0.00  0.00    +0.033 C 
BRANCH  33  35
ATOM     35  C   UNL     1      -4.717 -12.041   2.527  0.00  0.00    -0.025 A 
ATOM     36  C   UNL     1      -4.146 -13.283   2.756  0.00  0.00    +0.025 A 
ATOM     37  C   UNL     1      -4.939 -14.413   2.682  0.00  0.00    +0.111 A 
ATOM     38  N   UNL     1      -6.223 -14.318   2.397  0.00  0.00    -0.263 NA
ATOM     39  C   UNL     1      -6.800 -13.153   2.173  0.00  0.00    +0.111 A 
ATOM     40  C   UNL     1      -6.071 -11.980   2.236  0.00  0.00    +0.025 A 
ENDBRANCH  33  35
ENDBRANCH  31  33
ENDBRANCH   5  29
TORSDOF 6
