REMARK  Name = ZINC35933396
REMARK  5 active torsions:
REMARK  status: ('A' for Active; 'I' for Inactive)
REMARK    1  A    between atoms: C_1  and  C_2
REMARK    2  A    between atoms: C_6  and  N_8
REMARK    3  A    between atoms: C_18  and  C_20
REMARK    4  A    between atoms: C_20  and  N_21
REMARK    5  A    between atoms: C_29  and  C_31
REMARK                            x       y       z     vdW  Elec       q    Type
REMARK                         _______ _______ _______ _____ _____    ______ ____
ROOT
ATOM      1  N   UNL     1       0.051  -2.797   2.393  0.00  0.00    -0.269 N 
ATOM      2  C   UNL     1      -0.032  -4.143   2.386  0.00  0.00    +0.306 C 
ATOM      3  O   UNL     1      -0.029  -4.746   1.330  0.00  0.00    -0.252 OA
ATOM      4  N   UNL     1      -0.119  -4.819   3.548  0.00  0.00    -0.284 N 
ATOM      5  C   UNL     1      -0.203  -6.237   3.578  0.00  0.00    +0.111 C 
ATOM      6  C   UNL     1      -1.645  -6.809   3.382  0.00  0.00    +0.038 C 
ATOM      7  C   UNL     1      -2.628  -5.857   4.138  0.00  0.00    +0.109 C 
ATOM      8  N   UNL     1      -2.132  -5.349   5.369  0.00  0.00    -0.299 N 
ATOM      9  C   UNL     1      -1.503  -4.004   5.341  0.00  0.00    +0.127 C 
ATOM     10  C   UNL     1      -0.126  -4.114   4.856  0.00  0.00    +0.128 C 
ATOM     11  C   UNL     1      -2.228  -6.057   6.512  0.00  0.00    +0.230 C 
ATOM     12  O   UNL     1      -2.748  -7.153   6.505  0.00  0.00    -0.274 OA
ATOM     13  H   UNL     1       0.126  -2.321   3.234  0.00  0.00    +0.156 HD
ENDROOT
BRANCH   1  19
ATOM     14  C   UNL     1      -1.547  -2.371  -2.237  0.00  0.00    +0.044 C 
ATOM     15  C   UNL     1      -0.737  -1.859  -1.074  0.00  0.00    -0.049 A 
ATOM     16  C   UNL     1      -0.013  -0.687  -1.199  0.00  0.00    +0.003 A 
ATOM     17  C   UNL     1       0.731  -0.214  -0.134  0.00  0.00    +0.002 A 
ATOM     18  C   UNL     1       0.755  -0.911   1.058  0.00  0.00    +0.023 A 
ATOM     19  C   UNL     1       0.030  -2.089   1.186  0.00  0.00    +0.035 A 
ATOM     20  C   UNL     1      -0.722  -2.558   0.117  0.00  0.00    +0.026 A 
ENDBRANCH   1  19
BRANCH  11  21
ATOM     21  C   UNL     1      -1.691  -5.487   7.800  0.00  0.00    +0.181 C 
BRANCH  21  22
ATOM     22  N   UNL     1      -1.916  -6.444   8.891  0.00  0.00    -0.283 NA
ATOM     23  C   UNL     1      -3.352  -6.637   9.134  0.00  0.00    +0.091 C 
ATOM     24  C   UNL     1      -3.546  -7.916   9.967  0.00  0.00    +0.058 C 
ATOM     25  C   UNL     1      -2.565  -7.879  11.092  0.00  0.00    -0.004 A 
ATOM     26  C   UNL     1      -1.490  -7.049  11.208  0.00  0.00    -0.016 A 
ATOM     27  C   UNL     1      -0.713  -7.194  12.354  0.00  0.00    +0.013 A 
ATOM     28  C   UNL     1      -1.039  -8.125  13.281  0.00  0.00    +0.046 A 
ATOM     29  S   UNL     1      -2.500  -8.862  12.563  0.00  0.00    -0.101 S 
ATOM     30  C   UNL     1      -1.201  -6.034  10.106  0.00  0.00    +0.118 C 
BRANCH  30  31
ATOM     31  C   UNL     1       0.281  -5.993   9.832  0.00  0.00    -0.023 A 
ATOM     32  C   UNL     1       0.866  -6.971   9.050  0.00  0.00    +0.006 A 
ATOM     33  C   UNL     1       2.224  -6.935   8.798  0.00  0.00    +0.003 A 
ATOM     34  C   UNL     1       2.999  -5.921   9.328  0.00  0.00    +0.038 A 
ATOM     35  C   UNL     1       2.414  -4.941  10.111  0.00  0.00    +0.124 A 
ATOM     36  C   UNL     1       1.052  -4.974  10.358  0.00  0.00    +0.043 A 
ATOM     37  F   UNL     1       3.171  -3.949  10.630  0.00  0.00    -0.205 F 
ENDBRANCH  30  31
ENDBRANCH  21  22
ENDBRANCH  11  21
TORSDOF 4
