REMARK  Name = ZINC09729417
REMARK  8 active torsions:
REMARK  status: ('A' for Active; 'I' for Inactive)
REMARK    1  A    between atoms: C_1  and  C_2
REMARK    2  A    between atoms: C_2  and  C_4
REMARK    3  A    between atoms: C_2  and  N_67
REMARK    4  A    between atoms: C_7  and  S_16
REMARK    5  A    between atoms: N_8  and  C_9
REMARK    6  A    between atoms: S_16  and  C_17
REMARK    7  A    between atoms: C_17  and  C_18
REMARK    8  A    between atoms: N_20  and  C_21
REMARK                            x       y       z     vdW  Elec       q    Type
REMARK                         _______ _______ _______ _____ _____    ______ ____
ROOT
ATOM      1  C   UNL     1       3.293   1.327   0.858  0.00  0.00    +0.125 A 
ATOM      2  N   UNL     1       4.207   0.586   0.298  0.00  0.00    -0.135 NA
ATOM      3  N   UNL     1       3.886   0.332  -0.920  0.00  0.00    -0.122 NA
ATOM      4  C   UNL     1       2.736   0.898  -1.207  0.00  0.00    +0.197 A 
ATOM      5  N   UNL     1       2.319   1.549  -0.079  0.00  0.00    -0.275 N 
ENDROOT
BRANCH   5   6
ATOM      6  C   UNL     1       1.141   2.295   0.083  0.00  0.00    +0.050 A 
ATOM      7  C   UNL     1      -0.095   1.667   0.007  0.00  0.00    +0.029 A 
ATOM      8  C   UNL     1      -1.253   2.404   0.161  0.00  0.00    +0.040 A 
ATOM      9  C   UNL     1      -1.182   3.765   0.402  0.00  0.00    +0.124 A 
ATOM     10  C   UNL     1       0.050   4.393   0.479  0.00  0.00    +0.040 A 
ATOM     11  C   UNL     1       1.210   3.661   0.319  0.00  0.00    +0.029 A 
ATOM     12  F   UNL     1      -2.316   4.483   0.557  0.00  0.00    -0.205 F 
ENDBRANCH   5   6
BRANCH   1  14
ATOM     13  C   UNL     1       3.002   0.692   3.237  0.00  0.00    -0.005 C 
ATOM     14  C   UNL     1       3.304   1.842   2.274  0.00  0.00    -0.002 C 
BRANCH  14  20
ATOM     15  C   UNL     1       4.666   2.942   3.946  0.00  0.00    -0.078 C 
ATOM     16  C   UNL     1       6.092   3.384   4.281  0.00  0.00    -0.019 C 
ATOM     17  C   UNL     1       6.540   4.450   3.278  0.00  0.00    -0.004 C 
ATOM     18  C   UNL     1       6.444   3.879   1.861  0.00  0.00    -0.019 C 
ATOM     19  C   UNL     1       5.007   3.423   1.596  0.00  0.00    -0.078 C 
ATOM     20  N   UNL     1       4.646   2.380   2.579  0.00  0.00    +0.386 N 
ATOM     21  H   UNL     1       5.331   1.618   2.523  0.00  0.00    -0.081 HD
ENDBRANCH  14  20
ENDBRANCH   1  14
BRANCH   4  22
ATOM     22  S   UNL     1       1.891   0.830  -2.752  0.00  0.00    -0.076 S 
BRANCH  22  23
ATOM     23  C   UNL     1       3.050  -0.187  -3.699  0.00  0.00    +0.173 C 
BRANCH  23  24
ATOM     24  C   UNL     1       2.520  -0.384  -5.096  0.00  0.00    +0.224 C 
ATOM     25  O   UNL     1       1.462   0.114  -5.419  0.00  0.00    -0.275 OA
ATOM     26  N   UNL     1       3.220  -1.114  -5.986  0.00  0.00    -0.308 N 
ATOM     27  H   UNL     1       4.066  -1.513  -5.728  0.00  0.00    +0.149 HD
BRANCH  26  28
ATOM     28  C   UNL     1       2.704  -1.306  -7.344  0.00  0.00    +0.103 C 
ATOM     29  C   UNL     1       3.285  -2.593  -7.926  0.00  0.00    +0.027 C 
ATOM     30  C   UNL     1       2.909  -2.664  -9.411  0.00  0.00    +0.007 C 
ATOM     31  C   UNL     1       3.698  -1.590 -10.159  0.00  0.00    +0.035 C 
ATOM     32  C   UNL     1       3.539  -0.252  -9.486  0.00  0.00    -0.042 A 
ATOM     33  C   UNL     1       3.087  -0.121  -8.192  0.00  0.00    -0.024 A 
ATOM     34  C   UNL     1       2.971   1.143  -7.629  0.00  0.00    +0.006 A 
ATOM     35  C   UNL     1       3.301   2.268  -8.355  0.00  0.00    +0.000 A 
ATOM     36  C   UNL     1       3.751   2.137  -9.656  0.00  0.00    +0.000 A 
ATOM     37  C   UNL     1       3.869   0.882 -10.217  0.00  0.00    +0.004 A 
ENDBRANCH  26  28
ENDBRANCH  23  24
ENDBRANCH  22  23
ENDBRANCH   4  22
TORSDOF 7
