REMARK  Name = ZINC39638563
REMARK  7 active torsions:
REMARK  status: ('A' for Active; 'I' for Inactive)
REMARK    1  A    between atoms: C_1  and  C_2
REMARK    2  A    between atoms: C_2  and  O_3
REMARK    3  A    between atoms: O_3  and  C_4
REMARK    4  A    between atoms: C_9  and  C_10
REMARK    5  A    between atoms: C_10  and  N_11
REMARK    6  A    between atoms: C_12  and  C_14
REMARK    7  A    between atoms: C_25  and  C_27
REMARK                            x       y       z     vdW  Elec       q    Type
REMARK                         _______ _______ _______ _____ _____    ______ ____
ROOT
ATOM      1  C   UNL     1       0.306   0.501   6.046  0.00  0.00    +0.100 C 
ATOM      2  C   UNL     1      -0.731   1.437   5.385  0.00  0.00    +0.121 C 
ATOM      3  N   UNL     1      -1.099   2.399   6.450  0.00  0.00    -0.296 N 
ATOM      4  C   UNL     1       0.178   2.684   7.148  0.00  0.00    +0.115 C 
ATOM      5  C   UNL     1       0.900   1.323   7.202  0.00  0.00    -0.004 C 
ATOM      6  C   UNL     1       0.628   0.633   8.535  0.00  0.00    -0.010 C 
ATOM      7  C   UNL     1       1.277   1.440   9.663  0.00  0.00    -0.082 C 
ATOM      8  N   UNL     1       2.723   1.539   9.427  0.00  0.00    +0.379 N 
ATOM      9  C   UNL     1       2.978   2.285   8.189  0.00  0.00    -0.082 C 
ATOM     10  C   UNL     1       2.400   1.514   6.998  0.00  0.00    -0.010 C 
ATOM     11  C   UNL     1      -2.319   2.901   6.724  0.00  0.00    +0.247 C 
ATOM     12  O   UNL     1      -2.448   3.755   7.580  0.00  0.00    -0.270 OA
ATOM     13  H   UNL     1       3.157   2.018  10.202  0.00  0.00    -0.086 HD
ATOM     14  H   UNL     1       3.113   0.613   9.347  0.00  0.00    -0.086 HD
ENDROOT
BRANCH  11  15
ATOM     15  C   UNL     1      -3.501   2.415   5.983  0.00  0.00    +0.045 A 
ATOM     16  C   UNL     1      -3.482   2.364   4.584  0.00  0.00    +0.014 A 
ATOM     17  C   UNL     1      -4.582   1.911   3.890  0.00  0.00    +0.001 A 
ATOM     18  C   UNL     1      -5.720   1.501   4.568  0.00  0.00    +0.012 A 
ATOM     19  C   UNL     1      -5.761   1.545   5.957  0.00  0.00    +0.031 A 
ATOM     20  C   UNL     1      -4.644   1.999   6.677  0.00  0.00    +0.006 A 
ATOM     21  C   UNL     1      -4.955   1.934   8.127  0.00  0.00    -0.006 A 
ATOM     22  C   UNL     1      -4.208   2.267   9.250  0.00  0.00    +0.009 A 
ATOM     23  C   UNL     1      -4.750   2.104  10.515  0.00  0.00    +0.001 A 
ATOM     24  C   UNL     1      -6.032   1.613  10.670  0.00  0.00    +0.001 A 
ATOM     25  C   UNL     1      -6.789   1.277   9.559  0.00  0.00    +0.012 A 
ATOM     26  C   UNL     1      -6.258   1.435   8.286  0.00  0.00    +0.030 A 
ATOM     27  C   UNL     1      -6.814   1.182   6.934  0.00  0.00    +0.194 C 
ATOM     28  O   UNL     1      -7.918   0.746   6.678  0.00  0.00    -0.287 OA
ENDBRANCH  11  15
BRANCH   1  30
ATOM     29  N   UNL     1       2.115  -0.985   5.248  0.00  0.00    -0.311 N 
ATOM     30  C   UNL     1       1.382   0.130   5.059  0.00  0.00    +0.218 C 
ATOM     31  O   UNL     1       1.589   0.834   4.093  0.00  0.00    -0.275 OA
ATOM     32  H   UNL     1       1.950  -1.549   6.020  0.00  0.00    +0.149 HD
BRANCH  29  33
ATOM     33  C   UNL     1       3.162  -1.346   4.288  0.00  0.00    +0.143 C 
BRANCH  33  39
ATOM     34  C   UNL     1       3.220  -3.846   4.473  0.00  0.00    +0.125 A 
ATOM     35  C   UNL     1       3.838  -5.022   4.874  0.00  0.00    +0.046 A 
ATOM     36  C   UNL     1       5.052  -4.974   5.530  0.00  0.00    +0.004 A 
ATOM     37  C   UNL     1       5.652  -3.755   5.788  0.00  0.00    +0.001 A 
ATOM     38  C   UNL     1       5.039  -2.582   5.390  0.00  0.00    +0.009 A 
ATOM     39  C   UNL     1       3.827  -2.625   4.728  0.00  0.00    +0.011 A 
BRANCH  34  40
ATOM     40  O   UNL     1       2.026  -3.891   3.826  0.00  0.00    -0.492 OA
BRANCH  40  42
ATOM     41  C   UNL     1       0.126  -5.033   2.863  0.00  0.00    +0.048 C 
ATOM     42  C   UNL     1       1.460  -5.183   3.598  0.00  0.00    +0.225 C 
ENDBRANCH  40  42
ENDBRANCH  34  40
ENDBRANCH  33  39
ENDBRANCH  29  33
ENDBRANCH   1  30
TORSDOF 6
