REMARK  Name = ZINC12602528
REMARK  5 active torsions:
REMARK  status: ('A' for Active; 'I' for Inactive)
REMARK    1  A    between atoms: C_1  and  C_2
REMARK    2  A    between atoms: C_5  and  C_8
REMARK    3  A    between atoms: N_10  and  N_11
REMARK    4  A    between atoms: C_12  and  C_14
REMARK    5  A    between atoms: C_19  and  C_20
REMARK                            x       y       z     vdW  Elec       q    Type
REMARK                         _______ _______ _______ _____ _____    ______ ____
ROOT
ATOM      1  C   UNL     1      -4.916  -0.406   0.708  0.00  0.00    +0.083 A 
ATOM      2  C   UNL     1      -5.836  -1.395   0.428  0.00  0.00    +0.118 A 
ATOM      3  N   UNL     1      -5.236  -2.308  -0.350  0.00  0.00    -0.283 N 
ATOM      4  H   UNL     1      -5.668  -3.139  -0.702  0.00  0.00    +0.188 HD
ATOM      5  N   UNL     1      -3.915  -1.923  -0.595  0.00  0.00    -0.173 NA
ATOM      6  C   UNL     1      -3.679  -0.784   0.018  0.00  0.00    +0.105 A 
ENDROOT
BRANCH   6   7
ATOM      7  C   UNL     1      -2.403  -0.029   0.016  0.00  0.00    +0.007 A 
ATOM      8  C   UNL     1      -2.416   1.365   0.025  0.00  0.00    +0.014 A 
ATOM      9  C   UNL     1      -1.228   2.065   0.019  0.00  0.00    +0.050 A 
ATOM     10  C   UNL     1      -0.017   1.387   0.010  0.00  0.00    +0.162 A 
ATOM     11  C   UNL     1       0.002  -0.004   0.002  0.00  0.00    +0.163 A 
ATOM     12  C   UNL     1      -1.188  -0.711   0.004  0.00  0.00    +0.059 A 
ATOM     13  O   UNL     1       1.181  -0.685  -0.006  0.00  0.00    -0.485 OA
ATOM     14  C   UNL     1       2.347   0.053  -0.387  0.00  0.00    +0.270 C 
ATOM     15  C   UNL     1       2.335   1.391   0.365  0.00  0.00    +0.270 C 
ATOM     16  O   UNL     1       1.144   2.098   0.002  0.00  0.00    -0.485 OA
ENDBRANCH   6   7
BRANCH   1  18
ATOM     17  N   UNL     1      -6.335   1.008   2.108  0.00  0.00    -0.230 N 
ATOM     18  C   UNL     1      -5.134   0.794   1.533  0.00  0.00    +0.264 C 
ATOM     19  O   UNL     1      -4.231   1.592   1.696  0.00  0.00    -0.269 OA
ATOM     20  H   UNL     1      -7.055   0.371   1.978  0.00  0.00    +0.173 HD
BRANCH  17  23
ATOM     21  C   UNL     1      -7.742   2.363   3.467  0.00  0.00    +0.260 C 
ATOM     22  O   UNL     1      -8.645   1.566   3.304  0.00  0.00    -0.269 OA
ATOM     23  N   UNL     1      -6.542   2.150   2.893  0.00  0.00    -0.230 N 
ATOM     24  H   UNL     1      -5.822   2.786   3.023  0.00  0.00    +0.173 HD
BRANCH  21  29
ATOM     25  C   UNL     1      -8.594   7.052   6.694  0.00  0.00    +0.044 C 
ATOM     26  C   UNL     1      -8.371   5.824   5.849  0.00  0.00    -0.050 A 
ATOM     27  C   UNL     1      -9.400   4.918   5.664  0.00  0.00    +0.004 A 
ATOM     28  C   UNL     1      -9.203   3.793   4.892  0.00  0.00    +0.013 A 
ATOM     29  C   UNL     1      -7.961   3.568   4.296  0.00  0.00    +0.038 A 
ATOM     30  C   UNL     1      -6.925   4.483   4.490  0.00  0.00    +0.013 A 
ATOM     31  C   UNL     1      -7.137   5.608   5.261  0.00  0.00    +0.004 A 
ENDBRANCH  21  29
ENDBRANCH  17  23
ENDBRANCH   1  18
TORSDOF 4
