REMARK  Name = ZINC52123158
REMARK  3 active torsions:
REMARK  status: ('A' for Active; 'I' for Inactive)
REMARK    1  A    between atoms: C_1  and  C_2
REMARK    2  A    between atoms: C_4  and  C_7
REMARK    3  A    between atoms: C_7  and  N_8
REMARK                            x       y       z     vdW  Elec       q    Type
REMARK                         _______ _______ _______ _____ _____    ______ ____
ROOT
ATOM      1  N   UNL     1       1.423  -3.567  -2.011  0.00  0.00    -0.303 N 
ATOM      2  C   UNL     1       2.188  -3.064  -3.050  0.00  0.00    +0.073 A 
ATOM      3  C   UNL     1       1.951  -2.142  -4.059  0.00  0.00    +0.066 A 
ATOM      4  C   UNL     1       2.948  -1.848  -4.969  0.00  0.00    +0.125 A 
ATOM      5  C   UNL     1       4.186  -2.471  -4.880  0.00  0.00    +0.040 A 
ATOM      6  C   UNL     1       4.436  -3.389  -3.885  0.00  0.00    +0.033 A 
ATOM      7  C   UNL     1       3.438  -3.696  -2.956  0.00  0.00    +0.091 A 
ATOM      8  N   UNL     1       3.383  -4.536  -1.889  0.00  0.00    -0.215 NA
ATOM      9  C   UNL     1       2.202  -4.458  -1.329  0.00  0.00    +0.194 A 
ATOM     10  N   UNL     1       1.803  -5.171  -0.218  0.00  0.00    -0.329 N 
ATOM     11  F   UNL     1       2.717  -0.950  -5.952  0.00  0.00    -0.205 F 
ATOM     12  H   UNL     1       0.906  -5.058   0.135  0.00  0.00    +0.145 HD
ATOM     13  H   UNL     1       2.418  -5.787   0.211  0.00  0.00    +0.145 HD
ENDROOT
BRANCH   1  14
ATOM     14  C   UNL     1       0.038  -3.206  -1.697  0.00  0.00    +0.223 C 
BRANCH  14  18
ATOM     15  C   UNL     1      -0.018   1.503   0.010  0.00  0.00    +0.091 C 
ATOM     16  C   UNL     1       0.002  -0.004   0.002  0.00  0.00    +0.169 A 
ATOM     17  N   UNL     1       0.008  -0.776  -1.091  0.00  0.00    -0.195 NA
ATOM     18  C   UNL     1       0.026  -2.034  -0.750  0.00  0.00    +0.247 A 
ATOM     19  O   UNL     1       0.033  -2.107   0.587  0.00  0.00    -0.336 OA
ATOM     20  N   UNL     1       0.023  -0.767   1.057  0.00  0.00    -0.062 NA
ENDBRANCH  14  18
ENDBRANCH   1  14
TORSDOF 2
