REMARK  Name = ZINC12478268
REMARK  14 active torsions:
REMARK  status: ('A' for Active; 'I' for Inactive)
REMARK    1  A    between atoms: C_1  and  C_2
REMARK    2  A    between atoms: C_5  and  C_8
REMARK    3  A    between atoms: N_11  and  C_13
REMARK    4  A    between atoms: C_13  and  C_14
REMARK    5  A    between atoms: N_16  and  C_17
REMARK    6  A    between atoms: N_16  and  C_23
REMARK    7  A    between atoms: C_17  and  C_18
REMARK    8  A    between atoms: C_23  and  C_25
REMARK    9  A    between atoms: C_23  and  C_31
REMARK   10  A    between atoms: C_28  and  C_30
REMARK   11  A    between atoms: N_33  and  C_34
REMARK   12  A    between atoms: C_34  and  C_35
REMARK   13  A    between atoms: C_34  and  C_36
REMARK   14  A    between atoms: C_34  and  C_37
REMARK                            x       y       z     vdW  Elec       q    Type
REMARK                         _______ _______ _______ _____ _____    ______ ____
ROOT
ATOM      1  C   UNL     1       1.123  -3.254   1.754  0.00  0.00    +0.240 C 
ATOM      2  O   UNL     1       2.143  -2.705   2.114  0.00  0.00    -0.273 OA
ATOM      3  N   UNL     1       0.707  -3.134   0.478  0.00  0.00    -0.277 N 
ENDROOT
BRANCH   1   4
ATOM      4  C   UNL     1       0.320  -4.069   2.735  0.00  0.00    +0.264 C 
BRANCH   4   8
ATOM      5  C   UNL     1       2.391  -4.995   5.438  0.00  0.00    +0.205 A 
ATOM      6  N   UNL     1       1.829  -3.870   5.903  0.00  0.00    -0.108 NA
ATOM      7  N   UNL     1       1.036  -3.431   4.985  0.00  0.00    -0.045 NA
ATOM      8  N   UNL     1       1.081  -4.229   3.976  0.00  0.00    -0.154 N 
ATOM      9  N   UNL     1       1.897  -5.193   4.232  0.00  0.00    -0.130 NA
BRANCH   5  14
ATOM     10  C   UNL     1       6.200  -8.328   8.187  0.00  0.00    +0.044 C 
ATOM     11  C   UNL     1       5.204  -7.456   7.467  0.00  0.00    -0.050 A 
ATOM     12  C   UNL     1       4.712  -6.319   8.083  0.00  0.00    +0.004 A 
ATOM     13  C   UNL     1       3.799  -5.517   7.429  0.00  0.00    +0.012 A 
ATOM     14  C   UNL     1       3.373  -5.854   6.146  0.00  0.00    +0.023 A 
ATOM     15  C   UNL     1       3.867  -7.003   5.533  0.00  0.00    +0.012 A 
ATOM     16  C   UNL     1       4.783  -7.795   6.194  0.00  0.00    +0.004 A 
ENDBRANCH   5  14
ENDBRANCH   4   8
ENDBRANCH   1   4
BRANCH   3  17
ATOM     17  C   UNL     1      -0.472  -3.872   0.019  0.00  0.00    +0.151 C 
BRANCH  17  18
ATOM     18  C   UNL     1      -1.676  -3.441   0.818  0.00  0.00    +0.007 A 
ATOM     19  C   UNL     1      -2.481  -2.366   0.635  0.00  0.00    +0.013 A 
ATOM     20  C   UNL     1      -3.540  -2.167   1.501  0.00  0.00    +0.008 A 
ATOM     21  C   UNL     1      -3.742  -3.053   2.506  0.00  0.00    +0.045 A 
ATOM     22  S   UNL     1      -2.416  -4.219   2.244  0.00  0.00    -0.100 S 
ENDBRANCH  17  18
ENDBRANCH   3  17
BRANCH   3  23
ATOM     23  C   UNL     1       1.435  -2.266  -0.451  0.00  0.00    +0.229 C 
BRANCH  23  24
ATOM     24  C   UNL     1       0.474  -1.302  -1.096  0.00  0.00    +0.135 A 
ATOM     25  C   UNL     1       0.714  -0.003  -1.350  0.00  0.00    +0.047 A 
ATOM     26  C   UNL     1      -0.452   0.518  -1.958  0.00  0.00    +0.045 A 
ATOM     27  C   UNL     1      -1.335  -0.494  -2.038  0.00  0.00    +0.102 A 
ATOM     28  O   UNL     1      -0.769  -1.593  -1.515  0.00  0.00    -0.462 OA
ATOM     29  C   UNL     1      -2.721  -0.409  -2.622  0.00  0.00    +0.086 C 
ENDBRANCH  23  24
BRANCH  23  30
ATOM     30  C   UNL     1       2.092  -3.108  -1.515  0.00  0.00    +0.242 C 
ATOM     31  O   UNL     1       1.819  -4.285  -1.611  0.00  0.00    -0.273 OA
ATOM     32  N   UNL     1       2.983  -2.551  -2.359  0.00  0.00    -0.309 N 
ATOM     33  H   UNL     1       3.202  -1.609  -2.282  0.00  0.00    +0.149 HD
BRANCH  32  34
ATOM     34  C   UNL     1       3.622  -3.369  -3.393  0.00  0.00    +0.026 C 
ATOM     35  C   UNL     1       2.550  -3.951  -4.317  0.00  0.00    +0.031 C 
ATOM     36  C   UNL     1       4.582  -2.502  -4.209  0.00  0.00    +0.031 C 
ATOM     37  C   UNL     1       4.400  -4.510  -2.733  0.00  0.00    +0.031 C 
ENDBRANCH  32  34
ENDBRANCH  23  30
ENDBRANCH   3  23
TORSDOF 9
