REMARK  Name = ZINC11939626
REMARK  12 active torsions:
REMARK  status: ('A' for Active; 'I' for Inactive)
REMARK    1  A    between atoms: C_1  and  C_2
REMARK    2  A    between atoms: C_4  and  C_17
REMARK    3  A    between atoms: C_5  and  C_16
REMARK    4  A    between atoms: N_6  and  N_7
REMARK    5  A    between atoms: C_8  and  C_10
REMARK    6  A    between atoms: C_17  and  C_19
REMARK    7  A    between atoms: C_19  and  O_20
REMARK    8  A    between atoms: O_20  and  C_21
REMARK    9  A    between atoms: C_21  and  C_23
REMARK   10  A    between atoms: C_23  and  C_24
REMARK   11  A    between atoms: C_24  and  C_26
REMARK   12  A    between atoms: C_24  and  N_32
REMARK                            x       y       z     vdW  Elec       q    Type
REMARK                         _______ _______ _______ _____ _____    ______ ____
ROOT
ATOM      1  C   UNL     1      -0.916   1.429  -4.928  0.00  0.00    +0.202 C 
ATOM      2  O   UNL     1       0.291   1.450  -5.051  0.00  0.00    -0.288 OA
ENDROOT
BRANCH   1   6
ATOM      3  C   UNL     1      -4.999   1.035  -7.950  0.00  0.00    +0.065 C 
ATOM      4  C   UNL     1      -3.587   1.123  -7.431  0.00  0.00    +0.037 A 
ATOM      5  C   UNL     1      -3.239   1.247  -6.139  0.00  0.00    +0.036 A 
ATOM      6  C   UNL     1      -1.771   1.296  -6.109  0.00  0.00    +0.043 A 
ATOM      7  C   UNL     1      -1.362   1.184  -7.425  0.00  0.00    +0.047 A 
ATOM      8  N   UNL     1      -2.459   1.082  -8.197  0.00  0.00    -0.267 N 
ATOM      9  C   UNL     1       0.065   1.177  -7.910  0.00  0.00    +0.066 C 
BRANCH   8  10
ATOM     10  N   UNL     1      -2.444   0.952  -9.592  0.00  0.00    -0.219 N 
ATOM     11  C   UNL     1      -1.674   0.011 -10.174  0.00  0.00    +0.262 C 
ATOM     12  O   UNL     1      -0.916  -0.656  -9.498  0.00  0.00    -0.268 OA
ATOM     13  H   UNL     1      -2.988   1.540 -10.140  0.00  0.00    +0.176 HD
BRANCH  11  14
ATOM     14  C   UNL     1      -1.752  -0.209 -11.634  0.00  0.00    +0.038 A 
ATOM     15  C   UNL     1      -2.626   0.552 -12.412  0.00  0.00    +0.013 A 
ATOM     16  C   UNL     1      -2.688   0.346 -13.774  0.00  0.00    +0.001 A 
ATOM     17  C   UNL     1      -1.897  -0.621 -14.368  0.00  0.00    +0.000 A 
ATOM     18  C   UNL     1      -1.033  -1.383 -13.602  0.00  0.00    +0.001 A 
ATOM     19  C   UNL     1      -0.956  -1.183 -12.239  0.00  0.00    +0.013 A 
ENDBRANCH  11  14
ENDBRANCH   8  10
ENDBRANCH   1   6
BRANCH   1  20
ATOM     20  C   UNL     1      -1.535   1.540  -3.558  0.00  0.00    +0.311 C 
BRANCH  20  21
ATOM     21  O   UNL     1      -0.487   1.662  -2.562  0.00  0.00    -0.457 OA
BRANCH  21  22
ATOM     22  C   UNL     1      -0.873   1.771  -1.281  0.00  0.00    +0.310 C 
ATOM     23  O   UNL     1      -2.049   1.765  -1.002  0.00  0.00    -0.251 OA
BRANCH  22  24
ATOM     24  C   UNL     1       0.159   1.901  -0.191  0.00  0.00    +0.147 C 
BRANCH  24  25
ATOM     25  C   UNL     1      -0.542   2.009   1.165  0.00  0.00    +0.115 C 
BRANCH  25  26
ATOM     26  N   UNL     1      -1.318   3.250   1.217  0.00  0.00    -0.292 N 
ATOM     27  C   UNL     1      -0.692   4.440   1.128  0.00  0.00    +0.298 C 
ATOM     28  O   UNL     1       0.505   4.483   0.917  0.00  0.00    -0.253 OA
ATOM     29  N   UNL     1      -1.392   5.582   1.273  0.00  0.00    -0.313 N 
ATOM     30  H   UNL     1      -2.282   3.215   1.314  0.00  0.00    +0.151 HD
ATOM     31  H   UNL     1      -2.347   5.548   1.441  0.00  0.00    +0.146 HD
ATOM     32  H   UNL     1      -0.941   6.439   1.209  0.00  0.00    +0.146 HD
ENDBRANCH  25  26
BRANCH  25  33
ATOM     33  C   UNL     1       0.489   2.015   2.264  0.00  0.00    -0.027 A 
ATOM     34  C   UNL     1       1.753   1.505   2.030  0.00  0.00    +0.005 A 
ATOM     35  C   UNL     1       2.700   1.515   3.037  0.00  0.00    +0.000 A 
ATOM     36  C   UNL     1       2.380   2.026   4.281  0.00  0.00    +0.000 A 
ATOM     37  C   UNL     1       1.115   2.530   4.517  0.00  0.00    +0.000 A 
ATOM     38  C   UNL     1       0.170   2.525   3.509  0.00  0.00    +0.005 A 
ENDBRANCH  25  33
ENDBRANCH  24  25
ENDBRANCH  22  24
ENDBRANCH  21  22
ENDBRANCH  20  21
ENDBRANCH   1  20
TORSDOF 10
