REMARK  Name = ZINC01808122
REMARK  9 active torsions:
REMARK  status: ('A' for Active; 'I' for Inactive)
REMARK    1  A    between atoms: C_1  and  C_2
REMARK    2  A    between atoms: C_2  and  O_3
REMARK    3  A    between atoms: O_3  and  C_4
REMARK    4  A    between atoms: C_4  and  C_6
REMARK    5  A    between atoms: C_10  and  N_11
REMARK    6  A    between atoms: C_12  and  C_14
REMARK    7  A    between atoms: C_14  and  C_29
REMARK    8  A    between atoms: C_15  and  C_16
REMARK    9  A    between atoms: C_19  and  C_21
REMARK                            x       y       z     vdW  Elec       q    Type
REMARK                         _______ _______ _______ _____ _____    ______ ____
ROOT
ATOM      1  N   UNL     1       1.143   1.903   0.001  0.00  0.00    -0.275 N 
ATOM      2  C   UNL     1      -0.014   1.213   0.009  0.00  0.00    +0.259 C 
ATOM      3  O   UNL     1       0.002  -0.004   0.002  0.00  0.00    -0.269 OA
ATOM      4  H   UNL     1       1.130   2.873   0.007  0.00  0.00    +0.156 HD
ENDROOT
BRANCH   1   9
ATOM      5  C   UNL     1       3.636   1.755  -0.029  0.00  0.00    +0.091 A 
ATOM      6  C   UNL     1       4.747   0.818  -0.038  0.00  0.00    -0.021 A 
ATOM      7  C   UNL     1       4.399  -0.487  -0.043  0.00  0.00    -0.004 A 
ATOM      8  S   UNL     1       2.629  -0.484  -0.026  0.00  0.00    -0.077 S 
ATOM      9  C   UNL     1       2.352   1.227  -0.014  0.00  0.00    +0.087 A 
ATOM     10  C   UNL     1       5.320  -1.668  -0.059  0.00  0.00    +0.043 C 
ATOM     11  C   UNL     1       6.724  -1.181  -0.449  0.00  0.00    +0.005 C 
ATOM     12  C   UNL     1       7.069   0.052   0.392  0.00  0.00    +0.005 C 
ATOM     13  C   UNL     1       6.212   1.239  -0.049  0.00  0.00    +0.037 C 
BRANCH   5  14
ATOM     14  C   UNL     1       3.863   3.202  -0.031  0.00  0.00    +0.342 C 
ATOM     15  O   UNL     1       3.970   3.802   1.021  0.00  0.00    -0.245 OA
BRANCH  14  16
ATOM     16  O   UNL     1       3.953   3.868  -1.200  0.00  0.00    -0.461 OA
BRANCH  16  18
ATOM     17  C   UNL     1       4.251   5.879  -2.541  0.00  0.00    +0.048 C 
ATOM     18  C   UNL     1       4.178   5.301  -1.126  0.00  0.00    +0.229 C 
ENDBRANCH  16  18
ENDBRANCH  14  16
ENDBRANCH   5  14
ENDBRANCH   1   9
BRANCH   2  19
ATOM     19  C   UNL     1      -1.295   1.929   0.019  0.00  0.00    +0.117 C 
ATOM     20  C   UNL     1      -2.488   1.219   0.021  0.00  0.00    +0.070 C 
BRANCH  20  21
ATOM     21  C   UNL     1      -3.713   1.904   0.030  0.00  0.00    +0.130 A 
ATOM     22  C   UNL     1      -4.972   1.321   0.027  0.00  0.00    +0.050 A 
ATOM     23  C   UNL     1      -5.898   2.362   0.042  0.00  0.00    +0.050 A 
ATOM     24  C   UNL     1      -5.182   3.540   0.045  0.00  0.00    +0.137 A 
ATOM     25  O   UNL     1      -3.870   3.245   0.038  0.00  0.00    -0.455 OA
BRANCH  24  26
ATOM     26  C   UNL     1      -5.758   4.898   0.054  0.00  0.00    +0.037 A 
ATOM     27  C   UNL     1      -5.314   5.843   0.982  0.00  0.00    +0.033 A 
ATOM     28  C   UNL     1      -5.857   7.112   0.985  0.00  0.00    +0.042 A 
ATOM     29  C   UNL     1      -6.842   7.449   0.070  0.00  0.00    +0.021 A 
ATOM     30  C   UNL     1      -7.287   6.519  -0.852  0.00  0.00    +0.022 A 
ATOM     31  C   UNL     1      -6.747   5.248  -0.870  0.00  0.00    +0.052 A 
ATOM     32 CL   UNL     1      -7.302   4.084  -2.034  0.00  0.00    -0.083 Cl
ATOM     33 CL   UNL     1      -5.307   8.287   2.137  0.00  0.00    -0.084 Cl
ENDBRANCH  24  26
ENDBRANCH  20  21
BRANCH  19  34
ATOM     34  C   UNL     1      -1.314   3.361   0.027  0.00  0.00    +0.104 C 
ATOM     35  N   UNL     1      -1.330   4.497   0.033  0.00  0.00    -0.191 NA
ENDBRANCH  19  34
ENDBRANCH   2  19
TORSDOF 8
