REMARK  Name = ZINC44098203
REMARK  4 active torsions:
REMARK  status: ('A' for Active; 'I' for Inactive)
REMARK    1  A    between atoms: C_3  and  N_17
REMARK    2  A    between atoms: C_6  and  C_7
REMARK    3  A    between atoms: C_9  and  C_12
REMARK    4  A    between atoms: N_25  and  C_26
REMARK                            x       y       z     vdW  Elec       q    Type
REMARK                         _______ _______ _______ _____ _____    ______ ____
ROOT
ATOM      1  N   UNL     1       3.593   1.996  -0.011  0.00  0.00    -0.314 N 
ATOM      2  C   UNL     1       3.640   3.461  -0.122  0.00  0.00    +0.125 C 
ATOM      3  C   UNL     1       4.444   4.018   1.059  0.00  0.00    +0.128 C 
ATOM      4  N   UNL     1       5.708   3.274   1.158  0.00  0.00    -0.283 N 
ATOM      5  C   UNL     1       5.662   1.810   1.270  0.00  0.00    +0.128 C 
ATOM      6  C   UNL     1       4.857   1.254   0.094  0.00  0.00    +0.125 C 
ATOM      7  C   UNL     1       6.889   3.924   1.146  0.00  0.00    +0.303 C 
ATOM      8  O   UNL     1       6.914   5.140   1.153  0.00  0.00    -0.253 OA
ATOM      9  N   UNL     1       8.042   3.227   1.126  0.00  0.00    -0.294 N 
ATOM     10  H   UNL     1       8.023   2.260   1.045  0.00  0.00    +0.151 HD
ENDROOT
BRANCH   9  11
ATOM     11  C   UNL     1       9.324   3.928   1.228  0.00  0.00    +0.037 C 
ATOM     12  C   UNL     1       9.464   4.907   0.060  0.00  0.00    +0.029 C 
ATOM     13  C   UNL     1      10.803   5.639   0.166  0.00  0.00    -0.008 C 
ATOM     14  C   UNL     1      11.945   4.623   0.119  0.00  0.00    +0.007 C 
ATOM     15  C   UNL     1      11.806   3.644   1.287  0.00  0.00    -0.008 C 
ATOM     16  C   UNL     1      10.466   2.911   1.181  0.00  0.00    +0.029 C 
ATOM     17  C   UNL     1      11.862   4.414   2.608  0.00  0.00    +0.007 C 
ATOM     18  C   UNL     1      10.720   5.431   2.655  0.00  0.00    -0.008 C 
ATOM     19  C   UNL     1      10.860   6.410   1.487  0.00  0.00    +0.007 C 
ATOM     20  C   UNL     1       9.381   4.698   2.549  0.00  0.00    +0.029 C 
ENDBRANCH   9  11
BRANCH   1  23
ATOM     21  C   UNL     1       1.146  -0.724   0.002  0.00  0.00    +0.016 A 
ATOM     22  C   UNL     1       2.359  -0.065  -0.011  0.00  0.00    +0.042 A 
ATOM     23  C   UNL     1       2.377   1.327   0.002  0.00  0.00    +0.099 A 
ATOM     24  N   UNL     1       1.249   2.021   0.026  0.00  0.00    -0.349 N 
ATOM     25  C   UNL     1       0.072   1.430   0.039  0.00  0.00    +0.095 A 
ATOM     26  C   UNL     1      -0.026   0.041   0.027  0.00  0.00    +0.038 A 
ATOM     27  H   UNL     1       1.291   2.990   0.034  0.00  0.00    +0.167 HD
BRANCH  26  28
ATOM     28  C   UNL     1      -1.355  -0.619   0.042  0.00  0.00    +0.203 A 
ATOM     29  N   UNL     1      -2.543   0.010   0.061  0.00  0.00    -0.191 NA
ATOM     30  C   UNL     1      -3.510  -0.863   0.070  0.00  0.00    +0.231 A 
ATOM     31  O   UNL     1      -2.974  -2.090   0.056  0.00  0.00    -0.337 OA
ATOM     32  N   UNL     1      -1.566  -1.913   0.033  0.00  0.00    -0.056 NA
BRANCH  30  33
ATOM     33  C   UNL     1      -4.983  -0.545   0.091  0.00  0.00    +0.078 C 
ATOM     34  C   UNL     1      -5.648  -1.209   1.315  0.00  0.00    +0.013 C 
ATOM     35  C   UNL     1      -7.037  -1.657   0.795  0.00  0.00    +0.001 C 
ATOM     36  C   UNL     1      -6.725  -2.135  -0.645  0.00  0.00    +0.001 C 
ATOM     37  C   UNL     1      -5.668  -1.135  -1.155  0.00  0.00    +0.013 C 
ENDBRANCH  30  33
ENDBRANCH  26  28
ENDBRANCH   1  23
TORSDOF 4
