REMARK  Name = ZINC13065216
REMARK  14 active torsions:
REMARK  status: ('A' for Active; 'I' for Inactive)
REMARK    1  A    between atoms: C_1  and  C_2
REMARK    2  A    between atoms: C_2  and  C_3
REMARK    3  A    between atoms: C_3  and  C_5
REMARK    4  A    between atoms: C_3  and  N_74
REMARK    5  A    between atoms: N_9  and  C_10
REMARK    6  A    between atoms: C_10  and  C_11
REMARK    7  A    between atoms: C_17  and  C_18
REMARK    8  A    between atoms: C_17  and  N_74
REMARK    9  A    between atoms: C_21  and  O_24
REMARK   10  A    between atoms: O_24  and  C_25
REMARK   11  A    between atoms: C_26  and  C_27
REMARK   12  A    between atoms: C_26  and  N_74
REMARK   13  A    between atoms: C_30  and  C_40
REMARK   14  A    between atoms: C_33  and  C_39
REMARK                            x       y       z     vdW  Elec       q    Type
REMARK                         _______ _______ _______ _____ _____    ______ ____
ROOT
ATOM      1  N   UNL     1       1.543  -2.475  -5.560  0.00  0.00    +0.392 N 
ATOM      2  H   UNL     1       1.299  -1.494  -5.386  0.00  0.00    -0.080 HD
ENDROOT
BRANCH   1   3
ATOM      3  C   UNL     1       1.894  -2.636  -6.987  0.00  0.00    +0.003 C 
BRANCH   3   4
ATOM      4  C   UNL     1       1.878  -4.093  -7.373  0.00  0.00    +0.138 A 
ATOM      5  N   UNL     1       0.884  -4.933  -7.216  0.00  0.00    -0.115 NA
ATOM      6  N   UNL     1       1.257  -6.080  -7.671  0.00  0.00    -0.023 NA
ATOM      7  N   UNL     1       2.465  -5.994  -8.108  0.00  0.00    -0.044 NA
ATOM      8  N   UNL     1       2.883  -4.785  -7.942  0.00  0.00    -0.228 N 
BRANCH   8   9
ATOM      9  C   UNL     1       4.203  -4.263  -8.304  0.00  0.00    +0.178 C 
BRANCH   9  10
ATOM     10  C   UNL     1       5.160  -4.432  -7.123  0.00  0.00    +0.140 C 
ATOM     11  C   UNL     1       6.520  -3.782  -7.454  0.00  0.00    +0.035 C 
ATOM     12  C   UNL     1       7.527  -4.789  -6.835  0.00  0.00    +0.031 C 
ATOM     13  C   UNL     1       6.785  -6.129  -7.071  0.00  0.00    +0.160 C 
ATOM     14  O   UNL     1       5.393  -5.825  -6.882  0.00  0.00    -0.375 OA
ENDBRANCH   9  10
ENDBRANCH   8   9
ENDBRANCH   3   4
BRANCH   3  16
ATOM     15  C   UNL     1       0.988  -0.375  -7.542  0.00  0.00    +0.002 C 
ATOM     16  C   UNL     1       0.873  -1.873  -7.833  0.00  0.00    -0.011 C 
ENDBRANCH   3  16
ENDBRANCH   1   3
BRANCH   1  17
ATOM     17  C   UNL     1       2.696  -2.842  -4.712  0.00  0.00    -0.042 C 
BRANCH  17  18
ATOM     18  C   UNL     1       3.659  -1.683  -4.680  0.00  0.00    -0.064 A 
ATOM     19  C   UNL     1       3.574  -0.742  -3.670  0.00  0.00    +0.005 A 
ATOM     20  C   UNL     1       4.456   0.321  -3.639  0.00  0.00    +0.046 A 
ATOM     21  C   UNL     1       5.426   0.445  -4.623  0.00  0.00    +0.120 A 
ATOM     22  C   UNL     1       5.505  -0.497  -5.639  0.00  0.00    +0.046 A 
ATOM     23  C   UNL     1       4.625  -1.561  -5.662  0.00  0.00    +0.005 A 
BRANCH  21  24
ATOM     24  O   UNL     1       6.295   1.490  -4.595  0.00  0.00    -0.495 OA
ATOM     25  C   UNL     1       7.267   1.554  -5.639  0.00  0.00    +0.277 C 
ENDBRANCH  21  24
ENDBRANCH  17  18
ENDBRANCH   1  17
BRANCH   1  26
ATOM     26  C   UNL     1       0.381  -3.326  -5.227  0.00  0.00    -0.036 C 
BRANCH  26  27
ATOM     27  C   UNL     1      -0.259  -2.798  -3.969  0.00  0.00    +0.001 A 
ATOM     28  C   UNL     1      -1.246  -1.872  -4.050  0.00  0.00    +0.017 A 
ATOM     29  C   UNL     1      -1.846  -1.379  -2.809  0.00  0.00    +0.002 A 
ATOM     30  C   UNL     1      -2.869  -0.425  -2.828  0.00  0.00    -0.041 A 
ATOM     31  C   UNL     1      -3.408   0.014  -1.653  0.00  0.00    +0.004 A 
ATOM     32  C   UNL     1      -2.951  -0.479  -0.438  0.00  0.00    +0.005 A 
ATOM     33  C   UNL     1      -1.945  -1.419  -0.395  0.00  0.00    -0.026 A 
ATOM     34  C   UNL     1      -1.380  -1.881  -1.579  0.00  0.00    +0.052 A 
ATOM     35  N   UNL     1      -0.372  -2.822  -1.565  0.00  0.00    -0.322 N 
ATOM     36  H   UNL     1      -0.052  -3.167  -0.717  0.00  0.00    +0.169 HD
ATOM     37  C   UNL     1       0.169  -3.273  -2.710  0.00  0.00    +0.251 A 
ATOM     38  O   UNL     1       1.055  -4.109  -2.660  0.00  0.00    -0.268 OA
ATOM     39  C   UNL     1      -1.458  -1.946   0.931  0.00  0.00    +0.046 C 
ATOM     40  C   UNL     1      -3.374   0.116  -4.141  0.00  0.00    +0.044 C 
ENDBRANCH  26  27
ENDBRANCH   1  26
TORSDOF 10
