REMARK  Name = ZINC40315235
REMARK  17 active torsions:
REMARK  status: ('A' for Active; 'I' for Inactive)
REMARK    1  A    between atoms: C_1  and  C_2
REMARK    2  A    between atoms: C_6  and  O_9
REMARK    3  A    between atoms: C_7  and  C_8
REMARK    4  A    between atoms: O_9  and  C_10
REMARK    5  A    between atoms: C_10  and  C_11
REMARK    6  A    between atoms: C_11  and  C_13
REMARK    7  A    between atoms: C_11  and  O_36
REMARK    8  A    between atoms: C_13  and  N_14
REMARK    9  A    between atoms: N_14  and  C_15
REMARK   10  A    between atoms: N_14  and  C_28
REMARK   11  A    between atoms: C_15  and  C_16
REMARK   12  A    between atoms: C_18  and  O_26
REMARK   13  A    between atoms: C_19  and  O_24
REMARK   14  A    between atoms: C_20  and  O_22
REMARK   15  A    between atoms: O_22  and  C_23
REMARK   16  A    between atoms: O_24  and  C_25
REMARK   17  A    between atoms: O_26  and  C_27
REMARK                            x       y       z     vdW  Elec       q    Type
REMARK                         _______ _______ _______ _____ _____    ______ ____
ROOT
ATOM      1  N   UNL     1      -0.534  -7.291   4.615  0.00  0.00    +0.387 N 
ATOM      2  H   UNL     1      -1.522  -7.303   4.818  0.00  0.00    -0.081 HD
ENDROOT
BRANCH   1   3
ATOM      3  C   UNL     1      -0.007  -5.937   4.825  0.00  0.00    -0.045 C 
ATOM      4  C   UNL     1       0.354  -5.744   6.308  0.00  0.00    +0.009 C 
ATOM      5  C   UNL     1       0.602  -4.244   6.600  0.00  0.00    +0.164 C 
ATOM      6  S   UNL     1      -0.454  -3.409   5.347  0.00  0.00    -0.033 S 
ATOM      7  O   UNL     1       0.374  -2.657   4.471  0.00  0.00    -0.174 OA
ATOM      8  O   UNL     1      -1.536  -2.767   6.009  0.00  0.00    -0.174 OA
ATOM      9  C   UNL     1      -1.091  -4.887   4.451  0.00  0.00    +0.151 C 
ENDBRANCH   1   3
BRANCH   1  10
ATOM     10  C   UNL     1      -0.316  -7.691   3.219  0.00  0.00    -0.043 C 
BRANCH  10  11
ATOM     11  C   UNL     1      -1.442  -7.130   2.347  0.00  0.00    +0.135 C 
BRANCH  11  12
ATOM     12  O   UNL     1      -2.704  -7.447   2.936  0.00  0.00    -0.390 OA
ATOM     13  H   UNL     1      -2.865  -8.396   3.035  0.00  0.00    +0.210 HD
ENDBRANCH  11  12
BRANCH  11  14
ATOM     14  C   UNL     1      -1.361  -7.750   0.950  0.00  0.00    +0.258 C 
BRANCH  14  15
ATOM     15  O   UNL     1      -2.338  -7.142   0.102  0.00  0.00    -0.489 OA
BRANCH  15  21
ATOM     16  C   UNL     1      -4.391  -6.891  -4.319  0.00  0.00    +0.044 C 
ATOM     17  C   UNL     1      -3.386  -7.484  -3.365  0.00  0.00    -0.044 A 
ATOM     18  C   UNL     1      -2.526  -8.476  -3.797  0.00  0.00    +0.004 A 
ATOM     19  C   UNL     1      -1.603  -9.022  -2.924  0.00  0.00    +0.004 A 
ATOM     20  C   UNL     1      -1.538  -8.577  -1.618  0.00  0.00    +0.046 A 
ATOM     21  C   UNL     1      -2.400  -7.581  -1.182  0.00  0.00    +0.124 A 
ATOM     22  C   UNL     1      -3.321  -7.031  -2.062  0.00  0.00    -0.006 A 
ATOM     23  C   UNL     1      -4.254  -5.944  -1.594  0.00  0.00    +0.048 C 
ENDBRANCH  15  21
ENDBRANCH  14  15
ENDBRANCH  11  14
ENDBRANCH  10  11
ENDBRANCH   1  10
BRANCH   1  24
ATOM     24  C   UNL     1       0.160  -8.231   5.507  0.00  0.00    -0.042 C 
BRANCH  24  25
ATOM     25  C   UNL     1      -0.384  -8.091   6.905  0.00  0.00    -0.057 A 
ATOM     26  C   UNL     1       0.482  -7.916   7.968  0.00  0.00    +0.051 A 
ATOM     27  C   UNL     1      -0.014  -7.787   9.256  0.00  0.00    +0.165 A 
ATOM     28  C   UNL     1      -1.385  -7.834   9.478  0.00  0.00    +0.204 A 
ATOM     29  C   UNL     1      -2.253  -8.010   8.407  0.00  0.00    +0.165 A 
ATOM     30  C   UNL     1      -1.749  -8.133   7.121  0.00  0.00    +0.051 A 
BRANCH  29  31
ATOM     31  O   UNL     1      -3.596  -8.057   8.619  0.00  0.00    -0.491 OA
ATOM     32  C   UNL     1      -4.428  -8.240   7.472  0.00  0.00    +0.277 C 
ENDBRANCH  29  31
BRANCH  28  33
ATOM     33  O   UNL     1      -1.877  -7.709  10.741  0.00  0.00    -0.488 OA
ATOM     34  C   UNL     1      -2.179  -6.387  11.192  0.00  0.00    +0.277 C 
ENDBRANCH  28  33
BRANCH  27  35
ATOM     35  O   UNL     1       0.840  -7.616  10.301  0.00  0.00    -0.491 OA
ATOM     36  C   UNL     1       2.236  -7.578   9.998  0.00  0.00    +0.277 C 
ENDBRANCH  27  35
ENDBRANCH  24  25
ENDBRANCH   1  24
TORSDOF 12
