REMARK  Name = ZINC20355662
REMARK  6 active torsions:
REMARK  status: ('A' for Active; 'I' for Inactive)
REMARK    1  A    between atoms: C_1  and  C_2
REMARK    2  A    between atoms: N_5  and  S_8
REMARK    3  A    between atoms: S_8  and  C_11
REMARK    4  A    between atoms: N_17  and  C_22
REMARK    5  A    between atoms: C_22  and  C_23
REMARK    6  A    between atoms: N_25  and  C_26
REMARK                            x       y       z     vdW  Elec       q    Type
REMARK                         _______ _______ _______ _____ _____    ______ ____
ROOT
ATOM      1  C   UNL     1       1.860   4.348  -3.399  0.00  0.00    +0.107 A 
ATOM      2  C   UNL     1       3.202   4.027  -3.307  0.00  0.00    +0.030 A 
ATOM      3  C   UNL     1       3.813   3.319  -4.325  0.00  0.00    +0.018 A 
ATOM      4  C   UNL     1       3.082   2.942  -5.439  0.00  0.00    +0.030 A 
ATOM      5  C   UNL     1       1.729   3.269  -5.543  0.00  0.00    +0.052 A 
ATOM      6  C   UNL     1       1.126   3.976  -4.508  0.00  0.00    +0.053 A 
ATOM      7  N   UNL     1       0.975   2.907  -6.656  0.00  0.00    -0.261 N 
ATOM      8  C   UNL     1       1.256   1.930  -7.513  0.00  0.00    +0.230 C 
ATOM      9  O   UNL     1       0.488   1.736  -8.432  0.00  0.00    -0.274 OA
ATOM     10  C   UNL     1       2.473   1.052  -7.406  0.00  0.00    +0.170 C 
ATOM     11  S   UNL     1       3.850   2.039  -6.746  0.00  0.00    -0.114 S 
ENDROOT
BRANCH   1  12
ATOM     12  S   UNL     1       1.082   5.242  -2.095  0.00  0.00    +0.061 S 
ATOM     13  O   UNL     1      -0.041   5.899  -2.666  0.00  0.00    -0.153 OA
ATOM     14  O   UNL     1       2.112   5.947  -1.415  0.00  0.00    -0.153 OA
BRANCH  12  19
ATOM     15  C   UNL     1      -0.046   0.045   0.048  0.00  0.00    +0.007 C 
ATOM     16  C   UNL     1      -0.082   1.575   0.051  0.00  0.00    -0.012 C 
ATOM     17  C   UNL     1      -0.813   2.070  -1.200  0.00  0.00    +0.020 C 
ATOM     18  C   UNL     1      -0.877   3.600  -1.176  0.00  0.00    +0.110 C 
ATOM     19  N   UNL     1       0.485   4.128  -1.025  0.00  0.00    -0.177 NA
ATOM     20  C   UNL     1       1.309   3.649   0.094  0.00  0.00    +0.110 C 
ATOM     21  C   UNL     1       1.348   2.118   0.056  0.00  0.00    +0.020 C 
ENDBRANCH  12  19
ENDBRANCH   1  12
BRANCH   7  22
ATOM     22  C   UNL     1      -0.246   3.677  -6.907  0.00  0.00    +0.209 C 
BRANCH  22  23
ATOM     23  C   UNL     1      -1.425   2.962  -6.298  0.00  0.00    +0.235 C 
ATOM     24  O   UNL     1      -1.261   1.913  -5.712  0.00  0.00    -0.274 OA
ATOM     25  N   UNL     1      -2.660   3.489  -6.404  0.00  0.00    -0.282 N 
ATOM     26  H   UNL     1      -2.824   4.390  -7.014  0.00  0.00    +0.155 HD
BRANCH  25  27
ATOM     27  C   UNL     1      -3.737   2.889  -5.739  0.00  0.00    +0.072 A 
ATOM     28  C   UNL     1      -3.541   2.279  -4.508  0.00  0.00    +0.064 A 
ATOM     29  C   UNL     1      -4.607   1.691  -3.851  0.00  0.00    +0.125 A 
ATOM     30  C   UNL     1      -5.867   1.702  -4.426  0.00  0.00    +0.041 A 
ATOM     31  C   UNL     1      -6.064   2.305  -5.655  0.00  0.00    +0.043 A 
ATOM     32  C   UNL     1      -5.003   2.898  -6.314  0.00  0.00    +0.145 A 
ATOM     33  F   UNL     1      -5.197   3.487  -7.514  0.00  0.00    -0.204 F 
ATOM     34  F   UNL     1      -4.418   1.102  -2.650  0.00  0.00    -0.205 F 
ENDBRANCH  25  27
ENDBRANCH  22  23
ENDBRANCH   7  22
TORSDOF 5
