REMARK  Name = ZINC04122985
REMARK  11 active torsions:
REMARK  status: ('A' for Active; 'I' for Inactive)
REMARK    1  A    between atoms: C_1  and  C_2
REMARK    2  A    between atoms: C_2  and  N_3
REMARK    3  A    between atoms: N_3  and  C_4
REMARK    4  A    between atoms: N_3  and  C_6
REMARK    5  A    between atoms: C_4  and  C_5
REMARK    6  A    between atoms: C_9  and  C_13
REMARK    7  A    between atoms: C_10  and  O_12
REMARK    8  A    between atoms: C_25  and  O_27
REMARK    9  A    between atoms: O_27  and  C_28
REMARK   10  A    between atoms: C_28  and  C_29
REMARK   11  A    between atoms: C_30  and  O_32
REMARK                            x       y       z     vdW  Elec       q    Type
REMARK                         _______ _______ _______ _____ _____    ______ ____
ROOT
ATOM      1  C   UNL     1      -1.267  -6.173   0.976  0.00  0.00    +0.227 C 
ATOM      2  N   UNL     1      -1.029  -6.884  -0.293  0.00  0.00    -0.313 N 
ATOM      3  C   UNL     1      -2.133  -7.105  -1.085  0.00  0.00    +0.080 A 
ATOM      4  C   UNL     1      -3.426  -7.164  -0.552  0.00  0.00    +0.068 A 
ATOM      5  C   UNL     1      -4.493  -7.390  -1.511  0.00  0.00    -0.020 A 
ATOM      6  C   UNL     1      -4.075  -7.519  -2.791  0.00  0.00    +0.013 A 
ATOM      7  S   UNL     1      -2.314  -7.345  -2.716  0.00  0.00    -0.076 S 
ATOM      8  C   UNL     1      -4.935  -7.752  -3.996  0.00  0.00    +0.153 C 
ATOM      9  N   UNL     1      -6.295  -8.054  -3.507  0.00  0.00    -0.262 N 
ATOM     10  C   UNL     1      -6.814  -7.244  -2.395  0.00  0.00    +0.116 C 
ATOM     11  C   UNL     1      -5.967  -7.488  -1.144  0.00  0.00    +0.056 C 
ATOM     12  C   UNL     1      -7.034  -9.036  -4.061  0.00  0.00    +0.403 C 
ATOM     13  O   UNL     1      -8.151  -9.266  -3.641  0.00  0.00    -0.226 OA
ATOM     14  C   UNL     1      -3.570  -6.998   0.917  0.00  0.00    +0.220 C 
ATOM     15  N   UNL     1      -2.534  -6.566   1.581  0.00  0.00    -0.223 NA
ATOM     16  H   UNL     1      -0.143  -7.180  -0.555  0.00  0.00    +0.149 HD
ENDROOT
BRANCH   1  20
ATOM     17  C   UNL     1      -1.323  -1.965   0.226  0.00  0.00    +0.017 A 
ATOM     18  C   UNL     1      -0.653  -2.814  -0.634  0.00  0.00    +0.022 A 
ATOM     19  C   UNL     1      -0.635  -4.175  -0.392  0.00  0.00    +0.013 A 
ATOM     20  C   UNL     1      -1.287  -4.690   0.713  0.00  0.00    +0.036 A 
ATOM     21  C   UNL     1      -1.960  -3.840   1.577  0.00  0.00    +0.125 A 
ATOM     22  C   UNL     1      -1.972  -2.474   1.335  0.00  0.00    +0.067 A 
BRANCH  17  23
ATOM     23  N   UNL     1      -1.340  -0.589  -0.022  0.00  0.00    -0.394 NA
ATOM     24  H   UNL     1      -1.866  -0.123   0.702  0.00  0.00    +0.126 HD
BRANCH  23  26
ATOM     25  C   UNL     1       0.642  -0.208   1.365  0.00  0.00    +0.022 C 
ATOM     26  C   UNL     1       0.037  -0.077  -0.034  0.00  0.00    +0.081 C 
ENDBRANCH  23  26
BRANCH  23  27
ATOM     27  C   UNL     1      -1.968  -0.335  -1.325  0.00  0.00    +0.081 C 
ATOM     28  C   UNL     1      -3.440  -0.751  -1.272  0.00  0.00    +0.022 C 
ENDBRANCH  23  27
ENDBRANCH  17  23
BRANCH  21  29
ATOM     29  O   UNL     1      -2.602  -4.343   2.664  0.00  0.00    -0.506 OA
ATOM     30  H   UNL     1      -2.052  -4.394   3.458  0.00  0.00    +0.292 HD
ENDBRANCH  21  29
ENDBRANCH   1  20
BRANCH  14  31
ATOM     31  O   UNL     1      -4.734  -7.286   1.544  0.00  0.00    -0.492 OA
ATOM     32  H   UNL     1      -4.713  -7.141   2.500  0.00  0.00    +0.294 HD
ENDBRANCH  14  31
BRANCH  12  33
ATOM     33  O   UNL     1      -6.535  -9.762  -5.079  0.00  0.00    -0.451 OA
BRANCH  33  34
ATOM     34  C   UNL     1      -7.373 -10.787  -5.617  0.00  0.00    +0.230 C 
ATOM     35  C   UNL     1      -6.640 -11.499  -6.756  0.00  0.00    +0.048 C 
ENDBRANCH  33  34
ENDBRANCH  12  33
TORSDOF 8
