REMARK  Name = ZINC46058012
REMARK  8 active torsions:
REMARK  status: ('A' for Active; 'I' for Inactive)
REMARK    1  A    between atoms: C_1  and  C_2
REMARK    2  A    between atoms: C_5  and  N_9
REMARK    3  A    between atoms: C_6  and  C_8
REMARK    4  A    between atoms: C_10  and  C_12
REMARK    5  A    between atoms: C_16  and  N_21
REMARK    6  A    between atoms: N_21  and  C_22
REMARK    7  A    between atoms: N_21  and  S_23
REMARK    8  A    between atoms: S_23  and  C_26
REMARK                            x       y       z     vdW  Elec       q    Type
REMARK                         _______ _______ _______ _____ _____    ______ ____
ROOT
ATOM      1  C   UNL     1       0.405  -6.129  -1.851  0.00  0.00    +0.075 A 
ATOM      2  C   UNL     1       0.197  -7.073  -2.808  0.00  0.00    +0.029 A 
ATOM      3  C   UNL     1       0.020  -8.418  -2.438  0.00  0.00    -0.008 A 
ATOM      4  C   UNL     1      -0.207  -9.537  -3.282  0.00  0.00    +0.033 A 
ATOM      5  C   UNL     1      -0.360 -10.793  -2.746  0.00  0.00    +0.051 A 
ATOM      6  C   UNL     1      -0.297 -11.006  -1.368  0.00  0.00    +0.026 A 
ATOM      7  C   UNL     1      -0.080  -9.947  -0.529  0.00  0.00    +0.017 A 
ATOM      8  C   UNL     1       0.076  -8.679  -1.049  0.00  0.00    +0.020 A 
ATOM      9  S   UNL     1       0.373  -7.078  -0.341  0.00  0.00    -0.084 S 
ENDROOT
BRANCH   1  11
ATOM     10  N   UNL     1       0.811  -3.901  -0.942  0.00  0.00    -0.281 N 
ATOM     11  C   UNL     1       0.612  -4.684  -2.020  0.00  0.00    +0.255 C 
ATOM     12  O   UNL     1       0.604  -4.194  -3.134  0.00  0.00    -0.269 OA
ATOM     13  H   UNL     1       0.887  -4.299  -0.060  0.00  0.00    +0.155 HD
BRANCH  10  18
ATOM     14  C   UNL     1       1.201   1.725  -1.555  0.00  0.00    +0.044 C 
ATOM     15  C   UNL     1       1.097   0.230  -1.392  0.00  0.00    -0.050 A 
ATOM     16  C   UNL     1       1.483  -0.605  -2.425  0.00  0.00    +0.005 A 
ATOM     17  C   UNL     1       1.389  -1.975  -2.279  0.00  0.00    +0.024 A 
ATOM     18  C   UNL     1       0.907  -2.514  -1.093  0.00  0.00    +0.037 A 
ATOM     19  C   UNL     1       0.521  -1.673  -0.057  0.00  0.00    -0.029 A 
ATOM     20  C   UNL     1       0.623  -0.303  -0.208  0.00  0.00    +0.008 A 
ATOM     21  C   UNL     1      -0.002  -2.253   1.231  0.00  0.00    +0.045 C 
ENDBRANCH  10  18
ENDBRANCH   1  11
BRANCH   5  22
ATOM     22  N   UNL     1      -0.584 -11.880  -3.599  0.00  0.00    -0.211 N 
ATOM     23  C   UNL     1      -1.722 -11.866  -4.521  0.00  0.00    +0.157 C 
BRANCH  22  24
ATOM     24  S   UNL     1       0.438 -13.182  -3.566  0.00  0.00    +0.042 S 
ATOM     25  O   UNL     1       0.414 -13.696  -4.890  0.00  0.00    -0.155 OA
ATOM     26  O   UNL     1       1.645 -12.682  -3.005  0.00  0.00    -0.155 OA
ATOM     27  C   UNL     1      -0.341 -14.358  -2.425  0.00  0.00    +0.218 C 
ENDBRANCH  22  24
ENDBRANCH   5  22
TORSDOF 4
