REMARK  Name = ZINC62811503
REMARK  3 active torsions:
REMARK  status: ('A' for Active; 'I' for Inactive)
REMARK    1  A    between atoms: C_5  and  C_6
REMARK    2  A    between atoms: C_12  and  C_14
REMARK    3  A    between atoms: C_15  and  N_20
REMARK                            x       y       z     vdW  Elec       q    Type
REMARK                         _______ _______ _______ _____ _____    ______ ____
ROOT
ATOM      1  C   UNL     1      -1.286  -0.786   0.011  0.00  0.00    +0.107 C 
ATOM      2  C   UNL     1      -1.585  -1.289   1.439  0.00  0.00    +0.029 C 
ATOM      3  C   UNL     1      -2.169  -2.705   1.194  0.00  0.00    +0.021 C 
ATOM      4  C   UNL     1      -1.336  -3.178  -0.024  0.00  0.00    +0.109 C 
ATOM      5  N   UNL     1      -1.158  -1.969  -0.854  0.00  0.00    -0.289 N 
ATOM      6  C   UNL     1      -0.919  -1.950  -2.180  0.00  0.00    +0.269 C 
ATOM      7  O   UNL     1      -0.790  -0.889  -2.760  0.00  0.00    -0.268 OA
ENDROOT
BRANCH   6   8
ATOM      8  C   UNL     1      -0.815  -3.217  -2.928  0.00  0.00    +0.168 A 
ATOM      9  C   UNL     1      -0.563  -3.357  -4.317  0.00  0.00    +0.075 A 
ATOM     10  C   UNL     1      -0.555  -4.697  -4.550  0.00  0.00    +0.128 A 
ATOM     11  N   UNL     1      -0.790  -5.309  -3.360  0.00  0.00    -0.282 N 
ATOM     12  H   UNL     1      -0.839  -6.269  -3.229  0.00  0.00    +0.188 HD
ATOM     13  N   UNL     1      -0.932  -4.434  -2.431  0.00  0.00    -0.167 NA
BRANCH   9  14
ATOM     14  N   UNL     1      -0.363  -2.332  -5.252  0.00  0.00    -0.355 N 
ATOM     15  H   UNL     1      -0.391  -1.404  -4.969  0.00  0.00    +0.142 HD
ATOM     16  H   UNL     1      -0.198  -2.549  -6.183  0.00  0.00    +0.142 HD
ENDBRANCH   9  14
ENDBRANCH   6   8
BRANCH   1  21
ATOM     17  C   UNL     1      -0.017   1.378   0.010  0.00  0.00    +0.013 A 
ATOM     18  C   UNL     1       1.160   2.051   0.002  0.00  0.00    +0.045 A 
ATOM     19  S   UNL     1       2.348   0.719  -0.017  0.00  0.00    -0.105 S 
ATOM     20  C   UNL     1       1.196  -0.645  -0.013  0.00  0.00    +0.050 A 
ATOM     21  C   UNL     1       0.002  -0.004   0.002  0.00  0.00    -0.020 A 
ENDBRANCH   1  21
TORSDOF 3
