REMARK  Name = ZINC10593384
REMARK  7 active torsions:
REMARK  status: ('A' for Active; 'I' for Inactive)
REMARK    1  A    between atoms: C_6  and  O_11
REMARK    2  A    between atoms: O_11  and  C_12
REMARK    3  A    between atoms: C_12  and  C_13
REMARK    4  A    between atoms: C_13  and  O_15
REMARK    5  A    between atoms: O_15  and  C_16
REMARK    6  A    between atoms: C_16  and  C_17
REMARK    7  A    between atoms: N_19  and  C_20
REMARK                            x       y       z     vdW  Elec       q    Type
REMARK                         _______ _______ _______ _____ _____    ______ ____
ROOT
ATOM      1  C   UNL     1       2.424   4.233   0.005  0.00  0.00    +0.255 C 
ATOM      2  O   UNL     1       3.395   3.508   0.002  0.00  0.00    -0.272 OA
ATOM      3  N   UNL     1       2.582   5.572   0.007  0.00  0.00    -0.283 N 
ATOM      4  H   UNL     1       1.808   6.152  -0.058  0.00  0.00    +0.155 HD
ENDROOT
BRANCH   3   5
ATOM      5  C   UNL     1       3.860   6.122   0.103  0.00  0.00    +0.034 A 
ATOM      6  C   UNL     1       4.051   7.309   0.801  0.00  0.00    +0.024 A 
ATOM      7  C   UNL     1       5.313   7.860   0.907  0.00  0.00    +0.014 A 
ATOM      8  C   UNL     1       6.401   7.232   0.303  0.00  0.00    +0.033 A 
ATOM      9  C   UNL     1       6.210   6.033  -0.409  0.00  0.00    +0.035 A 
ATOM     10  C   UNL     1       4.937   5.484  -0.505  0.00  0.00    +0.035 A 
ATOM     11  C   UNL     1       7.361   5.362  -1.050  0.00  0.00    +0.195 C 
ATOM     12  O   UNL     1       7.196   4.327  -1.666  0.00  0.00    -0.287 OA
ATOM     13  C   UNL     1       8.711   5.952  -0.942  0.00  0.00    +0.033 A 
ATOM     14  C   UNL     1       9.801   5.328  -1.543  0.00  0.00    +0.012 A 
ATOM     15  C   UNL     1      11.062   5.888  -1.437  0.00  0.00    +0.001 A 
ATOM     16  C   UNL     1      11.248   7.066  -0.737  0.00  0.00    +0.001 A 
ATOM     17  C   UNL     1      10.175   7.700  -0.134  0.00  0.00    +0.012 A 
ATOM     18  C   UNL     1       8.901   7.150  -0.230  0.00  0.00    +0.033 A 
ATOM     19  C   UNL     1       7.750   7.820   0.411  0.00  0.00    +0.195 C 
ATOM     20  O   UNL     1       7.914   8.856   1.026  0.00  0.00    -0.287 OA
ENDBRANCH   3   5
BRANCH   1  21
ATOM     21  C   UNL     1       1.039   3.639   0.005  0.00  0.00    +0.328 C 
BRANCH  21  22
ATOM     22  O   UNL     1       1.134   2.190   0.002  0.00  0.00    -0.453 OA
BRANCH  22  23
ATOM     23  C   UNL     1      -0.019   1.503   0.002  0.00  0.00    +0.346 C 
ATOM     24  O   UNL     1      -1.073   2.093  -0.000  0.00  0.00    -0.247 OA
BRANCH  23  25
ATOM     25  C   UNL     1       0.001  -0.004  -0.001  0.00  0.00    +0.349 C 
BRANCH  25  26
ATOM     26  O   UNL     1      -1.340  -0.498  -0.001  0.00  0.00    -0.481 OA
BRANCH  26  32
ATOM     27  C   UNL     1      -3.205  -6.531  -0.012  0.00  0.00    +0.001 A 
ATOM     28  C   UNL     1      -4.330  -5.708  -0.009  0.00  0.00    +0.001 A 
ATOM     29  C   UNL     1      -4.205  -4.353  -0.006  0.00  0.00    +0.008 A 
ATOM     30  C   UNL     1      -2.925  -3.771  -0.005  0.00  0.00    -0.014 A 
ATOM     31  C   UNL     1      -2.759  -2.377  -0.003  0.00  0.00    +0.054 A 
ATOM     32  C   UNL     1      -1.500  -1.847  -0.003  0.00  0.00    +0.122 A 
ATOM     33  C   UNL     1      -0.373  -2.676  -0.012  0.00  0.00    +0.046 A 
ATOM     34  C   UNL     1      -0.501  -4.030  -0.009  0.00  0.00    +0.012 A 
ATOM     35  C   UNL     1      -1.782  -4.609  -0.009  0.00  0.00    -0.018 A 
ATOM     36  C   UNL     1      -1.950  -6.004  -0.012  0.00  0.00    +0.008 A 
ENDBRANCH  26  32
ENDBRANCH  25  26
ENDBRANCH  23  25
ENDBRANCH  22  23
ENDBRANCH  21  22
ENDBRANCH   1  21
TORSDOF 7
