REMARK  Name = ZINC20757645
REMARK  8 active torsions:
REMARK  status: ('A' for Active; 'I' for Inactive)
REMARK    1  A    between atoms: C_1  and  C_2
REMARK    2  A    between atoms: C_3  and  S_12
REMARK    3  A    between atoms: S_12  and  N_15
REMARK    4  A    between atoms: N_18  and  C_21
REMARK    5  A    between atoms: C_24  and  N_35
REMARK    6  A    between atoms: C_25  and  N_27
REMARK    7  A    between atoms: N_27  and  C_28
REMARK    8  A    between atoms: C_28  and  C_29
REMARK                            x       y       z     vdW  Elec       q    Type
REMARK                         _______ _______ _______ _____ _____    ______ ____
ROOT
ATOM      1  N   UNL     1      10.434  -3.180   1.728  0.00  0.00    -0.173 NA
ATOM      2  C   UNL     1      10.133  -4.272   0.789  0.00  0.00    +0.128 C 
ATOM      3  C   UNL     1       9.249  -3.719  -0.334  0.00  0.00    +0.122 C 
ATOM      4  N   UNL     1       8.073  -3.061   0.252  0.00  0.00    -0.327 N 
ATOM      5  C   UNL     1       8.462  -1.906   1.071  0.00  0.00    +0.122 C 
ATOM      6  C   UNL     1       9.313  -2.385   2.252  0.00  0.00    +0.128 C 
ENDROOT
BRANCH   4   7
ATOM      7  C   UNL     1       7.163  -2.688  -0.740  0.00  0.00    +0.032 A 
ATOM      8  C   UNL     1       7.440  -2.956  -2.075  0.00  0.00    +0.025 A 
ATOM      9  C   UNL     1       6.540  -2.587  -3.056  0.00  0.00    +0.036 A 
ATOM     10  C   UNL     1       5.359  -1.957  -2.713  0.00  0.00    +0.147 A 
ATOM     11  C   UNL     1       5.079  -1.681  -1.381  0.00  0.00    +0.060 A 
ATOM     12  C   UNL     1       5.981  -2.050  -0.393  0.00  0.00    +0.048 A 
BRANCH  10  13
ATOM     13  N   UNL     1       4.395  -1.569  -3.768  0.00  0.00    +0.058 N 
ATOM     14  O   UNL     1       4.594  -1.895  -4.924  0.00  0.00    -0.126 OA
ATOM     15  O   UNL     1       3.403  -0.925  -3.478  0.00  0.00    -0.126 OA
ENDBRANCH  10  13
BRANCH  11  16
ATOM     16  N   UNL     1       3.888  -1.038  -1.036  0.00  0.00    -0.338 N 
ATOM     17  H   UNL     1       3.214  -0.669  -1.823  0.00  0.00    +0.146 HD
BRANCH  16  18
ATOM     18  C   UNL     1       3.537  -0.854   0.374  0.00  0.00    +0.137 C 
BRANCH  18  19
ATOM     19  C   UNL     1       2.214  -0.138   0.474  0.00  0.00    -0.030 A 
ATOM     20  C   UNL     1       1.038  -0.863   0.515  0.00  0.00    +0.005 A 
ATOM     21  C   UNL     1      -0.175  -0.207   0.605  0.00  0.00    +0.000 A 
ATOM     22  C   UNL     1      -0.212   1.174   0.655  0.00  0.00    +0.000 A 
ATOM     23  C   UNL     1       0.964   1.899   0.614  0.00  0.00    +0.000 A 
ATOM     24  C   UNL     1       2.177   1.243   0.523  0.00  0.00    +0.005 A 
ENDBRANCH  18  19
ENDBRANCH  16  18
ENDBRANCH  11  16
ENDBRANCH   4   7
BRANCH   1  25
ATOM     25  S   UNL     1      11.993  -2.855   2.181  0.00  0.00    +0.068 S 
ATOM     26  O   UNL     1      11.928  -2.297   3.487  0.00  0.00    -0.153 OA
ATOM     27  O   UNL     1      12.752  -4.020   1.887  0.00  0.00    -0.153 OA
BRANCH  25  30
ATOM     28  C   UNL     1      11.948   0.079   2.841  0.00  0.00    +0.065 C 
ATOM     29  C   UNL     1      12.530  -0.289   1.500  0.00  0.00    +0.049 A 
ATOM     30  C   UNL     1      12.590  -1.583   1.119  0.00  0.00    +0.188 A 
ATOM     31  C   UNL     1      13.134  -1.903  -0.148  0.00  0.00    +0.281 A 
ATOM     32  O   UNL     1      13.195  -3.062  -0.516  0.00  0.00    -0.266 OA
ATOM     33  N   UNL     1      13.585  -0.912  -0.944  0.00  0.00    -0.273 N 
ATOM     34  H   UNL     1      14.010  -1.150  -1.930  0.00  0.00    +0.173 HD
ATOM     35  C   UNL     1      13.518   0.369  -0.537  0.00  0.00    +0.327 A 
ATOM     36  O   UNL     1      13.928   1.252  -1.265  0.00  0.00    -0.247 OA
ATOM     37  N   UNL     1      13.002   0.686   0.665  0.00  0.00    -0.310 N 
ATOM     38  H   UNL     1      12.963   1.741   0.973  0.00  0.00    +0.170 HD
ENDBRANCH  25  30
ENDBRANCH   1  25
TORSDOF 7
