REMARK  Name = ZINC18180905
REMARK  11 active torsions:
REMARK  status: ('A' for Active; 'I' for Inactive)
REMARK    1  A    between atoms: C_1  and  C_2
REMARK    2  A    between atoms: C_2  and  C_3
REMARK    3  A    between atoms: C_15  and  C_17
REMARK    4  A    between atoms: C_20  and  C_23
REMARK    5  A    between atoms: C_27  and  C_30
REMARK    6  A    between atoms: C_32  and  O_40
REMARK    7  A    between atoms: C_33  and  O_38
REMARK    8  A    between atoms: C_34  and  O_36
REMARK    9  A    between atoms: O_36  and  C_37
REMARK   10  A    between atoms: O_38  and  C_39
REMARK   11  A    between atoms: O_40  and  C_41
REMARK                            x       y       z     vdW  Elec       q    Type
REMARK                         _______ _______ _______ _____ _____    ______ ____
ROOT
ATOM      1  C   UNL     1      -5.142   6.615   1.576  0.00  0.00    +0.220 C 
ATOM      2  O   UNL     1      -4.920   7.443   0.718  0.00  0.00    -0.275 OA
ATOM      3  N   UNL     1      -5.013   5.303   1.296  0.00  0.00    -0.258 N 
ATOM      4  C   UNL     1      -5.271   4.358   2.290  0.00  0.00    +0.058 A 
ATOM      5  C   UNL     1      -6.537   4.199   2.828  0.00  0.00    +0.025 A 
ATOM      6  C   UNL     1      -6.754   3.216   3.778  0.00  0.00    +0.002 A 
ATOM      7  C   UNL     1      -5.718   2.396   4.186  0.00  0.00    +0.002 A 
ATOM      8  C   UNL     1      -4.447   2.564   3.664  0.00  0.00    +0.025 A 
ATOM      9  C   UNL     1      -4.224   3.562   2.730  0.00  0.00    +0.053 A 
ATOM     10  N   UNL     1      -2.955   3.860   2.252  0.00  0.00    -0.316 N 
ATOM     11  C   UNL     1      -2.565   3.748   0.956  0.00  0.00    +0.017 C 
ATOM     12  C   UNL     1      -3.271   4.198  -0.096  0.00  0.00    +0.037 C 
ATOM     13  C   UNL     1      -4.609   4.893  -0.033  0.00  0.00    +0.147 C 
ATOM     14  C   UNL     1      -2.773   4.032  -1.410  0.00  0.00    +0.163 C 
ATOM     15  O   UNL     1      -3.423   4.463  -2.342  0.00  0.00    -0.292 OA
ATOM     16  C   UNL     1      -1.471   3.344  -1.693  0.00  0.00    +0.088 C 
ATOM     17  C   UNL     1      -1.207   2.324  -0.579  0.00  0.00    +0.032 C 
ATOM     18  C   UNL     1      -1.219   3.074   0.752  0.00  0.00    +0.059 C 
ATOM     19  H   UNL     1      -2.297   4.173   2.892  0.00  0.00    +0.152 HD
ENDROOT
BRANCH  13  20
ATOM     20  C   UNL     1      -5.658   3.962  -0.584  0.00  0.00    -0.022 A 
ATOM     21  C   UNL     1      -5.924   2.765   0.054  0.00  0.00    +0.006 A 
ATOM     22  C   UNL     1      -6.889   1.913  -0.450  0.00  0.00    +0.004 A 
ATOM     23  C   UNL     1      -7.581   2.253  -1.597  0.00  0.00    -0.050 A 
ATOM     24  C   UNL     1      -7.311   3.447  -2.238  0.00  0.00    +0.004 A 
ATOM     25  C   UNL     1      -6.349   4.302  -1.732  0.00  0.00    +0.006 A 
ATOM     26  C   UNL     1      -8.630   1.322  -2.148  0.00  0.00    +0.044 C 
ENDBRANCH  13  20
BRANCH  17  27
ATOM     27  C   UNL     1       0.138   1.677  -0.788  0.00  0.00    -0.036 A 
ATOM     28  C   UNL     1       1.279   2.455  -0.826  0.00  0.00    +0.053 A 
ATOM     29  C   UNL     1       2.518   1.864  -1.024  0.00  0.00    +0.165 A 
ATOM     30  C   UNL     1       2.610   0.486  -1.183  0.00  0.00    +0.204 A 
ATOM     31  C   UNL     1       1.460  -0.293  -1.144  0.00  0.00    +0.165 A 
ATOM     32  C   UNL     1       0.225   0.306  -0.946  0.00  0.00    +0.053 A 
BRANCH  31  33
ATOM     33  O   UNL     1       1.546  -1.641  -1.299  0.00  0.00    -0.491 OA
ATOM     34  C   UNL     1       0.323  -2.379  -1.247  0.00  0.00    +0.277 C 
ENDBRANCH  31  33
BRANCH  30  35
ATOM     35  O   UNL     1       3.824  -0.098  -1.377  0.00  0.00    -0.488 OA
ATOM     36  C   UNL     1       4.268  -0.241  -2.728  0.00  0.00    +0.277 C 
ENDBRANCH  30  35
BRANCH  29  37
ATOM     37  O   UNL     1       3.640   2.630  -1.061  0.00  0.00    -0.491 OA
ATOM     38  C   UNL     1       3.470   4.039  -0.889  0.00  0.00    +0.277 C 
ENDBRANCH  29  37
ENDBRANCH  17  27
BRANCH   1  40
ATOM     39  C   UNL     1      -5.631   8.580   3.007  0.00  0.00    +0.013 C 
ATOM     40  C   UNL     1      -5.562   7.053   2.955  0.00  0.00    +0.093 C 
ENDBRANCH   1  40
TORSDOF 6
