REMARK  Name = ZINC36601177
REMARK  11 active torsions:
REMARK  status: ('A' for Active; 'I' for Inactive)
REMARK    1  A    between atoms: C_1  and  C_2
REMARK    2  A    between atoms: C_5  and  S_8
REMARK    3  A    between atoms: S_8  and  C_11
REMARK    4  A    between atoms: C_11  and  N_12
REMARK    5  A    between atoms: C_13  and  C_15
REMARK    6  A    between atoms: C_15  and  C_17
REMARK    7  A    between atoms: C_15  and  N_22
REMARK    8  A    between atoms: N_22  and  C_23
REMARK    9  A    between atoms: C_23  and  C_24
REMARK   10  A    between atoms: C_27  and  C_29
REMARK   11  A    between atoms: C_30  and  C_32
REMARK                            x       y       z     vdW  Elec       q    Type
REMARK                         _______ _______ _______ _____ _____    ______ ____
ROOT
ATOM      1  C   UNL     1       2.995  -5.050   3.432  0.00  0.00    +0.229 C 
ENDROOT
BRANCH   1   2
ATOM      2  C   UNL     1       4.355  -4.402   3.473  0.00  0.00    +0.134 A 
ATOM      3  C   UNL     1       4.596  -3.079   3.480  0.00  0.00    +0.047 A 
ATOM      4  C   UNL     1       6.000  -2.918   3.522  0.00  0.00    +0.041 A 
ATOM      5  C   UNL     1       6.533  -4.153   3.539  0.00  0.00    +0.195 A 
ATOM      6  O   UNL     1       5.532  -5.048   3.515  0.00  0.00    -0.465 OA
ENDBRANCH   1   2
BRANCH   1   8
ATOM      7  N   UNL     1       2.598  -4.778   1.006  0.00  0.00    -0.294 N 
ATOM      8  C   UNL     1       2.747  -5.611   2.055  0.00  0.00    +0.242 C 
ATOM      9  O   UNL     1       2.681  -6.811   1.892  0.00  0.00    -0.273 OA
ATOM     10  H   UNL     1       2.650  -3.819   1.137  0.00  0.00    +0.150 HD
BRANCH   7  11
ATOM     11  C   UNL     1       2.357  -5.323  -0.333  0.00  0.00    +0.278 C 
BRANCH  11  12
ATOM     12  S   UNL     1       0.573  -5.356  -0.659  0.00  0.00    +0.013 S 
ATOM     13  O   UNL     1      -0.118  -5.917   0.449  0.00  0.00    -0.168 OA
ATOM     14  O   UNL     1       0.325  -5.824  -1.978  0.00  0.00    -0.168 OA
BRANCH  12  19
ATOM     15  C   UNL     1      -1.099   0.441  -0.742  0.00  0.00    +0.044 C 
ATOM     16  C   UNL     1      -0.682  -1.007  -0.721  0.00  0.00    -0.050 A 
ATOM     17  C   UNL     1      -0.274  -1.626  -1.889  0.00  0.00    +0.005 A 
ATOM     18  C   UNL     1       0.109  -2.954  -1.870  0.00  0.00    +0.027 A 
ATOM     19  C   UNL     1       0.085  -3.663  -0.683  0.00  0.00    +0.090 A 
ATOM     20  C   UNL     1      -0.321  -3.044   0.484  0.00  0.00    +0.027 A 
ATOM     21  C   UNL     1      -0.700  -1.715   0.466  0.00  0.00    +0.005 A 
ENDBRANCH  12  19
ENDBRANCH  11  12
ENDBRANCH   7  11
ENDBRANCH   1   8
BRANCH   1  22
ATOM     22  N   UNL     1       2.940  -6.133   4.417  0.00  0.00    -0.275 N 
ATOM     23  C   UNL     1       3.806  -7.162   4.336  0.00  0.00    +0.237 C 
ATOM     24  O   UNL     1       4.568  -7.242   3.395  0.00  0.00    -0.274 OA
BRANCH  23  25
ATOM     25  C   UNL     1       3.829  -8.215   5.415  0.00  0.00    +0.159 C 
ATOM     26  C   UNL     1       4.806  -7.807   6.540  0.00  0.00    +0.041 C 
ATOM     27  C   UNL     1       6.108  -8.514   6.098  0.00  0.00    +0.098 C 
ATOM     28  C   UNL     1       5.632  -9.669   5.245  0.00  0.00    +0.214 C 
ATOM     29  O   UNL     1       6.307 -10.627   4.934  0.00  0.00    -0.276 OA
ATOM     30  N   UNL     1       4.350  -9.478   4.880  0.00  0.00    -0.304 N 
ATOM     31  H   UNL     1       3.837 -10.095   4.335  0.00  0.00    +0.149 HD
ENDBRANCH  23  25
BRANCH  22  32
ATOM     32  C   UNL     1       1.944  -6.097   5.491  0.00  0.00    +0.183 C 
BRANCH  32  33
ATOM     33  C   UNL     1       0.687  -6.790   5.033  0.00  0.00    +0.122 A 
ATOM     34  C   UNL     1       0.409  -8.097   5.184  0.00  0.00    +0.046 A 
ATOM     35  C   UNL     1      -0.866  -8.314   4.613  0.00  0.00    +0.045 A 
ATOM     36  C   UNL     1      -1.292  -7.126   4.147  0.00  0.00    +0.102 A 
ATOM     37  O   UNL     1      -0.350  -6.205   4.409  0.00  0.00    -0.463 OA
ATOM     38  C   UNL     1      -2.605  -6.871   3.454  0.00  0.00    +0.086 C 
ENDBRANCH  32  33
ENDBRANCH  22  32
ENDBRANCH   1  22
TORSDOF 9
