REMARK  Name = ZINC09119451
REMARK  11 active torsions:
REMARK  status: ('A' for Active; 'I' for Inactive)
REMARK    1  A    between atoms: C_1  and  N_2
REMARK    2  A    between atoms: N_2  and  C_3
REMARK    3  A    between atoms: N_2  and  S_4
REMARK    4  A    between atoms: S_4  and  C_7
REMARK    5  A    between atoms: C_10  and  O_34
REMARK    6  A    between atoms: C_11  and  N_13
REMARK    7  A    between atoms: C_14  and  C_16
REMARK    8  A    between atoms: C_16  and  O_17
REMARK    9  A    between atoms: O_17  and  C_18
REMARK   10  A    between atoms: C_18  and  C_20
REMARK   11  A    between atoms: O_34  and  C_35
REMARK                            x       y       z     vdW  Elec       q    Type
REMARK                         _______ _______ _______ _____ _____    ______ ____
ROOT
ATOM      1  N   UNL     1       2.108   4.341   0.005  0.00  0.00    -0.280 N 
ATOM      2  C   UNL     1       1.050   3.506   0.018  0.00  0.00    +0.255 C 
ATOM      3  O   UNL     1      -0.076   3.955   0.028  0.00  0.00    -0.272 OA
ATOM      4  H   UNL     1       3.009   3.985   0.063  0.00  0.00    +0.155 HD
ENDROOT
BRANCH   1   9
ATOM      5  C   UNL     1       0.610   7.676   0.416  0.00  0.00    +0.107 A 
ATOM      6  C   UNL     1       1.511   8.460  -0.281  0.00  0.00    +0.032 A 
ATOM      7  C   UNL     1       2.611   7.882  -0.886  0.00  0.00    +0.049 A 
ATOM      8  C   UNL     1       2.818   6.516  -0.789  0.00  0.00    +0.141 A 
ATOM      9  C   UNL     1       1.908   5.725  -0.091  0.00  0.00    +0.078 A 
ATOM     10  C   UNL     1       0.805   6.312   0.513  0.00  0.00    +0.055 A 
BRANCH   5  11
ATOM     11  S   UNL     1      -0.791   8.420   1.185  0.00  0.00    +0.060 S 
ATOM     12  O   UNL     1      -1.040   9.633   0.488  0.00  0.00    -0.153 OA
ATOM     13  O   UNL     1      -1.772   7.400   1.313  0.00  0.00    -0.153 OA
BRANCH  11  15
ATOM     14  C   UNL     1       0.232  10.164   2.981  0.00  0.00    +0.131 C 
ATOM     15  N   UNL     1      -0.341   8.840   2.722  0.00  0.00    -0.183 NA
ATOM     16  C   UNL     1      -0.515   7.889   3.822  0.00  0.00    +0.131 C 
ENDBRANCH  11  15
ENDBRANCH   5  11
BRANCH   8  17
ATOM     17  O   UNL     1       3.903   5.947  -1.378  0.00  0.00    -0.493 OA
ATOM     18  C   UNL     1       4.794   6.819  -2.077  0.00  0.00    +0.277 C 
ENDBRANCH   8  17
ENDBRANCH   1   9
BRANCH   2  19
ATOM     19  C   UNL     1       1.268   2.015   0.021  0.00  0.00    +0.328 C 
BRANCH  19  20
ATOM     20  O   UNL     1      -0.017   1.339   0.036  0.00  0.00    -0.455 OA
BRANCH  20  21
ATOM     21  C   UNL     1       0.000  -0.003   0.040  0.00  0.00    +0.320 C 
ATOM     22  O   UNL     1       1.055  -0.594   0.031  0.00  0.00    -0.250 OA
BRANCH  21  23
ATOM     23  C   UNL     1      -1.294  -0.774   0.055  0.00  0.00    +0.165 C 
ATOM     24  C   UNL     1      -2.078  -0.405   1.285  0.00  0.00    +0.013 A 
ATOM     25  C   UNL     1      -2.772   0.793   1.314  0.00  0.00    +0.008 A 
ATOM     26  C   UNL     1      -3.498   1.149   2.434  0.00  0.00    +0.001 A 
ATOM     27  C   UNL     1      -3.533   0.310   3.532  0.00  0.00    +0.004 A 
ATOM     28  C   UNL     1      -2.843  -0.885   3.509  0.00  0.00    +0.046 A 
ATOM     29  C   UNL     1      -2.111  -1.247   2.384  0.00  0.00    +0.133 A 
ATOM     30  O   UNL     1      -1.441  -2.425   2.380  0.00  0.00    -0.455 OA
ATOM     31  C   UNL     1      -1.083  -2.998   1.206  0.00  0.00    +0.133 A 
ATOM     32  C   UNL     1      -0.995  -2.248   0.044  0.00  0.00    +0.013 A 
ATOM     33  C   UNL     1      -0.627  -2.858  -1.143  0.00  0.00    +0.008 A 
ATOM     34  C   UNL     1      -0.349  -4.211  -1.173  0.00  0.00    +0.001 A 
ATOM     35  C   UNL     1      -0.436  -4.961  -0.015  0.00  0.00    +0.004 A 
ATOM     36  C   UNL     1      -0.801  -4.359   1.172  0.00  0.00    +0.046 A 
ENDBRANCH  21  23
ENDBRANCH  20  21
ENDBRANCH  19  20
ENDBRANCH   2  19
TORSDOF 8
