REMARK  Name = ZINC67467814
REMARK  7 active torsions:
REMARK  status: ('A' for Active; 'I' for Inactive)
REMARK    1  A    between atoms: C_1  and  C_2
REMARK    2  A    between atoms: C_2  and  N_3
REMARK    3  A    between atoms: C_4  and  C_30
REMARK    4  A    between atoms: C_5  and  C_9
REMARK    5  A    between atoms: C_6  and  C_8
REMARK    6  A    between atoms: C_9  and  N_10
REMARK    7  A    between atoms: C_16  and  C_19
REMARK                            x       y       z     vdW  Elec       q    Type
REMARK                         _______ _______ _______ _____ _____    ______ ____
ROOT
ATOM      1  N   UNL     1       1.043  -0.372  -5.541  0.00  0.00    -0.295 N 
ATOM      2  C   UNL     1       0.911  -0.489  -6.877  0.00  0.00    +0.303 C 
ATOM      3  O   UNL     1       0.757  -1.587  -7.378  0.00  0.00    -0.253 OA
ATOM      4  N   UNL     1       0.951   0.609  -7.657  0.00  0.00    -0.282 N 
ATOM      5  C   UNL     1       0.697   0.528  -9.106  0.00  0.00    +0.114 C 
ATOM      6  C   UNL     1      -0.547   1.364  -9.415  0.00  0.00    +0.054 C 
ATOM      7  C   UNL     1      -0.474   2.689  -8.716  0.00  0.00    -0.039 C 
ATOM      8  C   UNL     1       0.307   2.944  -7.692  0.00  0.00    -0.004 C 
ATOM      9  C   UNL     1       1.242   1.935  -7.096  0.00  0.00    +0.137 C 
ATOM     10  H   UNL     1       1.240   0.493  -5.147  0.00  0.00    +0.151 HD
ENDROOT
BRANCH   7  11
ATOM     11  C   UNL     1      -1.337   3.778  -9.213  0.00  0.00    +0.003 A 
ATOM     12  C   UNL     1      -1.155   4.506 -10.344  0.00  0.00    +0.091 A 
ATOM     13  N   UNL     1      -2.159   5.422 -10.470  0.00  0.00    -0.360 N 
ATOM     14  H   UNL     1      -2.244   6.055 -11.199  0.00  0.00    +0.165 HD
ATOM     15  C   UNL     1      -3.035   5.316  -9.411  0.00  0.00    +0.050 A 
ATOM     16  C   UNL     1      -2.568   4.284  -8.580  0.00  0.00    +0.007 A 
ATOM     17  C   UNL     1      -3.268   3.948  -7.423  0.00  0.00    +0.013 A 
ATOM     18  C   UNL     1      -4.420   4.630  -7.099  0.00  0.00    +0.039 A 
ATOM     19  C   UNL     1      -4.885   5.649  -7.921  0.00  0.00    +0.125 A 
ATOM     20  C   UNL     1      -4.198   5.997  -9.066  0.00  0.00    +0.064 A 
ATOM     21  F   UNL     1      -6.017   6.310  -7.593  0.00  0.00    -0.205 F 
ENDBRANCH   7  11
BRANCH   1  22
ATOM     22  C   UNL     1       0.889  -1.549  -4.683  0.00  0.00    +0.144 C 
BRANCH  22  25
ATOM     23  N   UNL     1       0.693  -0.475  -1.203  0.00  0.00    -0.268 N 
ATOM     24  C   UNL     1       0.114  -0.735  -2.394  0.00  0.00    +0.041 A 
ATOM     25  C   UNL     1       1.083  -1.150  -3.242  0.00  0.00    +0.013 A 
ATOM     26  C   UNL     1       2.296  -1.144  -2.546  0.00  0.00    +0.065 A 
ATOM     27  N   UNL     1       2.065  -0.734  -1.325  0.00  0.00    -0.176 NA
ATOM     28  C   UNL     1       3.639  -1.535  -3.107  0.00  0.00    +0.068 C 
ATOM     29  C   UNL     1      -1.350  -0.589  -2.720  0.00  0.00    +0.065 C 
BRANCH  23  31
ATOM     30  C   UNL     1      -0.007   1.529   0.011  0.00  0.00    +0.029 C 
ATOM     31  C   UNL     1       0.010  -0.001   0.003  0.00  0.00    +0.140 C 
ENDBRANCH  23  31
ENDBRANCH  22  25
ENDBRANCH   1  22
TORSDOF 4
