REMARK  Name = ZINC36051253
REMARK  10 active torsions:
REMARK  status: ('A' for Active; 'I' for Inactive)
REMARK    1  A    between atoms: C_1  and  C_2
REMARK    2  A    between atoms: C_5  and  C_8
REMARK    3  A    between atoms: N_10  and  C_32
REMARK    4  A    between atoms: N_13  and  C_14
REMARK    5  A    between atoms: C_14  and  C_16
REMARK    6  A    between atoms: C_16  and  N_17
REMARK    7  A    between atoms: N_17  and  C_18
REMARK    8  A    between atoms: C_18  and  C_19
REMARK    9  A    between atoms: C_25  and  C_27
REMARK   10  A    between atoms: C_35  and  C_38
REMARK                            x       y       z     vdW  Elec       q    Type
REMARK                         _______ _______ _______ _____ _____    ______ ____
ROOT
ATOM      1  C   UNL     1      -0.753  -4.448   0.033  0.00  0.00    +0.066 A 
ATOM      2  C   UNL     1      -0.669  -5.261   1.101  0.00  0.00    +0.120 A 
ATOM      3  N   UNL     1      -0.434  -6.543   0.646  0.00  0.00    -0.287 N 
ATOM      4  C   UNL     1      -0.374  -6.506  -0.713  0.00  0.00    +0.205 A 
ATOM      5  N   UNL     1      -0.574  -5.222  -1.108  0.00  0.00    -0.326 N 
ATOM      6  N   UNL     1      -0.161  -7.548  -1.516  0.00  0.00    -0.145 NA
ATOM      7  H   UNL     1      -0.589  -4.902  -2.023  0.00  0.00    +0.169 HD
ENDROOT
BRANCH   1  12
ATOM      8  C   UNL     1      -1.706   1.226   0.161  0.00  0.00    +0.044 C 
ATOM      9  C   UNL     1      -1.456  -0.259   0.128  0.00  0.00    -0.050 A 
ATOM     10  C   UNL     1      -1.295  -0.903  -1.086  0.00  0.00    +0.004 A 
ATOM     11  C   UNL     1      -1.066  -2.264  -1.124  0.00  0.00    +0.010 A 
ATOM     12  C   UNL     1      -0.997  -2.990   0.066  0.00  0.00    -0.000 A 
ATOM     13  C   UNL     1      -1.160  -2.334   1.286  0.00  0.00    +0.010 A 
ATOM     14  C   UNL     1      -1.383  -0.973   1.311  0.00  0.00    +0.004 A 
ENDBRANCH   1  12
BRANCH   3  15
ATOM     15  C   UNL     1      -0.282  -7.683   1.444  0.00  0.00    +0.049 A 
ATOM     16  C   UNL     1      -0.042  -8.918   0.856  0.00  0.00    +0.026 A 
ATOM     17  C   UNL     1       0.107 -10.040   1.646  0.00  0.00    +0.005 A 
ATOM     18  C   UNL     1       0.018  -9.936   3.022  0.00  0.00    -0.050 A 
ATOM     19  C   UNL     1      -0.222  -8.708   3.611  0.00  0.00    +0.005 A 
ATOM     20  C   UNL     1      -0.367  -7.581   2.827  0.00  0.00    +0.026 A 
ATOM     21  C   UNL     1       0.180 -11.164   3.881  0.00  0.00    +0.044 C 
ENDBRANCH   3  15
BRANCH   6  22
ATOM     22  C   UNL     1      -0.126  -7.376  -2.832  0.00  0.00    +0.256 C 
ATOM     23  O   UNL     1      -0.287  -6.267  -3.305  0.00  0.00    -0.272 OA
BRANCH  22  24
ATOM     24  C   UNL     1       0.115  -8.555  -3.740  0.00  0.00    +0.206 C 
BRANCH  24  25
ATOM     25  N   UNL     1       0.108  -8.106  -5.135  0.00  0.00    -0.284 N 
ATOM     26  C   UNL     1      -1.057  -8.008  -5.805  0.00  0.00    +0.254 C 
ATOM     27  O   UNL     1      -1.055  -7.731  -6.990  0.00  0.00    -0.269 OA
BRANCH  26  28
ATOM     28  C   UNL     1      -2.326  -8.233  -5.107  0.00  0.00    +0.074 A 
ATOM     29  C   UNL     1      -3.610  -8.295  -5.626  0.00  0.00    +0.021 A 
ATOM     30  C   UNL     1      -4.612  -8.522  -4.713  0.00  0.00    +0.008 A 
ATOM     31  C   UNL     1      -4.292  -8.666  -3.404  0.00  0.00    +0.046 A 
ATOM     32  S   UNL     1      -2.619  -8.507  -3.370  0.00  0.00    -0.092 S 
ENDBRANCH  26  28
BRANCH  25  33
ATOM     33  C   UNL     1       1.368  -7.765  -5.800  0.00  0.00    +0.143 C 
BRANCH  33  34
ATOM     34  C   UNL     1       1.935  -8.994  -6.462  0.00  0.00    -0.030 A 
ATOM     35  C   UNL     1       2.791  -9.823  -5.762  0.00  0.00    +0.005 A 
ATOM     36  C   UNL     1       3.312 -10.950  -6.369  0.00  0.00    +0.000 A 
ATOM     37  C   UNL     1       2.976 -11.249  -7.676  0.00  0.00    +0.000 A 
ATOM     38  C   UNL     1       2.119 -10.421  -8.376  0.00  0.00    +0.000 A 
ATOM     39  C   UNL     1       1.595  -9.296  -7.768  0.00  0.00    +0.005 A 
ENDBRANCH  33  34
ENDBRANCH  25  33
ENDBRANCH  24  25
ENDBRANCH  22  24
ENDBRANCH   6  22
TORSDOF 8
