REMARK  Name = ZINC03268871
REMARK  9 active torsions:
REMARK  status: ('A' for Active; 'I' for Inactive)
REMARK    1  A    between atoms: C_1  and  C_2
REMARK    2  A    between atoms: C_5  and  O_36
REMARK    3  A    between atoms: C_6  and  N_8
REMARK    4  A    between atoms: C_9  and  C_11
REMARK    5  A    between atoms: C_11  and  C_13
REMARK    6  A    between atoms: C_11  and  O_19
REMARK    7  A    between atoms: O_19  and  C_20
REMARK    8  A    between atoms: C_20  and  C_22
REMARK    9  A    between atoms: O_36  and  C_37
REMARK                            x       y       z     vdW  Elec       q    Type
REMARK                         _______ _______ _______ _____ _____    ______ ____
ROOT
ATOM      1  C   UNL     1      -1.160   1.080   5.670  0.00  0.00    +0.292 C 
ENDROOT
BRANCH   1   2
ATOM      2  C   UNL     1      -2.188   1.068   6.773  0.00  0.00    +0.002 A 
ATOM      3  C   UNL     1      -3.124   0.053   6.833  0.00  0.00    +0.008 A 
ATOM      4  C   UNL     1      -4.064   0.040   7.847  0.00  0.00    +0.000 A 
ATOM      5  C   UNL     1      -4.072   1.046   8.795  0.00  0.00    +0.000 A 
ATOM      6  C   UNL     1      -3.138   2.063   8.732  0.00  0.00    +0.000 A 
ATOM      7  C   UNL     1      -2.196   2.074   7.721  0.00  0.00    +0.008 A 
ENDBRANCH   1   2
BRANCH   1   9
ATOM      8  N   UNL     1       0.680   0.315   7.135  0.00  0.00    -0.279 N 
ATOM      9  C   UNL     1      -0.044   0.128   6.013  0.00  0.00    +0.263 C 
ATOM     10  O   UNL     1       0.204  -0.806   5.280  0.00  0.00    -0.271 OA
ATOM     11  H   UNL     1       0.537   1.105   7.679  0.00  0.00    +0.155 HD
BRANCH   8  17
ATOM     12  C   UNL     1       2.349  -4.309   7.001  0.00  0.00    +0.044 C 
ATOM     13  C   UNL     1       2.474  -2.880   7.465  0.00  0.00    -0.048 A 
ATOM     14  C   UNL     1       3.538  -2.506   8.265  0.00  0.00    +0.007 A 
ATOM     15  C   UNL     1       3.658  -1.197   8.694  0.00  0.00    +0.048 A 
ATOM     16  C   UNL     1       2.712  -0.256   8.321  0.00  0.00    +0.141 A 
ATOM     17  C   UNL     1       1.640  -0.632   7.515  0.00  0.00    +0.076 A 
ATOM     18  C   UNL     1       1.523  -1.949   7.093  0.00  0.00    +0.030 A 
BRANCH  16  19
ATOM     19  O   UNL     1       2.829   1.032   8.742  0.00  0.00    -0.493 OA
ATOM     20  C   UNL     1       3.953   1.345   9.567  0.00  0.00    +0.277 C 
ENDBRANCH  16  19
ENDBRANCH   8  17
ENDBRANCH   1   9
BRANCH   1  21
ATOM     21  O   UNL     1      -1.782   0.668   4.425  0.00  0.00    -0.444 OA
BRANCH  21  22
ATOM     22  C   UNL     1      -2.318   1.638   3.658  0.00  0.00    +0.341 C 
ATOM     23  O   UNL     1      -2.267   2.796   4.020  0.00  0.00    -0.245 OA
BRANCH  22  24
ATOM     24  C   UNL     1      -2.968   1.292   2.376  0.00  0.00    +0.073 A 
ATOM     25  C   UNL     1      -4.350   0.990   2.321  0.00  0.00    +0.015 A 
ATOM     26  C   UNL     1      -5.152   1.006   3.469  0.00  0.00    +0.011 A 
ATOM     27  C   UNL     1      -6.478   0.710   3.369  0.00  0.00    +0.001 A 
ATOM     28  C   UNL     1      -7.047   0.390   2.138  0.00  0.00    +0.002 A 
ATOM     29  C   UNL     1      -6.296   0.365   1.003  0.00  0.00    +0.028 A 
ATOM     30  C   UNL     1      -4.923   0.666   1.067  0.00  0.00    +0.072 A 
ATOM     31  N   UNL     1      -4.161   0.649  -0.025  0.00  0.00    -0.251 NA
ATOM     32  C   UNL     1      -2.872   0.925   0.001  0.00  0.00    +0.046 A 
ATOM     33  C   UNL     1      -2.235   1.256   1.190  0.00  0.00    -0.012 A 
ATOM     34  C   UNL     1      -0.768   1.590   1.265  0.00  0.00    +0.038 C 
ATOM     35  C   UNL     1      -0.044   1.100   0.013  0.00  0.00    +0.005 C 
ATOM     36  C   UNL     1      -0.804   1.611  -1.217  0.00  0.00    +0.006 C 
ATOM     37  C   UNL     1      -2.130   0.861  -1.312  0.00  0.00    +0.056 C 
ENDBRANCH  22  24
ENDBRANCH  21  22
ENDBRANCH   1  21
TORSDOF 7
