REMARK  Name = ZINC40914027
REMARK  11 active torsions:
REMARK  status: ('A' for Active; 'I' for Inactive)
REMARK    1  A    between atoms: C_1  and  C_2
REMARK    2  A    between atoms: C_2  and  O_3
REMARK    3  A    between atoms: O_3  and  C_4
REMARK    4  A    between atoms: C_4  and  C_6
REMARK    5  A    between atoms: C_7  and  C_34
REMARK    6  A    between atoms: C_14  and  C_16
REMARK    7  A    between atoms: C_18  and  O_32
REMARK    8  A    between atoms: C_19  and  O_23
REMARK    9  A    between atoms: O_23  and  C_24
REMARK   10  A    between atoms: C_24  and  C_25
REMARK   11  A    between atoms: O_32  and  C_33
REMARK                            x       y       z     vdW  Elec       q    Type
REMARK                         _______ _______ _______ _____ _____    ______ ____
ROOT
ATOM      1  C   UNL     1      -4.181  -1.183   1.831  0.00  0.00    -0.014 A 
ATOM      2  C   UNL     1      -4.121   0.130   2.261  0.00  0.00    +0.055 A 
ATOM      3  C   UNL     1      -4.306   0.430   3.601  0.00  0.00    +0.163 A 
ATOM      4  C   UNL     1      -4.553  -0.592   4.512  0.00  0.00    +0.176 A 
ATOM      5  C   UNL     1      -4.613  -1.906   4.075  0.00  0.00    +0.063 A 
ATOM      6  C   UNL     1      -4.432  -2.198   2.735  0.00  0.00    +0.025 A 
ATOM      7 BR   UNL     1      -4.949  -3.299   5.310  0.00  0.00    -0.046 Br
ENDROOT
BRANCH   1  16
ATOM      8  C   UNL     1      -2.799  -2.429   0.223  0.00  0.00    +0.082 C 
ATOM      9  C   UNL     1      -2.920  -3.729  -0.087  0.00  0.00    +0.020 C 
ATOM     10  N   UNL     1      -4.139  -4.318  -0.310  0.00  0.00    -0.287 N 
ATOM     11  C   UNL     1      -5.235  -3.479  -0.463  0.00  0.00    +0.218 A 
ATOM     12  N   UNL     1      -6.440  -3.739  -0.891  0.00  0.00    -0.201 NA
ATOM     13  C   UNL     1      -7.170  -2.619  -0.877  0.00  0.00    +0.247 A 
ATOM     14  N   UNL     1      -6.434  -1.630  -0.435  0.00  0.00    -0.156 NA
ATOM     15  N   UNL     1      -5.175  -2.160  -0.155  0.00  0.00    -0.221 N 
ATOM     16  C   UNL     1      -3.979  -1.507   0.373  0.00  0.00    +0.179 C 
ATOM     17  C   UNL     1      -1.674  -4.570  -0.196  0.00  0.00    +0.061 C 
ATOM     18  H   UNL     1      -4.232  -5.282  -0.358  0.00  0.00    +0.155 HD
BRANCH   8  19
ATOM     19  C   UNL     1      -1.503  -1.902   0.423  0.00  0.00    +0.339 C 
ATOM     20  O   UNL     1      -0.999  -1.188  -0.423  0.00  0.00    -0.245 OA
BRANCH  19  21
ATOM     21  O   UNL     1      -0.825  -2.191   1.554  0.00  0.00    -0.462 OA
BRANCH  21  23
ATOM     22  C   UNL     1       1.088  -2.059   3.025  0.00  0.00    +0.048 C 
ATOM     23  C   UNL     1       0.480  -1.624   1.690  0.00  0.00    +0.229 C 
ENDBRANCH  21  23
ENDBRANCH  19  21
ENDBRANCH   8  19
ENDBRANCH   1  16
BRANCH   3  24
ATOM     24  O   UNL     1      -4.246   1.721   4.024  0.00  0.00    -0.491 OA
ATOM     25  C   UNL     1      -3.988   2.718   3.034  0.00  0.00    +0.277 C 
ENDBRANCH   3  24
BRANCH   4  26
ATOM     26  O   UNL     1      -4.735  -0.302   5.828  0.00  0.00    -0.483 OA
BRANCH  26  27
ATOM     27  C   UNL     1      -6.073  -0.040   6.256  0.00  0.00    +0.267 C 
BRANCH  27  28
ATOM     28  C   UNL     1      -6.079   0.259   7.733  0.00  0.00    +0.025 A 
ATOM     29  C   UNL     1      -4.894   0.253   8.444  0.00  0.00    +0.010 A 
ATOM     30  C   UNL     1      -4.899   0.527   9.799  0.00  0.00    +0.001 A 
ATOM     31  C   UNL     1      -6.089   0.808  10.444  0.00  0.00    +0.003 A 
ATOM     32  C   UNL     1      -7.275   0.815   9.735  0.00  0.00    +0.039 A 
ATOM     33  C   UNL     1      -7.271   0.546   8.377  0.00  0.00    +0.130 A 
ATOM     34  F   UNL     1      -8.429   0.557   7.681  0.00  0.00    -0.205 F 
ENDBRANCH  27  28
ENDBRANCH  26  27
ENDBRANCH   4  26
TORSDOF 8
