REMARK  Name = ZINC08876802
REMARK  6 active torsions:
REMARK  status: ('A' for Active; 'I' for Inactive)
REMARK    1  A    between atoms: C_1  and  O_2
REMARK    2  A    between atoms: O_2  and  C_3
REMARK    3  A    between atoms: C_8  and  N_9
REMARK    4  A    between atoms: C_10  and  C_12
REMARK    5  A    between atoms: C_15  and  C_28
REMARK    6  A    between atoms: C_28  and  C_29
REMARK                            x       y       z     vdW  Elec       q    Type
REMARK                         _______ _______ _______ _____ _____    ______ ____
ROOT
ATOM      1  C   UNL     1      -1.270   6.170   0.050  0.00  0.00    +0.076 C 
ATOM      2  C   UNL     1      -2.016   5.908   1.387  0.00  0.00    -0.003 C 
ATOM      3  C   UNL     1      -1.376   6.969   2.318  0.00  0.00    -0.061 C 
ATOM      4  C   UNL     1      -1.075   7.694   0.056  0.00  0.00    +0.049 C 
ATOM      5  C   UNL     1       0.244   8.067  -0.566  0.00  0.00    -0.027 A 
ATOM      6  C   UNL     1       1.552   7.774  -0.252  0.00  0.00    +0.019 A 
ATOM      7  C   UNL     1       2.580   8.275  -1.033  0.00  0.00    +0.018 A 
ATOM      8  C   UNL     1       2.288   9.069  -2.128  0.00  0.00    +0.017 A 
ATOM      9  C   UNL     1       0.978   9.365  -2.444  0.00  0.00    +0.024 A 
ATOM     10  C   UNL     1      -0.062   8.864  -1.664  0.00  0.00    +0.036 A 
ATOM     11  N   UNL     1      -1.445   9.021  -1.777  0.00  0.00    -0.286 N 
ATOM     12  C   UNL     1      -2.111   8.367  -0.807  0.00  0.00    +0.211 C 
ATOM     13  O   UNL     1      -3.314   8.326  -0.658  0.00  0.00    -0.277 OA
ATOM     14 BR   UNL     1       4.378   7.877  -0.604  0.00  0.00    -0.050 Br
ATOM     15  H   UNL     1      -1.875   9.540  -2.473  0.00  0.00    +0.155 HD
ATOM     16  N   UNL     1      -1.163   8.144   1.450  0.00  0.00    +0.394 N 
ATOM     17  H   UNL     1      -0.290   8.615   1.717  0.00  0.00    -0.083 HD
ATOM     18  H   UNL     1      -1.949   8.796   1.554  0.00  0.00    -0.083 HD
ENDROOT
BRANCH   1  20
ATOM     19  N   UNL     1       0.629   5.124  -1.141  0.00  0.00    -0.282 N 
ATOM     20  C   UNL     1       0.060   5.461   0.033  0.00  0.00    +0.220 C 
ATOM     21  O   UNL     1       0.618   5.194   1.077  0.00  0.00    -0.275 OA
ATOM     22  H   UNL     1       0.224   5.408  -1.975  0.00  0.00    +0.155 HD
BRANCH  19  28
ATOM     23  C   UNL     1       2.670   4.437  -2.247  0.00  0.00    +0.141 A 
ATOM     24  C   UNL     1       3.829   3.679  -2.260  0.00  0.00    +0.049 A 
ATOM     25  C   UNL     1       4.133   2.861  -1.187  0.00  0.00    +0.024 A 
ATOM     26  C   UNL     1       3.276   2.788  -0.104  0.00  0.00    +0.043 A 
ATOM     27  C   UNL     1       2.114   3.538  -0.086  0.00  0.00    +0.047 A 
ATOM     28  C   UNL     1       1.806   4.364  -1.156  0.00  0.00    +0.077 A 
ATOM     29 CL   UNL     1       3.661   1.754   1.237  0.00  0.00    -0.083 Cl
BRANCH  23  31
ATOM     30  C   UNL     1       3.304   5.269  -4.383  0.00  0.00    +0.277 C 
ATOM     31  O   UNL     1       2.372   5.245  -3.299  0.00  0.00    -0.493 OA
ENDBRANCH  23  31
ENDBRANCH  19  28
ENDBRANCH   1  20
BRANCH   3  32
ATOM     32  C   UNL     1      -2.326   7.311   3.467  0.00  0.00    +0.080 C 
BRANCH  32  33
ATOM     33  C   UNL     1      -1.638   8.249   4.425  0.00  0.00    +0.209 C 
ATOM     34  O   UNL     1      -0.500   8.609   4.210  0.00  0.00    -0.276 OA
ATOM     35  N   UNL     1      -2.288   8.689   5.521  0.00  0.00    -0.329 N 
ATOM     36  H   UNL     1      -3.198   8.402   5.693  0.00  0.00    +0.145 HD
ATOM     37  H   UNL     1      -1.845   9.293   6.137  0.00  0.00    +0.145 HD
ENDBRANCH  32  33
ENDBRANCH   3  32
TORSDOF 5
