REMARK  Name = ZINC08920594
REMARK  10 active torsions:
REMARK  status: ('A' for Active; 'I' for Inactive)
REMARK    1  A    between atoms: C_1  and  C_2
REMARK    2  A    between atoms: C_2  and  C_3
REMARK    3  A    between atoms: C_3  and  N_69
REMARK    4  A    between atoms: C_9  and  N_15
REMARK    5  A    between atoms: C_10  and  C_11
REMARK    6  A    between atoms: N_13  and  C_14
REMARK    7  A    between atoms: C_16  and  C_18
REMARK    8  A    between atoms: C_21  and  S_24
REMARK    9  A    between atoms: S_24  and  N_27
REMARK   10  A    between atoms: C_31  and  C_34
REMARK                            x       y       z     vdW  Elec       q    Type
REMARK                         _______ _______ _______ _____ _____    ______ ____
ROOT
ATOM      1  N   UNL     1       1.257  -2.000   6.364  0.00  0.00    -0.275 N 
ATOM      2  C   UNL     1       0.081  -1.812   5.732  0.00  0.00    +0.249 C 
ATOM      3  O   UNL     1      -0.964  -2.009   6.322  0.00  0.00    -0.270 OA
ATOM      4  H   UNL     1       2.090  -1.843   5.893  0.00  0.00    +0.156 HD
ENDROOT
BRANCH   1  10
ATOM      5  C   UNL     1       2.555  -3.391  12.275  0.00  0.00    -0.074 C 
ATOM      6  C   UNL     1       3.199  -3.406  10.885  0.00  0.00    +0.018 C 
ATOM      7  C   UNL     1       2.118  -3.094   9.858  0.00  0.00    -0.027 A 
ATOM      8  C   UNL     1       0.812  -3.213  10.189  0.00  0.00    -0.021 A 
ATOM      9  S   UNL     1      -0.069  -2.759   8.724  0.00  0.00    -0.079 S 
ATOM     10  C   UNL     1       1.275  -2.416   7.685  0.00  0.00    +0.085 A 
ATOM     11  C   UNL     1       2.375  -2.667   8.495  0.00  0.00    +0.068 A 
ATOM     12  C   UNL     1       0.268  -3.640  11.516  0.00  0.00    -0.035 C 
ATOM     13  N   UNL     1       1.371  -4.275  12.276  0.00  0.00    +0.383 N 
ATOM     14  H   UNL     1       1.618  -5.165  11.826  0.00  0.00    -0.081 HD
BRANCH  11  15
ATOM     15  C   UNL     1       3.743  -2.502   7.995  0.00  0.00    +0.246 C 
ATOM     16  O   UNL     1       4.306  -1.428   8.105  0.00  0.00    -0.270 OA
ATOM     17  N   UNL     1       4.377  -3.539   7.413  0.00  0.00    -0.314 N 
ATOM     18  C   UNL     1       5.744  -3.374   6.912  0.00  0.00    +0.128 C 
ATOM     19  H   UNL     1       3.928  -4.394   7.325  0.00  0.00    +0.149 HD
ENDBRANCH  11  15
BRANCH  13  20
ATOM     20  C   UNL     1       0.941  -4.543  13.665  0.00  0.00    -0.079 C 
BRANCH  20  22
ATOM     21  C   UNL     1       0.225  -3.532  15.835  0.00  0.00    +0.002 C 
ATOM     22  C   UNL     1       0.666  -3.230  14.402  0.00  0.00    -0.022 C 
ENDBRANCH  20  22
ENDBRANCH  13  20
ENDBRANCH   1  10
BRANCH   2  23
ATOM     23  C   UNL     1       0.062  -1.368   4.323  0.00  0.00    +0.037 A 
ATOM     24  C   UNL     1      -1.155  -1.173   3.666  0.00  0.00    +0.015 A 
ATOM     25  C   UNL     1      -1.166  -0.757   2.350  0.00  0.00    +0.029 A 
ATOM     26  C   UNL     1       0.025  -0.534   1.682  0.00  0.00    +0.106 A 
ATOM     27  C   UNL     1       1.234  -0.730   2.326  0.00  0.00    +0.029 A 
ATOM     28  C   UNL     1       1.259  -1.141   3.643  0.00  0.00    +0.015 A 
BRANCH  26  29
ATOM     29  S   UNL     1       0.002  -0.004   0.002  0.00  0.00    +0.061 S 
ATOM     30  O   UNL     1      -1.243  -0.424  -0.539  0.00  0.00    -0.153 OA
ATOM     31  O   UNL     1       1.248  -0.390  -0.563  0.00  0.00    -0.153 OA
BRANCH  29  32
ATOM     32  N   UNL     1      -0.020   1.652   0.011  0.00  0.00    -0.176 NA
ATOM     33  C   UNL     1      -1.295   2.383   0.021  0.00  0.00    +0.109 C 
ATOM     34  C   UNL     1      -1.283   3.369   1.199  0.00  0.00    +0.017 C 
ATOM     35  C   UNL     1      -0.046   4.264   1.096  0.00  0.00    +0.006 C 
ATOM     36  C   UNL     1       1.217   3.403   1.176  0.00  0.00    +0.002 C 
ATOM     37  C   UNL     1       1.234   2.417   0.003  0.00  0.00    +0.112 C 
ATOM     38  C   UNL     1       2.453   4.301   1.106  0.00  0.00    +0.009 C 
ENDBRANCH  29  32
ENDBRANCH  26  29
ENDBRANCH   2  23
TORSDOF 7
