REMARK  Name = ZINC44463413
REMARK  10 active torsions:
REMARK  status: ('A' for Active; 'I' for Inactive)
REMARK    1  A    between atoms: C_1  and  C_2
REMARK    2  A    between atoms: C_4  and  O_31
REMARK    3  A    between atoms: C_5  and  C_26
REMARK    4  A    between atoms: C_12  and  C_25
REMARK    5  A    between atoms: C_13  and  O_24
REMARK    6  A    between atoms: C_18  and  O_23
REMARK    7  A    between atoms: C_26  and  C_27
REMARK    8  A    between atoms: C_27  and  C_29
REMARK    9  A    between atoms: C_27  and  N_30
REMARK   10  A    between atoms: O_31  and  C_32
REMARK                            x       y       z     vdW  Elec       q    Type
REMARK                         _______ _______ _______ _____ _____    ______ ____
ROOT
ATOM      1  C   UNL     1      -0.018   1.503   0.010  0.00  0.00    +0.045 C 
ATOM      2  C   UNL     1       0.002  -0.004   0.002  0.00  0.00    -0.029 A 
ATOM      3  C   UNL     1       0.006  -0.693  -1.192  0.00  0.00    +0.050 A 
ATOM      4  C   UNL     1       0.023  -2.084  -1.201  0.00  0.00    +0.127 A 
ATOM      5  C   UNL     1       0.003  -2.796  -0.008  0.00  0.00    +0.036 A 
ATOM      6  C   UNL     1      -0.027  -2.114   1.193  0.00  0.00    +0.149 A 
ATOM      7  C   UNL     1       0.023  -0.714   1.202  0.00  0.00    +0.105 A 
ATOM      8  C   UNL     1       0.154  -0.028   2.498  0.00  0.00    +0.348 C 
ATOM      9  O   UNL     1      -0.696   0.756   2.871  0.00  0.00    -0.244 OA
ATOM     10  O   UNL     1       1.228  -0.284   3.260  0.00  0.00    -0.418 OA
ATOM     11  C   UNL     1       1.490  -1.534   3.730  0.00  0.00    +0.181 A 
ATOM     12  C   UNL     1       2.487  -1.601   4.707  0.00  0.00    +0.038 A 
ATOM     13  C   UNL     1       2.853  -2.805   5.275  0.00  0.00    +0.138 A 
ATOM     14  C   UNL     1       2.212  -3.981   4.864  0.00  0.00    +0.113 A 
ATOM     15  C   UNL     1       1.217  -3.907   3.886  0.00  0.00    +0.083 A 
ATOM     16  C   UNL     1       0.855  -2.695   3.318  0.00  0.00    +0.181 A 
ATOM     17  O   UNL     1      -0.128  -2.751   2.377  0.00  0.00    -0.451 OA
ATOM     18  C   UNL     1       0.734  -5.319   3.670  0.00  0.00    +0.345 C 
ATOM     19  O   UNL     1       1.493  -6.149   4.554  0.00  0.00    -0.427 OA
ATOM     20  C   UNL     1       2.354  -5.390   5.253  0.00  0.00    +0.346 C 
ATOM     21  O   UNL     1       3.136  -5.808   6.085  0.00  0.00    -0.245 OA
ATOM     22  C   UNL     1       3.176  -0.335   5.149  0.00  0.00    +0.051 C 
ENDROOT
BRANCH  18  23
ATOM     23  O   UNL     1      -0.658  -5.413   3.982  0.00  0.00    -0.354 OA
ATOM     24  H   UNL     1      -1.028  -6.299   3.862  0.00  0.00    +0.214 HD
ENDBRANCH  18  23
BRANCH  13  25
ATOM     25  O   UNL     1       3.824  -2.849   6.222  0.00  0.00    -0.506 OA
ATOM     26  H   UNL     1       3.497  -2.750   7.126  0.00  0.00    +0.292 HD
ENDBRANCH  13  25
BRANCH   4  27
ATOM     27  O   UNL     1       0.059  -2.750  -2.382  0.00  0.00    -0.495 OA
ATOM     28  C   UNL     1       0.077  -1.959  -3.572  0.00  0.00    +0.277 C 
ENDBRANCH   4  27
BRANCH   5  29
ATOM     29  C   UNL     1       0.014  -4.303  -0.024  0.00  0.00    +0.026 C 
BRANCH  29  30
ATOM     30  C   UNL     1       1.460  -4.803   0.001  0.00  0.00    -0.074 C 
ATOM     31  C   UNL     1       1.470  -6.329   0.110  0.00  0.00    -0.014 C 
BRANCH  30  32
ATOM     32  N   UNL     1       2.139  -4.396  -1.236  0.00  0.00    +0.380 N 
ATOM     33  H   UNL     1       3.093  -4.726  -1.220  0.00  0.00    -0.090 HD
ATOM     34  H   UNL     1       1.660  -4.793  -2.030  0.00  0.00    -0.090 HD
ATOM     35  H   UNL     1       2.133  -3.390  -1.308  0.00  0.00    -0.090 HD
ENDBRANCH  30  32
ENDBRANCH  29  30
ENDBRANCH   5  29
TORSDOF 6
