REMARK  Name = ZINC27352965
REMARK  9 active torsions:
REMARK  status: ('A' for Active; 'I' for Inactive)
REMARK    1  A    between atoms: C_4  and  N_7
REMARK    2  A    between atoms: N_7  and  C_8
REMARK    3  A    between atoms: C_8  and  C_9
REMARK    4  A    between atoms: C_9  and  C_10
REMARK    5  A    between atoms: C_13  and  C_15
REMARK    6  A    between atoms: C_15  and  N_16
REMARK    7  A    between atoms: N_19  and  C_22
REMARK    8  A    between atoms: C_25  and  C_31
REMARK    9  A    between atoms: C_27  and  N_28
REMARK                            x       y       z     vdW  Elec       q    Type
REMARK                         _______ _______ _______ _____ _____    ______ ____
ROOT
ATOM      1  N   UNL     1       3.583  -0.818  -0.379  0.00  0.00    +0.387 N 
ATOM      2  C   UNL     1       3.748  -1.765   0.733  0.00  0.00    -0.059 C 
ATOM      3  C   UNL     1       4.863  -2.758   0.393  0.00  0.00    +0.086 C 
ATOM      4  N   UNL     1       6.110  -2.022   0.142  0.00  0.00    -0.332 N 
ATOM      5  C   UNL     1       5.945  -1.075  -0.970  0.00  0.00    +0.086 C 
ATOM      6  C   UNL     1       4.831  -0.083  -0.630  0.00  0.00    -0.059 C 
ATOM      7  H   UNL     1       3.341  -1.395  -1.284  0.00  0.00    -0.081 HD
ENDROOT
BRANCH   4   8
ATOM      8  C   UNL     1       7.168  -2.901  -0.102  0.00  0.00    +0.060 A 
ATOM      9  C   UNL     1       7.143  -3.729  -1.216  0.00  0.00    +0.026 A 
ATOM     10  C   UNL     1       8.191  -4.596  -1.454  0.00  0.00    +0.014 A 
ATOM     11  C   UNL     1       9.265  -4.640  -0.584  0.00  0.00    +0.057 A 
ATOM     12  C   UNL     1       9.294  -3.817   0.526  0.00  0.00    +0.047 A 
ATOM     13  C   UNL     1       8.251  -2.943   0.767  0.00  0.00    +0.148 A 
BRANCH  11  14
ATOM     14  C   UNL     1      10.408  -5.588  -0.847  0.00  0.00    +0.417 C 
ATOM     15  F   UNL     1      10.154  -6.310  -2.018  0.00  0.00    -0.166 F 
ATOM     16  F   UNL     1      11.593  -4.859  -0.995  0.00  0.00    -0.166 F 
ATOM     17  F   UNL     1      10.536  -6.473   0.228  0.00  0.00    -0.166 F 
ENDBRANCH  11  14
BRANCH  13  18
ATOM     18  N   UNL     1       8.286  -2.058   1.952  0.00  0.00    +0.058 N 
ATOM     19  O   UNL     1       9.236  -2.095   2.714  0.00  0.00    -0.126 OA
ATOM     20  O   UNL     1       7.364  -1.291   2.167  0.00  0.00    -0.126 OA
ENDBRANCH  13  18
ENDBRANCH   4   8
BRANCH   1  21
ATOM     21  C   UNL     1       2.470   0.105  -0.123  0.00  0.00    +0.019 C 
BRANCH  21  23
ATOM     22  N   UNL     1       0.025  -0.041   0.224  0.00  0.00    -0.272 N 
ATOM     23  C   UNL     1       1.173  -0.661  -0.114  0.00  0.00    +0.203 C 
ATOM     24  O   UNL     1       1.161  -1.837  -0.412  0.00  0.00    -0.277 OA
BRANCH  22  28
ATOM     25  C   UNL     1       0.020   4.054   0.989  0.00  0.00    +0.000 A 
ATOM     26  C   UNL     1       0.235   3.593  -0.297  0.00  0.00    +0.002 A 
ATOM     27  C   UNL     1       0.237   2.236  -0.554  0.00  0.00    +0.023 A 
ATOM     28  C   UNL     1       0.023   1.335   0.481  0.00  0.00    +0.036 A 
ATOM     29  C   UNL     1      -0.199   1.801   1.770  0.00  0.00    +0.023 A 
ATOM     30  C   UNL     1      -0.194   3.159   2.021  0.00  0.00    +0.002 A 
ENDBRANCH  22  28
BRANCH  22  31
ATOM     31  C   UNL     1      -1.220  -0.806   0.322  0.00  0.00    +0.123 C 
BRANCH  31  32
ATOM     32  C   UNL     1      -1.923  -0.813  -1.037  0.00  0.00    +0.115 C 
BRANCH  32  33
ATOM     33  C   UNL     1      -3.204  -1.600  -0.936  0.00  0.00    +0.212 C 
ATOM     34  O   UNL     1      -3.523  -2.106   0.119  0.00  0.00    -0.276 OA
ATOM     35  N   UNL     1      -3.995  -1.742  -2.018  0.00  0.00    -0.329 N 
ATOM     36  H   UNL     1      -4.930  -2.317  -1.944  0.00  0.00    +0.145 HD
ATOM     37  H   UNL     1      -3.706  -1.283  -2.974  0.00  0.00    +0.145 HD
ENDBRANCH  32  33
ENDBRANCH  31  32
ENDBRANCH  22  31
ENDBRANCH  21  23
ENDBRANCH   1  21
TORSDOF 9
