REMARK  Name = ZINC03667880
REMARK  6 active torsions:
REMARK  status: ('A' for Active; 'I' for Inactive)
REMARK    1  A    between atoms: C_1  and  C_2
REMARK    2  A    between atoms: C_7  and  N_24
REMARK    3  A    between atoms: C_8  and  C_13
REMARK    4  A    between atoms: N_17  and  C_21
REMARK    5  A    between atoms: C_21  and  C_22
REMARK    6  A    between atoms: C_27  and  C_30
REMARK                            x       y       z     vdW  Elec       q    Type
REMARK                         _______ _______ _______ _____ _____    ______ ____
ROOT
ATOM      1  C   UNL     1      -0.374   2.891   6.574  0.00  0.00    +0.045 C 
ATOM      2  C   UNL     1      -1.474   1.881   6.374  0.00  0.00    -0.034 A 
ATOM      3  C   UNL     1      -2.191   1.398   7.477  0.00  0.00    +0.008 A 
ATOM      4  C   UNL     1      -3.185   0.485   7.286  0.00  0.00    +0.047 A 
ATOM      5  C   UNL     1      -3.477   0.040   5.984  0.00  0.00    +0.142 A 
ATOM      6  N   UNL     1      -4.451  -0.854   5.808  0.00  0.00    -0.214 NA
ATOM      7  C   UNL     1      -4.771  -1.304   4.603  0.00  0.00    +0.136 A 
ATOM      8  C   UNL     1      -4.061  -0.837   3.472  0.00  0.00    +0.081 A 
ATOM      9  C   UNL     1      -3.030   0.112   3.672  0.00  0.00    +0.267 A 
ATOM     10  O   UNL     1      -2.395   0.545   2.726  0.00  0.00    -0.267 OA
ATOM     11  N   UNL     1      -2.761   0.530   4.928  0.00  0.00    -0.267 N 
ATOM     12  C   UNL     1      -1.770   1.444   5.129  0.00  0.00    +0.099 A 
ENDROOT
BRANCH   8  13
ATOM     13  C   UNL     1      -4.377  -1.302   2.175  0.00  0.00    +0.037 C 
ATOM     14  C   UNL     1      -4.902  -0.444   1.252  0.00  0.00    +0.077 C 
ATOM     15  C   UNL     1      -5.270   0.924   1.393  0.00  0.00    +0.259 C 
ATOM     16  O   UNL     1      -5.135   1.503   2.457  0.00  0.00    -0.269 OA
ATOM     17  N   UNL     1      -5.764   1.548   0.338  0.00  0.00    -0.244 N 
ATOM     18  C   UNL     1      -5.920   0.905  -0.841  0.00  0.00    +0.121 C 
ATOM     19  S   UNL     1      -6.538   1.507  -2.319  0.00  0.00    -0.027 S 
ATOM     20  S   UNL     1      -5.314  -0.733  -0.464  0.00  0.00    -0.061 S 
BRANCH  17  21
ATOM     21  C   UNL     1      -6.153   2.957   0.448  0.00  0.00    +0.240 C 
BRANCH  21  22
ATOM     22  C   UNL     1      -4.976   3.832   0.105  0.00  0.00    +0.373 C 
ATOM     23  O   UNL     1      -3.919   3.331  -0.200  0.00  0.00    -0.245 OA
ATOM     24  O   UNL     1      -5.102   5.168   0.134  0.00  0.00    -0.245 OA
ENDBRANCH  21  22
ENDBRANCH  17  21
ENDBRANCH   8  13
BRANCH   7  25
ATOM     25  N   UNL     1      -5.786  -2.223   4.454  0.00  0.00    -0.314 N 
ATOM     26  C   UNL     1      -6.908  -1.651   3.698  0.00  0.00    +0.107 C 
ATOM     27  C   UNL     1      -7.949  -2.739   3.426  0.00  0.00    +0.031 C 
ATOM     28  C   UNL     1      -8.445  -3.309   4.759  0.00  0.00    +0.078 C 
ATOM     29  C   UNL     1      -7.251  -3.854   5.547  0.00  0.00    +0.031 C 
ATOM     30  C   UNL     1      -6.229  -2.734   5.757  0.00  0.00    +0.107 C 
BRANCH  28  31
ATOM     31  C   UNL     1      -9.427  -4.421   4.498  0.00  0.00    +0.214 C 
ATOM     32  O   UNL     1      -9.196  -5.541   4.902  0.00  0.00    -0.276 OA
ATOM     33  N   UNL     1     -10.562  -4.172   3.815  0.00  0.00    -0.329 N 
ATOM     34  H   UNL     1     -10.747  -3.276   3.492  0.00  0.00    +0.145 HD
ATOM     35  H   UNL     1     -11.194  -4.888   3.647  0.00  0.00    +0.145 HD
ENDBRANCH  28  31
ENDBRANCH   7  25
TORSDOF 5
