REMARK  Name = ZINC09271883
REMARK  15 active torsions:
REMARK  status: ('A' for Active; 'I' for Inactive)
REMARK    1  A    between atoms: C_1  and  C_2
REMARK    2  A    between atoms: C_2  and  O_3
REMARK    3  A    between atoms: O_3  and  C_4
REMARK    4  A    between atoms: C_6  and  C_11
REMARK    5  A    between atoms: C_9  and  O_10
REMARK    6  A    between atoms: C_13  and  C_14
REMARK    7  A    between atoms: C_14  and  C_15
REMARK    8  A    between atoms: C_18  and  O_22
REMARK    9  A    between atoms: C_19  and  C_21
REMARK   10  A    between atoms: O_22  and  C_23
REMARK   11  A    between atoms: N_29  and  C_30
REMARK   12  A    between atoms: C_30  and  C_31
REMARK   13  A    between atoms: C_31  and  C_32
REMARK   14  A    between atoms: C_32  and  O_33
REMARK   15  A    between atoms: O_33  and  C_34
REMARK                            x       y       z     vdW  Elec       q    Type
REMARK                         _______ _______ _______ _____ _____    ______ ____
ROOT
ATOM      1  C   UNL     1       0.621  -4.226  -0.294  0.00  0.00    +0.145 C 
ATOM      2  C   UNL     1       1.425  -4.787  -1.444  0.00  0.00    +0.076 C 
ATOM      3  C   UNL     1       1.349  -6.135  -1.353  0.00  0.00    +0.249 C 
ATOM      4  O   UNL     1       1.937  -7.012  -2.199  0.00  0.00    -0.282 OA
ATOM      5  C   UNL     1       0.524  -6.497  -0.182  0.00  0.00    +0.288 C 
ATOM      6  O   UNL     1       0.269  -7.633   0.167  0.00  0.00    -0.266 OA
ATOM      7  N   UNL     1       0.096  -5.384   0.440  0.00  0.00    -0.283 N 
ENDROOT
BRANCH   1  10
ATOM      8  C   UNL     1       2.270  -1.262   1.369  0.00  0.00    +0.162 A 
ATOM      9  C   UNL     1       1.456  -2.022   0.544  0.00  0.00    +0.055 A 
ATOM     10  C   UNL     1       1.507  -3.402   0.604  0.00  0.00    -0.019 A 
ATOM     11  C   UNL     1       2.369  -4.027   1.486  0.00  0.00    +0.009 A 
ATOM     12  C   UNL     1       3.183  -3.275   2.312  0.00  0.00    +0.049 A 
ATOM     13  C   UNL     1       3.141  -1.892   2.253  0.00  0.00    +0.158 A 
BRANCH  13  14
ATOM     14  O   UNL     1       3.946  -1.151   3.061  0.00  0.00    -0.503 OA
ATOM     15  H   UNL     1       3.551  -0.932   3.916  0.00  0.00    +0.292 HD
ENDBRANCH  13  14
BRANCH   8  16
ATOM     16  O   UNL     1       2.221   0.096   1.311  0.00  0.00    -0.489 OA
BRANCH  16  18
ATOM     17  C   UNL     1       1.363   2.198   0.484  0.00  0.00    +0.048 C 
ATOM     18  C   UNL     1       1.232   0.674   0.458  0.00  0.00    +0.226 C 
ENDBRANCH  16  18
ENDBRANCH   8  16
ENDBRANCH   1  10
BRANCH   2  19
ATOM     19  C   UNL     1       2.147  -4.018  -2.463  0.00  0.00    +0.195 C 
ATOM     20  O   UNL     1       3.359  -4.096  -2.538  0.00  0.00    -0.287 OA
BRANCH  19  21
ATOM     21  C   UNL     1       1.403  -3.149  -3.397  0.00  0.00    +0.023 A 
ATOM     22  C   UNL     1       0.005  -3.146  -3.389  0.00  0.00    +0.015 A 
ATOM     23  C   UNL     1      -0.685  -2.334  -4.261  0.00  0.00    +0.046 A 
ATOM     24  C   UNL     1       0.007  -1.518  -5.149  0.00  0.00    +0.123 A 
ATOM     25  C   UNL     1       1.398  -1.519  -5.161  0.00  0.00    -0.008 A 
ATOM     26  C   UNL     1       2.095  -2.324  -4.288  0.00  0.00    +0.018 A 
ATOM     27  C   UNL     1       2.143  -0.634  -6.126  0.00  0.00    +0.047 C 
BRANCH  24  28
ATOM     28  O   UNL     1      -0.676  -0.720  -6.007  0.00  0.00    -0.495 OA
ATOM     29  C   UNL     1      -2.098  -0.684  -5.868  0.00  0.00    +0.277 C 
ENDBRANCH  24  28
ENDBRANCH  19  21
ENDBRANCH   2  19
BRANCH   7  30
ATOM     30  C   UNL     1      -0.745  -5.335   1.639  0.00  0.00    +0.111 C 
BRANCH  30  31
ATOM     31  C   UNL     1      -2.219  -5.308   1.227  0.00  0.00    +0.047 C 
BRANCH  31  32
ATOM     32  C   UNL     1      -3.097  -5.257   2.479  0.00  0.00    +0.161 C 
BRANCH  32  33
ATOM     33  O   UNL     1      -4.473  -5.232   2.094  0.00  0.00    -0.383 OA
ATOM     34  C   UNL     1      -5.383  -5.184   3.195  0.00  0.00    +0.193 C 
ENDBRANCH  32  33
ENDBRANCH  31  32
ENDBRANCH  30  31
ENDBRANCH   7  30
TORSDOF 11
