REMARK  Name = ZINC32095716
REMARK  10 active torsions:
REMARK  status: ('A' for Active; 'I' for Inactive)
REMARK    1  A    between atoms: C_1  and  C_2
REMARK    2  A    between atoms: C_15  and  O_32
REMARK    3  A    between atoms: C_17  and  C_19
REMARK    4  A    between atoms: C_22  and  O_27
REMARK    5  A    between atoms: C_23  and  O_25
REMARK    6  A    between atoms: O_25  and  C_26
REMARK    7  A    between atoms: O_27  and  C_28
REMARK    8  A    between atoms: C_28  and  C_29
REMARK    9  A    between atoms: C_29  and  C_30
REMARK   10  A    between atoms: C_29  and  C_31
REMARK                            x       y       z     vdW  Elec       q    Type
REMARK                         _______ _______ _______ _____ _____    ______ ____
ROOT
ATOM      1  C   UNL     1      -0.018   1.503   0.010  0.00  0.00    +0.068 C 
ATOM      2  C   UNL     1       0.002  -0.004   0.002  0.00  0.00    +0.066 A 
ATOM      3  C   UNL     1       0.008  -0.806  -1.124  0.00  0.00    +0.027 A 
ATOM      4  C   UNL     1       0.032  -2.129  -0.706  0.00  0.00    +0.165 A 
ATOM      5  N   UNL     1       0.034  -2.119   0.648  0.00  0.00    -0.194 N 
ATOM      6  N   UNL     1       0.023  -0.778   1.064  0.00  0.00    -0.168 NA
ATOM      7  C   UNL     1       0.049  -3.241   1.481  0.00  0.00    +0.178 A 
ATOM      8  C   UNL     1       0.553  -3.144   2.777  0.00  0.00    +0.053 A 
ATOM      9  C   UNL     1       0.546  -4.285   3.564  0.00  0.00    +0.045 A 
ATOM     10  C   UNL     1       0.035  -5.453   3.014  0.00  0.00    +0.152 A 
ATOM     11  N   UNL     1      -0.423  -5.454   1.776  0.00  0.00    -0.136 NA
ATOM     12  N   UNL     1      -0.422  -4.399   1.045  0.00  0.00    -0.128 NA
ATOM     13 CL   UNL     1       0.001  -6.913   3.953  0.00  0.00    -0.060 Cl
ATOM     14  N   UNL     1       0.057  -3.160  -1.598  0.00  0.00    -0.197 NA
ATOM     15  C   UNL     1       0.344  -2.913  -2.841  0.00  0.00    +0.190 C 
ATOM     16  C   UNL     1       0.716  -1.552  -3.354  0.00  0.00    +0.108 C 
ATOM     17  C   UNL     1      -0.011  -0.441  -2.587  0.00  0.00    +0.063 C 
ENDROOT
BRANCH  17  18
ATOM     18  C   UNL     1      -1.436  -0.337  -3.069  0.00  0.00    -0.036 A 
ATOM     19  C   UNL     1      -2.274  -1.433  -2.986  0.00  0.00    +0.008 A 
ATOM     20  C   UNL     1      -3.581  -1.342  -3.426  0.00  0.00    +0.050 A 
ATOM     21  C   UNL     1      -4.054  -0.150  -3.952  0.00  0.00    +0.162 A 
ATOM     22  C   UNL     1      -3.210   0.954  -4.035  0.00  0.00    +0.162 A 
ATOM     23  C   UNL     1      -1.903   0.857  -3.587  0.00  0.00    +0.053 A 
BRANCH  22  24
ATOM     24  O   UNL     1      -3.670   2.126  -4.549  0.00  0.00    -0.491 OA
ATOM     25  C   UNL     1      -2.748   3.216  -4.603  0.00  0.00    +0.277 C 
ENDBRANCH  22  24
BRANCH  21  26
ATOM     26  O   UNL     1      -5.340  -0.059  -4.386  0.00  0.00    -0.488 OA
BRANCH  26  27
ATOM     27  C   UNL     1      -6.148  -1.232  -4.270  0.00  0.00    +0.232 C 
BRANCH  27  28
ATOM     28  C   UNL     1      -7.551  -0.939  -4.805  0.00  0.00    +0.020 C 
ATOM     29  C   UNL     1      -7.474  -0.646  -6.305  0.00  0.00    +0.010 C 
ATOM     30  C   UNL     1      -8.451  -2.153  -4.568  0.00  0.00    +0.010 C 
ENDBRANCH  27  28
ENDBRANCH  26  27
ENDBRANCH  21  26
ENDBRANCH  17  18
BRANCH  15  31
ATOM     31  O   UNL     1       0.306  -3.936  -3.720  0.00  0.00    -0.495 OA
ATOM     32  H   UNL     1       0.060  -4.784  -3.325  0.00  0.00    +0.293 HD
ENDBRANCH  15  31
TORSDOF 6
