REMARK  Name = ZINC07688930
REMARK  6 active torsions:
REMARK  status: ('A' for Active; 'I' for Inactive)
REMARK    1  A    between atoms: C_4  and  C_7
REMARK    2  A    between atoms: C_7  and  C_8
REMARK    3  A    between atoms: C_8  and  C_10
REMARK    4  A    between atoms: C_8  and  N_16
REMARK    5  A    between atoms: N_16  and  S_17
REMARK    6  A    between atoms: S_17  and  C_20
REMARK                            x       y       z     vdW  Elec       q    Type
REMARK                         _______ _______ _______ _____ _____    ______ ____
ROOT
ATOM      1  N   UNL     1       3.229  -1.870   2.059  0.00  0.00    -0.182 NA
ATOM      2  H   UNL     1       2.799  -2.576   1.552  0.00  0.00    +0.149 HD
ENDROOT
BRANCH   1   3
ATOM      3  S   UNL     1       2.897  -1.689   3.672  0.00  0.00    +0.059 S 
ATOM      4  O   UNL     1       1.942  -2.686   4.004  0.00  0.00    -0.153 OA
ATOM      5  O   UNL     1       4.149  -1.582   4.334  0.00  0.00    -0.153 OA
BRANCH   3   6
ATOM      6  C   UNL     1       2.091  -0.134   3.866  0.00  0.00    +0.107 A 
ATOM      7  C   UNL     1       2.840   1.007   4.096  0.00  0.00    +0.030 A 
ATOM      8  C   UNL     1       2.217   2.230   4.249  0.00  0.00    +0.030 A 
ATOM      9  C   UNL     1       0.835   2.315   4.173  0.00  0.00    +0.067 A 
ATOM     10  C   UNL     1       0.079   1.164   3.942  0.00  0.00    +0.069 A 
ATOM     11  C   UNL     1       0.714  -0.058   3.783  0.00  0.00    +0.056 A 
ATOM     12  N   UNL     1      -1.256   1.558   3.917  0.00  0.00    -0.306 N 
ATOM     13  H   UNL     1      -2.018   0.974   3.775  0.00  0.00    +0.170 HD
ATOM     14  C   UNL     1      -1.311   2.887   4.124  0.00  0.00    +0.325 A 
ATOM     15  O   UNL     1      -2.331   3.549   4.162  0.00  0.00    -0.247 OA
ATOM     16  N   UNL     1      -0.065   3.373   4.282  0.00  0.00    -0.306 N 
ATOM     17  H   UNL     1       0.166   4.301   4.444  0.00  0.00    +0.170 HD
ENDBRANCH   3   6
ENDBRANCH   1   3
BRANCH   1  18
ATOM     18  C   UNL     1       4.171  -0.963   1.399  0.00  0.00    +0.111 C 
BRANCH  18  19
ATOM     19  C   UNL     1       5.543  -1.588   1.383  0.00  0.00    -0.029 A 
ATOM     20  C   UNL     1       5.683  -2.940   1.128  0.00  0.00    +0.005 A 
ATOM     21  C   UNL     1       6.941  -3.513   1.114  0.00  0.00    +0.000 A 
ATOM     22  C   UNL     1       8.058  -2.735   1.354  0.00  0.00    +0.000 A 
ATOM     23  C   UNL     1       7.917  -1.384   1.608  0.00  0.00    +0.000 A 
ATOM     24  C   UNL     1       6.660  -0.809   1.618  0.00  0.00    +0.005 A 
ENDBRANCH  18  19
BRANCH  18  25
ATOM     25  C   UNL     1       3.711  -0.707  -0.038  0.00  0.00    +0.060 C 
BRANCH  25  29
ATOM     26  C   UNL     1      -0.017   1.378   0.010  0.00  0.00    +0.000 A 
ATOM     27  C   UNL     1       1.171   2.086   0.002  0.00  0.00    +0.000 A 
ATOM     28  C   UNL     1       2.377   1.411  -0.013  0.00  0.00    +0.004 A 
ATOM     29  C   UNL     1       2.396   0.029  -0.020  0.00  0.00    -0.046 A 
ATOM     30  C   UNL     1       1.208  -0.679  -0.012  0.00  0.00    +0.004 A 
ATOM     31  C   UNL     1       0.002  -0.004   0.002  0.00  0.00    +0.000 A 
ENDBRANCH  25  29
ENDBRANCH  18  25
ENDBRANCH   1  18
TORSDOF 6
