REMARK  Name = ZINC39491314
REMARK  13 active torsions:
REMARK  status: ('A' for Active; 'I' for Inactive)
REMARK    1  A    between atoms: C_1  and  C_2
REMARK    2  A    between atoms: C_2  and  C_4
REMARK    3  A    between atoms: C_2  and  S_27
REMARK    4  A    between atoms: C_4  and  N_5
REMARK    5  A    between atoms: C_7  and  C_18
REMARK    6  A    between atoms: C_12  and  C_14
REMARK    7  A    between atoms: C_14  and  O_16
REMARK    8  A    between atoms: O_16  and  C_17
REMARK    9  A    between atoms: C_18  and  N_19
REMARK   10  A    between atoms: N_19  and  C_20
REMARK   11  A    between atoms: C_20  and  C_21
REMARK   12  A    between atoms: S_27  and  O_30
REMARK   13  A    between atoms: O_30  and  C_31
REMARK                            x       y       z     vdW  Elec       q    Type
REMARK                         _______ _______ _______ _____ _____    ______ ____
ROOT
ATOM      1  N   UNL     1       0.866  -1.969   1.174  0.00  0.00    -0.344 N 
ATOM      2  C   UNL     1       0.004  -2.858   1.755  0.00  0.00    +0.088 A 
ATOM      3  C   UNL     1       0.402  -4.115   1.504  0.00  0.00    -0.039 A 
ATOM      4  C   UNL     1       1.621  -4.021   0.694  0.00  0.00    +0.002 A 
ATOM      5  C   UNL     1       1.863  -2.645   0.513  0.00  0.00    +0.049 A 
ATOM      6  C   UNL     1       2.966  -2.232  -0.232  0.00  0.00    +0.027 A 
ATOM      7  C   UNL     1       3.805  -3.152  -0.785  0.00  0.00    +0.017 A 
ATOM      8  C   UNL     1       3.574  -4.525  -0.615  0.00  0.00    +0.060 A 
ATOM      9  C   UNL     1       2.482  -4.960   0.133  0.00  0.00    +0.025 A 
ENDROOT
BRANCH   8  10
ATOM     10  C   UNL     1       4.492  -5.508  -1.220  0.00  0.00    +0.339 C 
ATOM     11  O   UNL     1       4.291  -6.697  -1.073  0.00  0.00    -0.245 OA
BRANCH  10  12
ATOM     12  O   UNL     1       5.552  -5.087  -1.937  0.00  0.00    -0.464 OA
ATOM     13  C   UNL     1       6.399  -6.094  -2.495  0.00  0.00    +0.280 C 
ENDBRANCH  10  12
ENDBRANCH   8  10
BRANCH   1  14
ATOM     14  C   UNL     1       0.742  -0.511   1.242  0.00  0.00    +0.151 C 
BRANCH  14  16
ATOM     15  C   UNL     1      -0.019   1.526   0.010  0.00  0.00    +0.037 C 
ATOM     16  C   UNL     1       0.002  -0.004   0.002  0.00  0.00    +0.188 C 
BRANCH  16  17
ATOM     17  S   UNL     1      -1.700  -0.632   0.015  0.00  0.00    +0.125 S 
ATOM     18  O   UNL     1      -1.703  -2.041  -0.172  0.00  0.00    -0.136 OA
ATOM     19  O   UNL     1      -2.431  -0.041   1.080  0.00  0.00    -0.136 OA
BRANCH  17  20
ATOM     20  O   UNL     1      -2.333  -0.070  -1.250  0.00  0.00    -0.346 OA
BRANCH  20  21
ATOM     21  C   UNL     1      -1.933  -0.691  -2.391  0.00  0.00    +0.156 A 
ATOM     22  C   UNL     1      -0.820  -0.231  -3.078  0.00  0.00    +0.048 A 
ATOM     23  C   UNL     1      -0.415  -0.864  -4.238  0.00  0.00    +0.004 A 
ATOM     24  C   UNL     1      -1.119  -1.955  -4.713  0.00  0.00    +0.000 A 
ATOM     25  C   UNL     1      -2.230  -2.415  -4.030  0.00  0.00    +0.004 A 
ATOM     26  C   UNL     1      -2.635  -1.789  -2.867  0.00  0.00    +0.048 A 
ENDBRANCH  20  21
ENDBRANCH  17  20
ENDBRANCH  16  17
ENDBRANCH  14  16
ENDBRANCH   1  14
BRANCH   3  27
ATOM     27  C   UNL     1      -0.273  -5.380   1.965  0.00  0.00    -0.044 C 
BRANCH  27  28
ATOM     28  N   UNL     1       0.430  -5.910   3.141  0.00  0.00    +0.384 N 
ATOM     29  H   UNL     1       1.389  -6.110   2.898  0.00  0.00    -0.085 HD
ATOM     30  H   UNL     1       0.407  -5.226   3.883  0.00  0.00    -0.085 HD
BRANCH  28  31
ATOM     31  C   UNL     1      -0.229  -7.143   3.591  0.00  0.00    -0.046 C 
BRANCH  31  32
ATOM     32  C   UNL     1       0.493  -7.686   4.798  0.00  0.00    -0.064 A 
ATOM     33  C   UNL     1       1.541  -8.573   4.635  0.00  0.00    +0.002 A 
ATOM     34  C   UNL     1       2.203  -9.072   5.741  0.00  0.00    +0.000 A 
ATOM     35  C   UNL     1       1.817  -8.683   7.011  0.00  0.00    +0.000 A 
ATOM     36  C   UNL     1       0.770  -7.795   7.173  0.00  0.00    +0.000 A 
ATOM     37  C   UNL     1       0.111  -7.293   6.067  0.00  0.00    +0.002 A 
ENDBRANCH  31  32
ENDBRANCH  28  31
ENDBRANCH  27  28
ENDBRANCH   3  27
TORSDOF 11
