REMARK  Name = ZINC12479053
REMARK  14 active torsions:
REMARK  status: ('A' for Active; 'I' for Inactive)
REMARK    1  A    between atoms: CG1_1  and  CB_2
REMARK    2  A    between atoms: CB_2  and  CG2_3
REMARK    3  A    between atoms: CB_2  and  CA_4
REMARK    4  A    between atoms: CA_4  and  C_6
REMARK    5  A    between atoms: CA_4  and  N_8
REMARK    6  A    between atoms: C_9  and  C_11
REMARK    7  A    between atoms: C_11  and  N_12
REMARK    8  A    between atoms: C_13  and  C_15
REMARK    9  A    between atoms: C_15  and  O_16
REMARK   10  A    between atoms: O_16  and  N_17
REMARK   11  A    between atoms: C_21  and  C_42
REMARK   12  A    between atoms: C_26  and  C_41
REMARK   13  A    between atoms: C_37  and  C_38
REMARK   14  A    between atoms: C_37  and  O_40
REMARK                            x       y       z     vdW  Elec       q    Type
REMARK                         _______ _______ _______ _____ _____    ______ ____
ROOT
ATOM      1  N   UNK A   0       9.038   4.969   5.431  0.00  0.00    -0.089 NA
ATOM      2  C   UNK A   0      10.274   5.339   5.556  0.00  0.00    +0.080 C 
ATOM      3  C   UNK A   0      11.114   5.719   4.354  0.00  0.00    +0.059 C 
ATOM      4  C   UNK A   0      12.457   5.001   4.490  0.00  0.00    +0.017 C 
ATOM      5  C   UNK A   0      13.165   5.378   5.783  0.00  0.00    -0.007 C 
ATOM      6  C   UNK A   0      14.409   4.561   5.995  0.00  0.00    +0.002 C 
ATOM      7  C   UNK A   0      14.388   3.200   5.307  0.00  0.00    +0.005 C 
ATOM      8  C   UNK A   0      15.839   2.764   5.017  0.00  0.00    +0.011 C 
ATOM      9  C   UNK A   0      16.678   3.003   6.248  0.00  0.00    +0.011 C 
ATOM     10  C   UNK A   0      15.781   3.170   7.492  0.00  0.00    +0.002 C 
ATOM     11  C   UNK A   0      14.954   4.449   7.402  0.00  0.00    -0.003 C 
ATOM     12  C   UNK A   0      13.872   4.366   8.473  0.00  0.00    +0.008 C 
ATOM     13  C   UNK A   0      12.869   5.505   8.348  0.00  0.00    +0.031 C 
ATOM     14  C   UNK A   0      12.254   5.429   6.962  0.00  0.00    -0.062 C 
ATOM     15  C   UNK A   0      10.930   5.410   6.875  0.00  0.00    +0.026 C 
ATOM     16  C   UNK A   0      16.808   3.175   8.637  0.00  0.00    +0.008 C 
ATOM     17  C   UNK A   0      17.915   2.196   8.168  0.00  0.00    +0.049 C 
ATOM     18  C   UNK A   0      17.604   1.859   6.686  0.00  0.00    +0.132 C 
ATOM     19  C   UNK A   0      17.554   4.249   6.041  0.00  0.00    +0.015 C 
ATOM     20  C   UNK A   0      13.659   6.818   5.576  0.00  0.00    +0.016 C 
ENDROOT
BRANCH  18  21
ATOM     21  C   UNK A   0      16.946   0.550   6.607  0.00  0.00    -0.070 C 
ATOM     22  C   UNK A   0      16.420  -0.497   6.544  0.00  0.00    +0.007 C 
ENDBRANCH  18  21
BRANCH  18  23
ATOM     23  O   UNK A   0      18.804   1.872   5.915  0.00  0.00    -0.376 OA
ATOM     24  H   UNK A   0      19.428   1.171   6.147  0.00  0.00    +0.211 HD
ENDBRANCH  18  23
BRANCH   1  25
ATOM     25  O   UNK A   0       8.442   4.913   4.147  0.00  0.00    -0.384 OA
BRANCH  25  26
ATOM     26  C   UNK A   0       7.077   4.489   4.158  0.00  0.00    +0.358 C 
BRANCH  26  28
ATOM     27  N   UNK A   0       5.273   4.095   2.513  0.00  0.00    -0.304 N 
ATOM     28  C   UNK A   0       6.547   4.466   2.748  0.00  0.00    +0.254 C 
ATOM     29  O   UNK A   0       7.267   4.781   1.824  0.00  0.00    -0.272 OA
ATOM     30  H   UNK A   0       4.697   3.842   3.251  0.00  0.00    +0.149 HD
BRANCH  27  31
ATOM     31  C   UNK A   0       4.758   4.072   1.141  0.00  0.00    +0.200 C 
BRANCH  31  33
ATOM     32  N   VAL A   1       2.634   3.529  -0.004  0.00  0.00    -0.301 N 
ATOM     33  C   UNK A   0       3.319   3.625   1.153  0.00  0.00    +0.231 C 
ATOM     34  O   UNK A   0       2.777   3.352   2.203  0.00  0.00    -0.274 OA
ATOM     35  H   VAL A   1       3.067   3.747  -0.844  0.00  0.00    +0.150 HD
BRANCH  32  36
ATOM     36  CA  VAL A   1       1.235   3.094   0.007  0.00  0.00    +0.189 C 
BRANCH  36  38
ATOM     37  CG1 VAL A   1       1.131   3.011  -2.488  0.00  0.00    +0.009 C 
ATOM     38  CB  VAL A   1       0.522   3.639  -1.233  0.00  0.00    +0.014 C 
ATOM     39  CG2 VAL A   1      -0.966   3.291  -1.159  0.00  0.00    +0.009 C 
ENDBRANCH  36  38
BRANCH  36  40
ATOM     40  C   VAL A   1       1.177   1.588  -0.001  0.00  0.00    +0.376 C 
ATOM     41  O   VAL A   1       2.199   0.944  -0.014  0.00  0.00    -0.244 OA
ATOM     42  OXT VAL A   1      -0.011   0.963   0.007  0.00  0.00    -0.244 OA
ENDBRANCH  36  40
ENDBRANCH  32  36
ENDBRANCH  31  33
ENDBRANCH  27  31
ENDBRANCH  26  28
ENDBRANCH  25  26
ENDBRANCH   1  25
TORSDOF 10
