REMARK  Name = ZINC24865092
REMARK  7 active torsions:
REMARK  status: ('A' for Active; 'I' for Inactive)
REMARK    1  A    between atoms: C_1  and  C_2
REMARK    2  A    between atoms: C_5  and  N_9
REMARK    3  A    between atoms: C_10  and  C_12
REMARK    4  A    between atoms: C_12  and  C_14
REMARK    5  A    between atoms: C_12  and  N_15
REMARK    6  A    between atoms: N_18  and  C_21
REMARK    7  A    between atoms: C_21  and  C_22
REMARK                            x       y       z     vdW  Elec       q    Type
REMARK                         _______ _______ _______ _____ _____    ______ ____
ROOT
ATOM      1  N   UNL     1       3.460  -2.420   0.239  0.00  0.00    -0.295 NA
ATOM      2  C   UNL     1       2.734  -2.733   1.478  0.00  0.00    +0.066 C 
ATOM      3  C   UNL     1       2.429  -4.232   1.522  0.00  0.00    -0.063 C 
ATOM      4  N   UNL     1       3.688  -4.988   1.446  0.00  0.00    +0.387 N 
ATOM      5  C   UNL     1       4.414  -4.674   0.208  0.00  0.00    -0.063 C 
ATOM      6  C   UNL     1       4.718  -3.175   0.164  0.00  0.00    +0.066 C 
ATOM      7  H   UNL     1       4.317  -4.684   2.296  0.00  0.00    -0.081 HD
ENDROOT
BRANCH   1   8
ATOM      8  C   UNL     1       3.705  -0.976   0.124  0.00  0.00    +0.140 C 
ATOM      9  C   UNL     1       4.515  -0.498   1.331  0.00  0.00    +0.034 C 
BRANCH   8  11
ATOM     10  N   UNL     1       2.366   1.099  -0.023  0.00  0.00    -0.283 N 
ATOM     11  C   UNL     1       2.388  -0.245   0.082  0.00  0.00    +0.234 C 
ATOM     12  O   UNL     1       1.347  -0.865   0.142  0.00  0.00    -0.274 OA
ATOM     13  H   UNL     1       3.304   1.655  -0.169  0.00  0.00    +0.155 HD
BRANCH  10  18
ATOM     14  C   UNL     1      -2.566   3.888   0.288  0.00  0.00    +0.044 C 
ATOM     15  C   UNL     1      -1.256   3.148   0.205  0.00  0.00    -0.049 A 
ATOM     16  C   UNL     1      -1.131   1.899   0.787  0.00  0.00    +0.005 A 
ATOM     17  C   UNL     1       0.070   1.220   0.717  0.00  0.00    +0.024 A 
ATOM     18  C   UNL     1       1.149   1.787   0.053  0.00  0.00    +0.048 A 
ATOM     19  C   UNL     1       1.020   3.039  -0.534  0.00  0.00    +0.039 A 
ATOM     20  C   UNL     1      -0.183   3.716  -0.457  0.00  0.00    +0.020 A 
ATOM     21 BR   UNL     1       2.487   3.817  -1.439  0.00  0.00    -0.048 Br
ENDBRANCH  10  18
ENDBRANCH   8  11
ENDBRANCH   1   8
BRANCH   4  22
ATOM     22  C   UNL     1       3.443  -6.432   1.562  0.00  0.00    +0.019 C 
BRANCH  22  23
ATOM     23  C   UNL     1       4.754  -7.150   1.754  0.00  0.00    +0.199 C 
ATOM     24  O   UNL     1       5.796  -6.530   1.717  0.00  0.00    -0.278 OA
ATOM     25  N   UNL     1       4.768  -8.481   1.966  0.00  0.00    -0.303 N 
ATOM     26  C   UNL     1       3.509  -9.189   2.010  0.00  0.00    +0.107 C 
ATOM     27  C   UNL     1       2.962  -9.201   3.453  0.00  0.00    +0.019 C 
ATOM     28  C   UNL     1       3.773 -10.092   4.298  0.00  0.00    +0.002 C 
ATOM     29  C   UNL     1       5.229  -9.663   4.447  0.00  0.00    +0.002 C 
ATOM     30  C   UNL     1       6.029 -10.195   3.283  0.00  0.00    +0.019 C 
ATOM     31  C   UNL     1       6.069  -9.153   2.150  0.00  0.00    +0.107 C 
ENDBRANCH  22  23
ENDBRANCH   4  22
TORSDOF 5
