REMARK  Name = ZINC28055950
REMARK  5 active torsions:
REMARK  status: ('A' for Active; 'I' for Inactive)
REMARK    1  A    between atoms: C_1  and  C_2
REMARK    2  A    between atoms: C_10  and  C_18
REMARK    3  A    between atoms: C_21  and  O_24
REMARK    4  A    between atoms: O_24  and  C_25
REMARK    5  A    between atoms: C_26  and  C_29
REMARK                            x       y       z     vdW  Elec       q    Type
REMARK                         _______ _______ _______ _____ _____    ______ ____
ROOT
ATOM      1  C   UNL     1       2.617   3.459   0.052  0.00  0.00    +0.044 C 
ATOM      2  C   UNL     1       1.261   2.803   0.045  0.00  0.00    -0.050 A 
ATOM      3  C   UNL     1       1.164   1.422   0.020  0.00  0.00    +0.007 A 
ATOM      4  C   UNL     1      -0.074   0.804   0.013  0.00  0.00    +0.046 A 
ATOM      5  C   UNL     1      -1.224   1.571   0.027  0.00  0.00    +0.131 A 
ATOM      6  C   UNL     1      -1.128   2.969   0.058  0.00  0.00    +0.038 A 
ATOM      7  C   UNL     1       0.119   3.581   0.064  0.00  0.00    +0.016 A 
ATOM      8  C   UNL     1      -2.380   3.761   0.079  0.00  0.00    +0.050 C 
ATOM      9  C   UNL     1      -3.521   3.155  -0.254  0.00  0.00    +0.025 C 
ATOM     10  C   UNL     1      -4.849   3.872  -0.244  0.00  0.00    +0.174 C 
ATOM     11  N   UNL     1      -4.641   5.310  -0.146  0.00  0.00    -0.201 N 
ATOM     12  C   UNL     1      -3.453   5.882   0.181  0.00  0.00    +0.240 A 
ATOM     13  N   UNL     1      -3.631   7.172   0.186  0.00  0.00    -0.092 NA
ATOM     14  N   UNL     1      -4.851   7.454  -0.120  0.00  0.00    -0.021 NA
ATOM     15  N   UNL     1      -5.524   6.371  -0.338  0.00  0.00    -0.042 NA
ATOM     16  N   UNL     1      -2.329   5.114   0.437  0.00  0.00    -0.282 N 
ATOM     17  C   UNL     1      -3.489   1.702  -0.670  0.00  0.00    +0.234 C 
ATOM     18  O   UNL     1      -2.457   1.003   0.025  0.00  0.00    -0.479 OA
ATOM     19  H   UNL     1      -1.420   5.526   0.901  0.00  0.00    +0.155 HD
ENDROOT
BRANCH  17  20
ATOM     20  C   UNL     1      -3.235   1.615  -2.153  0.00  0.00    -0.003 A 
ATOM     21  C   UNL     1      -1.967   1.848  -2.652  0.00  0.00    +0.008 A 
ATOM     22  C   UNL     1      -1.733   1.764  -4.012  0.00  0.00    +0.015 A 
ATOM     23  C   UNL     1      -2.770   1.458  -4.874  0.00  0.00    +0.018 A 
ATOM     24  C   UNL     1      -4.040   1.230  -4.375  0.00  0.00    +0.015 A 
ATOM     25  C   UNL     1      -4.272   1.309  -3.015  0.00  0.00    +0.008 A 
ATOM     26 BR   UNL     1      -2.452   1.350  -6.735  0.00  0.00    -0.050 Br
ENDBRANCH  17  20
BRANCH  10  27
ATOM     27  C   UNL     1      -5.659   3.402   0.936  0.00  0.00    -0.018 A 
ATOM     28  C   UNL     1      -5.175   3.579   2.219  0.00  0.00    +0.009 A 
ATOM     29  C   UNL     1      -5.918   3.155   3.304  0.00  0.00    +0.046 A 
ATOM     30  C   UNL     1      -7.145   2.538   3.104  0.00  0.00    +0.120 A 
ATOM     31  C   UNL     1      -7.626   2.356   1.815  0.00  0.00    +0.046 A 
ATOM     32  C   UNL     1      -6.881   2.789   0.734  0.00  0.00    +0.009 A 
BRANCH  30  33
ATOM     33  O   UNL     1      -7.875   2.114   4.169  0.00  0.00    -0.495 OA
ATOM     34  C   UNL     1      -7.319   2.334   5.466  0.00  0.00    +0.277 C 
ENDBRANCH  30  33
ENDBRANCH  10  27
TORSDOF 3
