REMARK  Name = ZINC04482093
REMARK  10 active torsions:
REMARK  status: ('A' for Active; 'I' for Inactive)
REMARK    1  A    between atoms: C_1  and  C_2
REMARK    2  A    between atoms: C_3  and  C_10
REMARK    3  A    between atoms: C_4  and  C_8
REMARK    4  A    between atoms: C_4  and  C_9
REMARK    5  A    between atoms: C_11  and  C_12
REMARK    6  A    between atoms: C_12  and  C_34
REMARK    7  A    between atoms: N_13  and  N_14
REMARK    8  A    between atoms: C_15  and  C_17
REMARK    9  A    between atoms: C_18  and  C_28
REMARK   10  A    between atoms: C_28  and  N_70
REMARK                            x       y       z     vdW  Elec       q    Type
REMARK                         _______ _______ _______ _____ _____    ______ ____
ROOT
ATOM      1  C   UNL     1       2.766   6.176  -4.710  0.00  0.00    +0.170 A 
ATOM      2  C   UNL     1       3.326   5.702  -5.862  0.00  0.00    +0.063 A 
ATOM      3  N   UNL     1       3.819   6.771  -6.526  0.00  0.00    -0.194 N 
ATOM      4  N   UNL     1       3.539   7.898  -5.741  0.00  0.00    -0.058 NA
ATOM      5  N   UNL     1       2.915   7.512  -4.684  0.00  0.00    -0.124 NA
ATOM      6  C   UNL     1       4.482   6.755  -7.759  0.00  0.00    +0.240 A 
ATOM      7  C   UNL     1       5.010   7.926  -8.463  0.00  0.00    +0.206 A 
ATOM      8  N   UNL     1       5.559   7.523  -9.576  0.00  0.00    -0.032 NA
ATOM      9  O   UNL     1       5.418   6.115  -9.643  0.00  0.00    -0.239 OA
ATOM     10  N   UNL     1       4.739   5.696  -8.473  0.00  0.00    -0.027 NA
ATOM     11  N   UNL     1       4.938   9.243  -8.022  0.00  0.00    -0.337 N 
ATOM     12  H   UNL     1       4.507   9.448  -7.178  0.00  0.00    +0.144 HD
ATOM     13  H   UNL     1       5.318   9.956  -8.559  0.00  0.00    +0.144 HD
ENDROOT
BRANCH   1  15
ATOM     14  N   UNL     1       1.588   5.955  -2.579  0.00  0.00    -0.201 N 
ATOM     15  C   UNL     1       2.103   5.362  -3.675  0.00  0.00    +0.285 C 
ATOM     16  O   UNL     1       2.022   4.156  -3.809  0.00  0.00    -0.267 OA
ATOM     17  H   UNL     1       1.653   6.916  -2.472  0.00  0.00    +0.178 HD
BRANCH  14  19
ATOM     18  C   UNL     1       0.461   5.754  -0.535  0.00  0.00    +0.056 C 
ATOM     19  N   UNL     1       0.959   5.181  -1.595  0.00  0.00    -0.185 NA
ATOM     20  C   UNL     1       0.562   7.248  -0.369  0.00  0.00    +0.067 C 
BRANCH  18  22
ATOM     21  C   UNL     1      -0.266   3.631   0.310  0.00  0.00    +0.006 C 
ATOM     22  C   UNL     1      -0.175   4.972   0.459  0.00  0.00    +0.025 C 
BRANCH  21  25
ATOM     23  C   UNL     1      -2.803   4.213   1.099  0.00  0.00    +0.039 C 
ATOM     24  C   UNL     1      -2.070   3.084   1.777  0.00  0.00    -0.069 C 
ATOM     25  C   UNL     1      -0.841   2.813   1.378  0.00  0.00    -0.043 C 
ATOM     26  C   UNL     1       0.001   1.716   1.962  0.00  0.00    -0.010 C 
ATOM     27  C   UNL     1      -0.577   1.263   3.304  0.00  0.00    +0.011 C 
ATOM     28  C   UNL     1      -2.076   0.996   3.123  0.00  0.00    +0.005 C 
ATOM     29  C   UNL     1      -2.780   2.329   2.862  0.00  0.00    +0.031 C 
ATOM     30  C   UNL     1       1.429   2.225   2.170  0.00  0.00    +0.016 C 
ATOM     31  C   UNL     1       0.025   0.531   0.994  0.00  0.00    +0.016 C 
ENDBRANCH  21  25
ENDBRANCH  18  22
ENDBRANCH  14  19
ENDBRANCH   1  15
BRANCH   2  32
ATOM     32  C   UNL     1       3.383   4.263  -6.307  0.00  0.00    -0.020 C 
BRANCH  32  38
ATOM     33  C   UNL     1       5.802   4.250  -6.410  0.00  0.00    -0.078 C 
ATOM     34  C   UNL     1       7.062   3.683  -5.753  0.00  0.00    -0.019 C 
ATOM     35  C   UNL     1       7.090   2.163  -5.940  0.00  0.00    -0.004 C 
ATOM     36  C   UNL     1       5.819   1.560  -5.337  0.00  0.00    -0.019 C 
ATOM     37  C   UNL     1       4.594   2.188  -6.006  0.00  0.00    -0.078 C 
ATOM     38  N   UNL     1       4.614   3.647  -5.769  0.00  0.00    +0.383 N 
ATOM     39  H   UNL     1       4.658   3.820  -4.758  0.00  0.00    -0.081 HD
ENDBRANCH  32  38
ENDBRANCH   2  32
TORSDOF 6
