REMARK  Name = ZINC35579072
REMARK  10 active torsions:
REMARK  status: ('A' for Active; 'I' for Inactive)
REMARK    1  A    between atoms: C_1  and  C_2
REMARK    2  A    between atoms: C_2  and  C_3
REMARK    3  A    between atoms: C_3  and  C_4
REMARK    4  A    between atoms: C_4  and  C_6
REMARK    5  A    between atoms: C_4  and  C_7
REMARK    6  A    between atoms: C_11  and  C_21
REMARK    7  A    between atoms: N_13  and  C_14
REMARK    8  A    between atoms: C_22  and  N_24
REMARK    9  A    between atoms: C_30  and  C_32
REMARK   10  A    between atoms: C_32  and  C_33
REMARK                            x       y       z     vdW  Elec       q    Type
REMARK                         _______ _______ _______ _____ _____    ______ ____
ROOT
ATOM      1  C   UNL     1      -2.825  -2.573   0.147  0.00  0.00    +0.136 A 
ATOM      2  N   UNL     1      -3.706  -2.256  -0.776  0.00  0.00    -0.212 NA
ATOM      3  C   UNL     1      -4.959  -2.700  -0.700  0.00  0.00    +0.169 A 
ATOM      4  C   UNL     1      -5.326  -3.515   0.389  0.00  0.00    +0.082 A 
ATOM      5  C   UNL     1      -6.691  -3.837   0.223  0.00  0.00    +0.073 A 
ATOM      6  N   UNL     1      -7.120  -3.269  -0.869  0.00  0.00    -0.169 NA
ATOM      7  N   UNL     1      -6.077  -2.554  -1.471  0.00  0.00    -0.214 N 
ATOM      8  C   UNL     1      -7.513  -4.693   1.151  0.00  0.00    +0.068 C 
ATOM      9  C   UNL     1      -4.346  -3.826   1.350  0.00  0.00    +0.136 A 
ATOM     10  N   UNL     1      -3.121  -3.338   1.183  0.00  0.00    -0.216 NA
ENDROOT
BRANCH   9  11
ATOM     11  N   UNL     1      -4.648  -4.621   2.438  0.00  0.00    -0.312 N 
ATOM     12  C   UNL     1      -4.380  -6.066   2.406  0.00  0.00    +0.125 C 
ATOM     13  C   UNL     1      -3.499  -6.428   3.608  0.00  0.00    +0.126 C 
ATOM     14  N   UNL     1      -4.094  -5.844   4.819  0.00  0.00    -0.298 N 
ATOM     15  C   UNL     1      -4.362  -4.399   4.851  0.00  0.00    +0.126 C 
ATOM     16  C   UNL     1      -5.238  -4.037   3.651  0.00  0.00    +0.125 C 
ATOM     17  C   UNL     1      -4.389  -6.620   5.880  0.00  0.00    +0.220 C 
ATOM     18  O   UNL     1      -4.164  -7.811   5.842  0.00  0.00    -0.275 OA
BRANCH  17  19
ATOM     19  C   UNL     1      -4.999  -6.008   7.115  0.00  0.00    +0.138 C 
BRANCH  19  20
ATOM     20  C   UNL     1      -5.229  -7.082   8.147  0.00  0.00    -0.001 A 
ATOM     21  C   UNL     1      -4.399  -7.516   9.126  0.00  0.00    +0.011 A 
ATOM     22  C   UNL     1      -4.827  -8.525   9.969  0.00  0.00    +0.008 A 
ATOM     23  C   UNL     1      -6.065  -9.050   9.790  0.00  0.00    +0.045 A 
ATOM     24  S   UNL     1      -6.670  -8.105   8.402  0.00  0.00    -0.101 S 
ENDBRANCH  19  20
ENDBRANCH  17  19
ENDBRANCH   9  11
BRANCH   7  25
ATOM     25  C   UNL     1      -6.165  -1.817  -2.660  0.00  0.00    +0.068 A 
ATOM     26  C   UNL     1      -5.431  -0.648  -2.809  0.00  0.00    +0.030 A 
ATOM     27  C   UNL     1      -5.519   0.076  -3.981  0.00  0.00    +0.040 A 
ATOM     28  C   UNL     1      -6.339  -0.362  -5.007  0.00  0.00    +0.124 A 
ATOM     29  C   UNL     1      -7.073  -1.527  -4.860  0.00  0.00    +0.040 A 
ATOM     30  C   UNL     1      -6.983  -2.258  -3.692  0.00  0.00    +0.030 A 
ATOM     31  F   UNL     1      -6.424   0.349  -6.153  0.00  0.00    -0.205 F 
ENDBRANCH   7  25
BRANCH   1  32
ATOM     32  C   UNL     1      -1.419  -2.046   0.016  0.00  0.00    +0.054 C 
ATOM     33  C   UNL     1      -0.809  -2.543  -1.297  0.00  0.00    +0.015 C 
BRANCH  32  34
ATOM     34  C   UNL     1      -1.444  -0.517   0.019  0.00  0.00    +0.011 C 
BRANCH  34  36
ATOM     35  C   UNL     1      -0.037   1.547   0.015  0.00  0.00    +0.004 C 
ATOM     36  C   UNL     1      -0.011   0.018   0.012  0.00  0.00    -0.003 C 
ENDBRANCH  34  36
ENDBRANCH  32  34
ENDBRANCH   1  32
TORSDOF 7
