REMARK  Name = ZINC36641343
REMARK  11 active torsions:
REMARK  status: ('A' for Active; 'I' for Inactive)
REMARK    1  A    between atoms: C_1  and  N_2
REMARK    2  A    between atoms: N_2  and  C_3
REMARK    3  A    between atoms: N_2  and  C_4
REMARK    4  A    between atoms: C_4  and  C_5
REMARK    5  A    between atoms: C_5  and  N_6
REMARK    6  A    between atoms: C_10  and  O_18
REMARK    7  A    between atoms: C_13  and  O_16
REMARK    8  A    between atoms: O_16  and  C_17
REMARK    9  A    between atoms: O_18  and  C_19
REMARK   10  A    between atoms: C_20  and  C_22
REMARK   11  A    between atoms: N_27  and  C_29
REMARK                            x       y       z     vdW  Elec       q    Type
REMARK                         _______ _______ _______ _____ _____    ______ ____
ROOT
ATOM      1  N   UNL     1       0.935  -0.965   3.244  0.00  0.00    -0.252 N 
ATOM      2  C   UNL     1       2.064  -0.283   3.669  0.00  0.00    +0.168 A 
ATOM      3  N   UNL     1       2.604   0.805   3.172  0.00  0.00    -0.221 NA
ATOM      4  C   UNL     1       3.717   1.367   3.693  0.00  0.00    +0.125 A 
ATOM      5  C   UNL     1       4.397   2.533   3.255  0.00  0.00    +0.147 A 
ATOM      6  C   UNL     1       5.526   2.972   3.902  0.00  0.00    +0.051 A 
ATOM      7  C   UNL     1       6.041   2.298   5.000  0.00  0.00    +0.050 A 
ATOM      8  C   UNL     1       5.402   1.155   5.455  0.00  0.00    +0.136 A 
ATOM      9  C   UNL     1       4.269   0.708   4.812  0.00  0.00    +0.086 A 
ATOM     10  S   UNL     1       3.153  -0.656   5.037  0.00  0.00    -0.048 S 
ATOM     11  C   UNL     1       0.616  -2.151   3.800  0.00  0.00    +0.226 C 
ATOM     12  O   UNL     1      -0.432  -2.691   3.516  0.00  0.00    -0.275 OA
ENDROOT
BRANCH  11  13
ATOM     13  C   UNL     1       1.562  -2.806   4.773  0.00  0.00    +0.102 C 
ATOM     14  C   UNL     1       1.249  -2.374   6.224  0.00  0.00    +0.110 C 
ATOM     15  C   UNL     1       0.315  -3.448   6.738  0.00  0.00    +0.221 C 
ATOM     16  O   UNL     1      -0.383  -3.348   7.725  0.00  0.00    -0.275 OA
ATOM     17  N   UNL     1       0.370  -4.529   5.941  0.00  0.00    -0.271 N 
ATOM     18  C   UNL     1       1.320  -4.331   4.838  0.00  0.00    +0.127 C 
BRANCH  17  19
ATOM     19  C   UNL     1      -0.381  -5.694   6.136  0.00  0.00    +0.036 A 
ATOM     20  C   UNL     1      -1.268  -5.779   7.201  0.00  0.00    +0.026 A 
ATOM     21  C   UNL     1      -2.007  -6.930   7.392  0.00  0.00    +0.040 A 
ATOM     22  C   UNL     1      -1.865  -7.998   6.523  0.00  0.00    +0.124 A 
ATOM     23  C   UNL     1      -0.981  -7.916   5.460  0.00  0.00    +0.040 A 
ATOM     24  C   UNL     1      -0.244  -6.765   5.262  0.00  0.00    +0.026 A 
ATOM     25  F   UNL     1      -2.589  -9.123   6.712  0.00  0.00    -0.205 F 
ENDBRANCH  17  19
ENDBRANCH  11  13
BRANCH   8  26
ATOM     26  O   UNL     1       5.891   0.479   6.530  0.00  0.00    -0.494 OA
ATOM     27  C   UNL     1       7.069   1.004   7.145  0.00  0.00    +0.277 C 
ENDBRANCH   8  26
BRANCH   5  28
ATOM     28  O   UNL     1       3.925   3.222   2.181  0.00  0.00    -0.493 OA
ATOM     29  C   UNL     1       4.653   4.388   1.788  0.00  0.00    +0.277 C 
ENDBRANCH   5  28
BRANCH   1  30
ATOM     30  C   UNL     1       0.088  -0.397   2.193  0.00  0.00    +0.097 C 
BRANCH  30  31
ATOM     31  C   UNL     1       0.509  -0.966   0.836  0.00  0.00    -0.060 C 
BRANCH  31  33
ATOM     32  C   UNL     1      -0.307   0.960  -0.338  0.00  0.00    -0.097 C 
ATOM     33  N   UNL     1      -0.420  -0.498  -0.201  0.00  0.00    +0.377 N 
ATOM     34  C   UNL     1      -0.088  -1.138  -1.481  0.00  0.00    -0.097 C 
ATOM     35  H   UNL     1      -1.365  -0.739   0.060  0.00  0.00    -0.083 HD
ENDBRANCH  31  33
ENDBRANCH  30  31
ENDBRANCH   1  30
TORSDOF 7
