REMARK  Name = ZINC49776856
REMARK  4 active torsions:
REMARK  status: ('A' for Active; 'I' for Inactive)
REMARK    1  A    between atoms: C_1  and  C_2
REMARK    2  A    between atoms: C_5  and  N_9
REMARK    3  A    between atoms: C_14  and  C_16
REMARK    4  A    between atoms: N_18  and  C_19
REMARK                            x       y       z     vdW  Elec       q    Type
REMARK                         _______ _______ _______ _____ _____    ______ ____
ROOT
ATOM      1  N   UNL     1      -3.072   1.390  -2.733  0.00  0.00    +0.407 N 
ATOM      2  C   UNL     1      -2.502   0.038  -2.784  0.00  0.00    -0.074 C 
ATOM      3  C   UNL     1      -3.084  -0.720  -3.979  0.00  0.00    -0.018 C 
ATOM      4  C   UNL     1      -4.605  -0.812  -3.826  0.00  0.00    -0.003 C 
ATOM      5  C   UNL     1      -5.182   0.601  -3.698  0.00  0.00    -0.006 C 
ATOM      6  C   UNL     1      -4.521   1.310  -2.514  0.00  0.00    +0.023 C 
ATOM      7  H   UNL     1      -2.890   1.863  -3.605  0.00  0.00    -0.077 HD
ENDROOT
BRANCH   1  11
ATOM      8  C   UNL     1      -1.085   0.414   1.327  0.00  0.00    +0.087 C 
ATOM      9  C   UNL     1      -1.387   1.155   0.050  0.00  0.00    +0.122 C 
ATOM     10  N   UNL     1      -2.590   1.407  -0.360  0.00  0.00    -0.277 NA
ATOM     11  C   UNL     1      -2.453   2.140  -1.632  0.00  0.00    +0.119 C 
ATOM     12  C   UNL     1      -0.949   2.226  -1.816  0.00  0.00    +0.102 C 
ATOM     13  N   UNL     1      -0.441   1.622  -0.771  0.00  0.00    -0.223 NA
ATOM     14  N   UNL     1      -0.275   2.809  -2.842  0.00  0.00    -0.346 N 
ATOM     15  H   UNL     1      -0.764   3.233  -3.565  0.00  0.00    +0.143 HD
ATOM     16  H   UNL     1       0.695   2.802  -2.851  0.00  0.00    +0.143 HD
ENDBRANCH   1  11
BRANCH   6  17
ATOM     17  C   UNL     1      -5.086   2.702  -2.385  0.00  0.00    +0.199 C 
ATOM     18  O   UNL     1      -4.547   3.630  -2.949  0.00  0.00    -0.278 OA
ATOM     19  N   UNL     1      -6.190   2.914  -1.641  0.00  0.00    -0.320 N 
ATOM     20  C   UNL     1      -6.739   4.267  -1.515  0.00  0.00    +0.128 C 
ATOM     21  H   UNL     1      -6.621   2.172  -1.190  0.00  0.00    +0.148 HD
ENDBRANCH   6  17
TORSDOF 2
