REMARK  Name = ZINC40427302
REMARK  10 active torsions:
REMARK  status: ('A' for Active; 'I' for Inactive)
REMARK    1  A    between atoms: C_1  and  C_2
REMARK    2  A    between atoms: C_2  and  C_3
REMARK    3  A    between atoms: C_3  and  C_5
REMARK    4  A    between atoms: C_3  and  C_11
REMARK    5  A    between atoms: C_18  and  C_20
REMARK    6  A    between atoms: C_21  and  C_23
REMARK    7  A    between atoms: C_23  and  C_24
REMARK    8  A    between atoms: C_24  and  N_25
REMARK    9  A    between atoms: C_33  and  C_35
REMARK   10  A    between atoms: C_38  and  C_41
REMARK                            x       y       z     vdW  Elec       q    Type
REMARK                         _______ _______ _______ _____ _____    ______ ____
ROOT
ATOM      1  C   UNL     1       2.015   0.082  -1.595  0.00  0.00    +0.223 C 
ATOM      2  O   UNL     1       2.916  -0.709  -1.780  0.00  0.00    -0.275 OA
ATOM      3  N   UNL     1       2.297   1.364  -1.289  0.00  0.00    -0.295 N 
ATOM      4  C   UNL     1       1.221   2.358  -1.167  0.00  0.00    +0.127 C 
ATOM      5  C   UNL     1       1.525   3.529  -2.110  0.00  0.00    +0.127 C 
ATOM      6  N   UNL     1       2.914   3.958  -1.892  0.00  0.00    -0.298 N 
ATOM      7  C   UNL     1       3.990   2.965  -2.014  0.00  0.00    +0.130 C 
ATOM      8  C   UNL     1       3.685   1.792  -1.066  0.00  0.00    +0.090 C 
ATOM      9  C   UNL     1       4.635   0.630  -1.361  0.00  0.00    +0.029 C 
ATOM     10  C   UNL     1       3.195   5.240  -1.586  0.00  0.00    +0.214 C 
ATOM     11  O   UNL     1       4.345   5.583  -1.408  0.00  0.00    -0.276 OA
ENDROOT
BRANCH   1  12
ATOM     12  C   UNL     1       0.582  -0.368  -1.707  0.00  0.00    +0.105 C 
BRANCH  12  13
ATOM     13  C   UNL     1       0.109  -0.192  -3.127  0.00  0.00    -0.036 A 
ATOM     14  C   UNL     1       0.746  -0.861  -4.156  0.00  0.00    +0.004 A 
ATOM     15  C   UNL     1       0.313  -0.699  -5.459  0.00  0.00    +0.000 A 
ATOM     16  C   UNL     1      -0.757   0.132  -5.733  0.00  0.00    +0.000 A 
ATOM     17  C   UNL     1      -1.395   0.800  -4.704  0.00  0.00    +0.000 A 
ATOM     18  C   UNL     1      -0.965   0.635  -3.401  0.00  0.00    +0.004 A 
ENDBRANCH  12  13
BRANCH  12  20
ATOM     19  C   UNL     1       0.815  -2.002   0.169  0.00  0.00    +0.005 C 
ATOM     20  C   UNL     1       0.478  -1.844  -1.315  0.00  0.00    +0.014 C 
ENDBRANCH  12  20
ENDBRANCH   1  12
BRANCH  10  21
ATOM     21  C   UNL     1       2.081   6.248  -1.464  0.00  0.00    +0.077 C 
BRANCH  21  22
ATOM     22  C   UNL     1       2.668   7.616  -1.112  0.00  0.00    -0.068 C 
BRANCH  22  23
ATOM     23  N   UNL     1       1.582   8.599  -0.994  0.00  0.00    +0.388 N 
ATOM     24  C   UNL     1       0.706   8.218   0.123  0.00  0.00    -0.072 C 
ATOM     25  C   UNL     1      -0.592   9.040   0.039  0.00  0.00    +0.024 C 
ATOM     26  C   UNL     1      -0.208  10.466  -0.186  0.00  0.00    -0.010 A 
ATOM     27  C   UNL     1       1.022  10.925  -0.551  0.00  0.00    -0.047 A 
ATOM     28  C   UNL     1       1.153  12.303  -0.699  0.00  0.00    +0.010 A 
ATOM     29  C   UNL     1       0.088  13.111  -0.485  0.00  0.00    +0.045 A 
ATOM     30  S   UNL     1      -1.187  11.935  -0.054  0.00  0.00    -0.101 S 
ATOM     31  C   UNL     1       2.158   9.931  -0.774  0.00  0.00    -0.006 C 
ATOM     32  H   UNL     1       1.046   8.605  -1.848  0.00  0.00    -0.080 HD
BRANCH  31  33
ATOM     33  C   UNL     1       2.958  10.341  -1.984  0.00  0.00    -0.057 A 
ATOM     34  C   UNL     1       2.485  10.061  -3.252  0.00  0.00    +0.002 A 
ATOM     35  C   UNL     1       3.219  10.437  -4.362  0.00  0.00    +0.003 A 
ATOM     36  C   UNL     1       4.425  11.093  -4.203  0.00  0.00    -0.050 A 
ATOM     37  C   UNL     1       4.897  11.374  -2.934  0.00  0.00    +0.003 A 
ATOM     38  C   UNL     1       4.161  11.002  -1.825  0.00  0.00    +0.002 A 
ATOM     39  C   UNL     1       5.226  11.502  -5.413  0.00  0.00    +0.044 C 
ENDBRANCH  31  33
ENDBRANCH  22  23
ENDBRANCH  21  22
ENDBRANCH  10  21
TORSDOF 7
