REMARK  Name = ZINC12149367
REMARK  9 active torsions:
REMARK  status: ('A' for Active; 'I' for Inactive)
REMARK    1  A    between atoms: C_1  and  C_2
REMARK    2  A    between atoms: C_4  and  C_7
REMARK    3  A    between atoms: C_7  and  C_9
REMARK    4  A    between atoms: C_7  and  N_53
REMARK    5  A    between atoms: C_10  and  C_11
REMARK    6  A    between atoms: C_10  and  N_53
REMARK    7  A    between atoms: C_20  and  O_21
REMARK    8  A    between atoms: O_21  and  C_22
REMARK    9  A    between atoms: C_22  and  C_23
REMARK                            x       y       z     vdW  Elec       q    Type
REMARK                         _______ _______ _______ _____ _____    ______ ____
ROOT
ATOM      1  C   UNL     1       5.378  -1.838   2.796  0.00  0.00    -0.002 A 
ATOM      2  C   UNL     1       5.009  -0.638   2.263  0.00  0.00    +0.017 A 
ATOM      3  C   UNL     1       3.725  -0.524   1.698  0.00  0.00    +0.005 A 
ATOM      4  C   UNL     1       3.281   0.683   1.134  0.00  0.00    +0.059 A 
ATOM      5  C   UNL     1       2.030   0.761   0.595  0.00  0.00    +0.167 A 
ATOM      6  C   UNL     1       1.179  -0.358   0.598  0.00  0.00    +0.168 A 
ATOM      7  C   UNL     1       1.587  -1.543   1.139  0.00  0.00    +0.078 A 
ATOM      8  C   UNL     1       2.868  -1.653   1.702  0.00  0.00    +0.079 A 
ATOM      9  N   UNL     1       3.287  -2.805   2.239  0.00  0.00    -0.213 NA
ATOM     10  C   UNL     1       4.486  -2.916   2.769  0.00  0.00    +0.217 A 
ATOM     11  O   UNL     1       0.002  -0.004   0.002  0.00  0.00    -0.453 OA
ATOM     12  C   UNL     1      -0.017   1.435   0.010  0.00  0.00    +0.466 C 
ATOM     13  O   UNL     1       1.375   1.800  -0.001  0.00  0.00    -0.453 OA
ENDROOT
BRANCH   1  14
ATOM     14  C   UNL     1       6.744  -2.004   3.411  0.00  0.00    -0.040 C 
BRANCH  14  15
ATOM     15  N   UNL     1       7.632  -2.673   2.442  0.00  0.00    +0.387 N 
ATOM     16  H   UNL     1       7.243  -3.593   2.205  0.00  0.00    -0.085 HD
ATOM     17  H   UNL     1       7.700  -2.100   1.593  0.00  0.00    -0.085 HD
BRANCH  15  18
ATOM     18  C   UNL     1       8.979  -2.849   3.019  0.00  0.00    -0.024 C 
ATOM     19  C   UNL     1       9.799  -1.576   2.797  0.00  0.00    -0.007 C 
BRANCH  18  23
ATOM     20  C   UNL     1       9.637  -5.951  -0.850  0.00  0.00    +0.073 C 
ATOM     21  C   UNL     1       9.898  -5.388   0.523  0.00  0.00    +0.075 A 
ATOM     22  N   UNL     1       9.313  -4.379   1.126  0.00  0.00    -0.251 NA
ATOM     23  C   UNL     1       9.660  -4.009   2.341  0.00  0.00    +0.035 A 
ATOM     24  C   UNL     1      10.649  -4.696   2.966  0.00  0.00    +0.068 A 
ATOM     25  S   UNL     1      11.047  -5.910   1.716  0.00  0.00    -0.081 S 
ENDBRANCH  18  23
ENDBRANCH  15  18
ENDBRANCH  14  15
ENDBRANCH   1  14
BRANCH  10  26
ATOM     26  O   UNL     1       4.867  -4.103   3.303  0.00  0.00    -0.471 OA
BRANCH  26  27
ATOM     27  C   UNL     1       3.919  -5.171   3.251  0.00  0.00    +0.266 C 
BRANCH  27  28
ATOM     28  C   UNL     1       4.514  -6.402   3.886  0.00  0.00    -0.008 A 
ATOM     29  C   UNL     1       4.348  -6.629   5.240  0.00  0.00    +0.007 A 
ATOM     30  C   UNL     1       4.893  -7.757   5.825  0.00  0.00    +0.003 A 
ATOM     31  C   UNL     1       5.604  -8.659   5.056  0.00  0.00    +0.038 A 
ATOM     32  C   UNL     1       5.770  -8.433   3.701  0.00  0.00    +0.124 A 
ATOM     33  C   UNL     1       5.219  -7.305   3.115  0.00  0.00    +0.045 A 
ATOM     34  F   UNL     1       6.465  -9.314   2.949  0.00  0.00    -0.205 F 
ENDBRANCH  27  28
ENDBRANCH  26  27
ENDBRANCH  10  26
TORSDOF 7
