REMARK  Name = ZINC01874485
REMARK  12 active torsions:
REMARK  status: ('A' for Active; 'I' for Inactive)
REMARK    1  A    between atoms: C_1  and  N_2
REMARK    2  A    between atoms: N_2  and  C_3
REMARK    3  A    between atoms: N_2  and  C_4
REMARK    4  A    between atoms: C_4  and  C_5
REMARK    5  A    between atoms: C_5  and  C_6
REMARK    6  A    between atoms: C_6  and  N_7
REMARK    7  A    between atoms: C_8  and  C_10
REMARK    8  A    between atoms: C_10  and  N_30
REMARK    9  A    between atoms: C_11  and  C_12
REMARK   10  A    between atoms: N_14  and  C_24
REMARK   11  A    between atoms: C_16  and  C_17
REMARK   12  A    between atoms: C_31  and  C_33
REMARK                            x       y       z     vdW  Elec       q    Type
REMARK                         _______ _______ _______ _____ _____    ______ ____
ROOT
ATOM      1  C   UNL     1      -3.826  -6.289  -0.586  0.00  0.00    +0.097 C 
ATOM      2  C   UNL     1      -5.041  -6.887  -0.544  0.00  0.00    +0.040 C 
ENDROOT
BRANCH   2   3
ATOM      3  C   UNL     1      -5.190  -8.279  -0.985  0.00  0.00    +0.023 A 
ATOM      4  C   UNL     1      -4.178  -9.199  -1.178  0.00  0.00    +0.123 A 
ATOM      5  N   UNL     1      -4.742 -10.354  -1.583  0.00  0.00    -0.239 N 
ATOM      6  N   UNL     1      -6.129 -10.197  -1.658  0.00  0.00    -0.166 NA
ATOM      7  C   UNL     1      -6.444  -8.971  -1.303  0.00  0.00    +0.100 A 
BRANCH   7   8
ATOM      8  C   UNL     1      -7.809  -8.396  -1.239  0.00  0.00    +0.003 A 
ATOM      9  C   UNL     1      -8.128  -7.460  -0.256  0.00  0.00    +0.011 A 
ATOM     10  C   UNL     1      -9.400  -6.928  -0.201  0.00  0.00    +0.016 A 
ATOM     11  C   UNL     1     -10.358  -7.321  -1.119  0.00  0.00    +0.018 A 
ATOM     12  C   UNL     1     -10.046  -8.250  -2.098  0.00  0.00    +0.016 A 
ATOM     13  C   UNL     1      -8.776  -8.784  -2.165  0.00  0.00    +0.011 A 
ATOM     14 BR   UNL     1     -12.099  -6.588  -1.038  0.00  0.00    -0.050 Br
ENDBRANCH   7   8
BRANCH   5  15
ATOM     15  C   UNL     1      -4.045 -11.531  -1.883  0.00  0.00    +0.065 A 
ATOM     16  C   UNL     1      -2.657 -11.538  -1.878  0.00  0.00    +0.028 A 
ATOM     17  C   UNL     1      -1.972 -12.701  -2.174  0.00  0.00    +0.002 A 
ATOM     18  C   UNL     1      -2.669 -13.857  -2.475  0.00  0.00    +0.000 A 
ATOM     19  C   UNL     1      -4.052 -13.853  -2.480  0.00  0.00    +0.002 A 
ATOM     20  C   UNL     1      -4.742 -12.695  -2.180  0.00  0.00    +0.028 A 
ENDBRANCH   5  15
ENDBRANCH   2   3
BRANCH   1  22
ATOM     21  N   UNL     1      -2.442  -4.350  -0.071  0.00  0.00    -0.310 N 
ATOM     22  C   UNL     1      -3.650  -4.944  -0.029  0.00  0.00    +0.258 C 
ATOM     23  O   UNL     1      -4.597  -4.364   0.470  0.00  0.00    -0.269 OA
ATOM     24  H   UNL     1      -1.687  -4.812  -0.469  0.00  0.00    +0.149 HD
BRANCH  21  25
ATOM     25  C   UNL     1      -2.266  -3.006   0.485  0.00  0.00    +0.103 C 
BRANCH  25  26
ATOM     26  C   UNL     1      -0.811  -2.567   0.311  0.00  0.00    +0.000 C 
BRANCH  26  27
ATOM     27  C   UNL     1      -0.628  -1.163   0.891  0.00  0.00    -0.078 C 
BRANCH  27  29
ATOM     28  C   UNL     1       0.919   0.648   1.172  0.00  0.00    -0.097 C 
ATOM     29  N   UNL     1       0.769  -0.743   0.725  0.00  0.00    +0.376 N 
ATOM     30  C   UNL     1       1.641  -1.611   1.526  0.00  0.00    -0.097 C 
ATOM     31  H   UNL     1       1.028  -0.812  -0.248  0.00  0.00    -0.083 HD
ENDBRANCH  27  29
ENDBRANCH  26  27
ENDBRANCH  25  26
ENDBRANCH  21  25
ENDBRANCH   1  22
BRANCH   1  32
ATOM     32  N   UNL     1      -2.736  -6.957  -1.161  0.00  0.00    -0.277 N 
ATOM     33  C   UNL     1      -1.627  -7.190  -0.431  0.00  0.00    +0.248 C 
ATOM     34  O   UNL     1      -1.602  -6.893   0.748  0.00  0.00    -0.270 OA
ATOM     35  H   UNL     1      -2.780  -7.251  -2.084  0.00  0.00    +0.155 HD
BRANCH  33  36
ATOM     36  C   UNL     1      -0.442  -7.806  -1.064  0.00  0.00    +0.037 A 
ATOM     37  C   UNL     1      -0.424  -8.040  -2.440  0.00  0.00    +0.013 A 
ATOM     38  C   UNL     1       0.685  -8.616  -3.025  0.00  0.00    +0.001 A 
ATOM     39  C   UNL     1       1.778  -8.961  -2.250  0.00  0.00    +0.000 A 
ATOM     40  C   UNL     1       1.767  -8.732  -0.885  0.00  0.00    +0.001 A 
ATOM     41  C   UNL     1       0.666  -8.152  -0.289  0.00  0.00    +0.013 A 
ENDBRANCH  33  36
ENDBRANCH   1  32
TORSDOF 10
