REMARK  Name = ZINC08960159
REMARK  10 active torsions:
REMARK  status: ('A' for Active; 'I' for Inactive)
REMARK    1  A    between atoms: C_1  and  C_2
REMARK    2  A    between atoms: C_2  and  O_3
REMARK    3  A    between atoms: O_3  and  C_4
REMARK    4  A    between atoms: C_11  and  C_13
REMARK    5  A    between atoms: N_15  and  C_16
REMARK    6  A    between atoms: C_16  and  C_17
REMARK    7  A    between atoms: C_17  and  C_18
REMARK    8  A    between atoms: C_18  and  N_55
REMARK    9  A    between atoms: C_19  and  N_55
REMARK   10  A    between atoms: C_20  and  N_55
REMARK                            x       y       z     vdW  Elec       q    Type
REMARK                         _______ _______ _______ _____ _____    ______ ____
ROOT
ATOM      1  C   UNL     1       4.806   2.707   0.204  0.00  0.00    +0.288 C 
ATOM      2  O   UNL     1       5.500   1.710   0.262  0.00  0.00    -0.266 OA
ATOM      3  N   UNL     1       5.355   3.892  -0.131  0.00  0.00    -0.244 N 
ATOM      4  C   UNL     1       6.690   3.959  -0.487  0.00  0.00    +0.168 A 
ATOM      5  N   UNL     1       7.574   2.990  -0.558  0.00  0.00    -0.224 NA
ATOM      6  C   UNL     1       8.856   3.203  -0.924  0.00  0.00    +0.080 A 
ATOM      7  C   UNL     1       9.899   2.255  -1.041  0.00  0.00    +0.030 A 
ATOM      8  C   UNL     1      11.156   2.640  -1.428  0.00  0.00    +0.017 A 
ATOM      9  C   UNL     1      11.451   3.965  -1.720  0.00  0.00    +0.019 A 
ATOM     10  C   UNL     1      10.454   4.919  -1.617  0.00  0.00    +0.032 A 
ATOM     11  C   UNL     1       9.192   4.542  -1.229  0.00  0.00    +0.042 A 
ATOM     12  S   UNL     1       7.650   5.386  -0.975  0.00  0.00    -0.052 S 
ATOM     13 BR   UNL     1      13.196   4.461  -2.252  0.00  0.00    -0.050 Br
ENDROOT
BRANCH   1  21
ATOM     14  C   UNL     1       0.073   3.941   1.065  0.00  0.00    +0.163 A 
ATOM     15  C   UNL     1      -1.077   3.228   1.350  0.00  0.00    +0.049 A 
ATOM     16  C   UNL     1      -1.047   1.843   1.440  0.00  0.00    +0.004 A 
ATOM     17  C   UNL     1       0.124   1.162   1.261  0.00  0.00    +0.012 A 
ATOM     18  C   UNL     1       1.298   1.863   0.973  0.00  0.00    +0.025 A 
ATOM     19  C   UNL     1       1.277   3.265   0.872  0.00  0.00    +0.177 A 
ATOM     20  O   UNL     1       2.530   3.674   0.590  0.00  0.00    -0.447 OA
ATOM     21  C   UNL     1       3.369   2.621   0.499  0.00  0.00    +0.191 A 
ATOM     22  C   UNL     1       2.684   1.469   0.723  0.00  0.00    +0.063 A 
BRANCH  14  23
ATOM     23  O   UNL     1       0.029   5.297   0.972  0.00  0.00    -0.489 OA
BRANCH  23  25
ATOM     24  C   UNL     1      -1.092   7.437   1.038  0.00  0.00    +0.048 C 
ATOM     25  C   UNL     1      -1.240   5.921   1.181  0.00  0.00    +0.226 C 
ENDBRANCH  23  25
ENDBRANCH  14  23
ENDBRANCH   1  21
BRANCH   3  26
ATOM     26  C   UNL     1       4.538   5.108  -0.117  0.00  0.00    +0.114 C 
BRANCH  26  27
ATOM     27  C   UNL     1       4.475   5.663   1.307  0.00  0.00    +0.001 C 
BRANCH  27  28
ATOM     28  C   UNL     1       3.622   6.934   1.321  0.00  0.00    -0.078 C 
BRANCH  28  31
ATOM     29  C   UNL     1       2.954   8.805   2.705  0.00  0.00    -0.097 C 
ATOM     30  C   UNL     1       2.838   6.551   3.580  0.00  0.00    -0.097 C 
ATOM     31  N   UNL     1       3.588   7.470   2.699  0.00  0.00    +0.376 N 
ATOM     32  H   UNL     1       4.550   7.555   3.047  0.00  0.00    -0.083 HD
ENDBRANCH  28  31
ENDBRANCH  27  28
ENDBRANCH  26  27
ENDBRANCH   3  26
TORSDOF 7
