REMARK  Name = ZINC39692312
REMARK  9 active torsions:
REMARK  status: ('A' for Active; 'I' for Inactive)
REMARK    1  A    between atoms: C_1  and  C_2
REMARK    2  A    between atoms: C_5  and  N_8
REMARK    3  A    between atoms: C_9  and  C_32
REMARK    4  A    between atoms: C_12  and  S_13
REMARK    5  A    between atoms: S_13  and  C_14
REMARK    6  A    between atoms: C_14  and  C_15
REMARK    7  A    between atoms: C_21  and  C_29
REMARK    8  A    between atoms: C_23  and  C_28
REMARK    9  A    between atoms: C_36  and  C_38
REMARK                            x       y       z     vdW  Elec       q    Type
REMARK                         _______ _______ _______ _____ _____    ______ ____
ROOT
ATOM      1  N   UNL     1       0.766  -4.535   0.921  0.00  0.00    -0.270 N 
ATOM      2  C   UNL     1      -0.053  -5.406   1.607  0.00  0.00    +0.169 A 
ATOM      3  N   UNL     1       0.358  -6.621   1.328  0.00  0.00    -0.128 NA
ATOM      4  N   UNL     1       1.363  -6.572   0.529  0.00  0.00    -0.122 NA
ATOM      5  C   UNL     1       1.653  -5.323   0.241  0.00  0.00    +0.197 A 
ENDROOT
BRANCH   1  10
ATOM      6  C   UNL     1       0.496   1.134   0.904  0.00  0.00    +0.044 C 
ATOM      7  C   UNL     1       0.568  -0.371   0.909  0.00  0.00    -0.050 A 
ATOM      8  C   UNL     1       0.256  -1.080  -0.237  0.00  0.00    +0.005 A 
ATOM      9  C   UNL     1       0.321  -2.460  -0.236  0.00  0.00    +0.026 A 
ATOM     10  C   UNL     1       0.699  -3.135   0.917  0.00  0.00    +0.051 A 
ATOM     11  C   UNL     1       1.012  -2.420   2.066  0.00  0.00    +0.026 A 
ATOM     12  C   UNL     1       0.951  -1.040   2.057  0.00  0.00    +0.005 A 
ENDBRANCH   1  10
BRANCH   2  13
ATOM     13  C   UNL     1      -1.182  -5.041   2.488  0.00  0.00    +0.020 A 
ATOM     14  C   UNL     1      -1.742  -3.764   2.419  0.00  0.00    +0.011 A 
ATOM     15  C   UNL     1      -2.795  -3.429   3.244  0.00  0.00    +0.001 A 
ATOM     16  C   UNL     1      -3.296  -4.356   4.141  0.00  0.00    +0.003 A 
ATOM     17  C   UNL     1      -2.746  -5.624   4.215  0.00  0.00    -0.050 A 
ATOM     18  C   UNL     1      -1.696  -5.973   3.391  0.00  0.00    +0.015 A 
ATOM     19  C   UNL     1      -3.298  -6.627   5.195  0.00  0.00    +0.044 C 
ENDBRANCH   2  13
BRANCH   5  20
ATOM     20  S   UNL     1       2.946  -4.767  -0.819  0.00  0.00    -0.078 S 
BRANCH  20  21
ATOM     21  C   UNL     1       3.735  -6.298  -1.389  0.00  0.00    +0.151 C 
BRANCH  21  22
ATOM     22  C   UNL     1       4.874  -5.961  -2.317  0.00  0.00    +0.124 A 
ATOM     23  N   UNL     1       5.595  -6.964  -2.855  0.00  0.00    -0.310 N 
ATOM     24  C   UNL     1       6.615  -6.682  -3.696  0.00  0.00    +0.259 A 
ATOM     25  O   UNL     1       7.277  -7.577  -4.197  0.00  0.00    -0.267 OA
ATOM     26  C   UNL     1       6.894  -5.343  -3.977  0.00  0.00    +0.096 A 
ATOM     27  H   UNL     1       5.383  -7.886  -2.639  0.00  0.00    +0.170 HD
ATOM     28  C   UNL     1       7.920  -4.665  -4.859  0.00  0.00    +0.183 C 
ATOM     29  C   UNL     1       7.349  -3.231  -4.964  0.00  0.00    +0.191 C 
ATOM     30  O   UNL     1       6.560  -3.118  -3.766  0.00  0.00    -0.472 OA
ATOM     31  C   UNL     1       6.134  -4.348  -3.393  0.00  0.00    +0.226 A 
ATOM     32  N   UNL     1       5.126  -4.709  -2.576  0.00  0.00    -0.199 NA
ATOM     33  C   UNL     1       8.476  -2.196  -4.975  0.00  0.00    +0.053 C 
BRANCH  28  34
ATOM     34  C   UNL     1       9.277  -4.659  -4.203  0.00  0.00    +0.367 C 
ATOM     35  O   UNL     1      10.281  -4.813  -4.877  0.00  0.00    -0.246 OA
ATOM     36  O   UNL     1       9.370  -4.501  -2.998  0.00  0.00    -0.246 OA
ENDBRANCH  28  34
ENDBRANCH  21  22
ENDBRANCH  20  21
ENDBRANCH   5  20
TORSDOF 6
