REMARK  Name = ZINC39453499
REMARK  5 active torsions:
REMARK  status: ('A' for Active; 'I' for Inactive)
REMARK    1  A    between atoms: C_1  and  C_2
REMARK    2  A    between atoms: C_2  and  O_3
REMARK    3  A    between atoms: O_3  and  N_4
REMARK    4  A    between atoms: C_18  and  O_19
REMARK    5  A    between atoms: C_21  and  O_26
REMARK                            x       y       z     vdW  Elec       q    Type
REMARK                         _______ _______ _______ _____ _____    ______ ____
ROOT
ATOM      1  N   UNL     1       0.745  -1.875  -1.279  0.00  0.00    -0.138 N 
ATOM      2  C   UNL     1       1.838  -2.533  -0.725  0.00  0.00    +0.150 A 
ATOM      3  C   UNL     1       1.956  -3.906  -0.806  0.00  0.00    +0.086 A 
ATOM      4  C   UNL     1       0.910  -4.694  -1.482  0.00  0.00    +0.100 A 
ATOM      5  C   UNL     1      -0.195  -3.997  -2.037  0.00  0.00    +0.070 A 
ATOM      6  C   UNL     1      -0.246  -2.532  -1.906  0.00  0.00    +0.293 A 
ATOM      7  O   UNL     1      -1.186  -1.914  -2.370  0.00  0.00    -0.264 OA
ATOM      8  C   UNL     1      -1.206  -4.691  -2.686  0.00  0.00    +0.029 A 
ATOM      9  C   UNL     1      -1.093  -6.085  -2.769  0.00  0.00    +0.043 A 
ATOM     10  C   UNL     1       0.074  -6.739  -2.171  0.00  0.00    +0.075 A 
ATOM     11  N   UNL     1       1.008  -6.008  -1.562  0.00  0.00    -0.244 NA
ATOM     12  C   UNL     1       0.179  -8.138  -2.256  0.00  0.00    +0.028 A 
ATOM     13  C   UNL     1      -0.793  -8.854  -2.887  0.00  0.00    +0.006 A 
ATOM     14  C   UNL     1      -1.902  -8.241  -3.458  0.00  0.00    +0.046 A 
ATOM     15  C   UNL     1      -2.069  -6.874  -3.410  0.00  0.00    +0.126 A 
ATOM     16  N   UNL     1       3.057  -4.538  -0.261  0.00  0.00    -0.315 N 
ATOM     17  C   UNL     1       4.310  -3.776  -0.144  0.00  0.00    +0.207 C 
ATOM     18  C   UNL     1       4.008  -2.464   0.589  0.00  0.00    +0.132 C 
ATOM     19  C   UNL     1       2.841  -1.780  -0.073  0.00  0.00    +0.189 C 
ATOM     20  O   UNL     1       2.762  -0.568  -0.048  0.00  0.00    -0.290 OA
ATOM     21  H   UNL     1       3.005  -5.459   0.038  0.00  0.00    +0.149 HD
ENDROOT
BRANCH  15  22
ATOM     22  O   UNL     1      -3.160  -6.295  -3.973  0.00  0.00    -0.506 OA
ATOM     23  H   UNL     1      -3.039  -6.048  -4.900  0.00  0.00    +0.292 HD
ENDBRANCH  15  22
BRANCH  17  24
ATOM     24  O   UNL     1       4.825  -3.493  -1.446  0.00  0.00    -0.374 OA
ATOM     25  H   UNL     1       5.021  -4.281  -1.972  0.00  0.00    +0.212 HD
ENDBRANCH  17  24
BRANCH   1  26
ATOM     26  O   UNL     1       0.671  -0.465  -1.174  0.00  0.00    -0.408 OA
BRANCH  26  28
ATOM     27  C   UNL     1      -0.019   1.526   0.010  0.00  0.00    +0.051 C 
ATOM     28  C   UNL     1       0.002  -0.004   0.002  0.00  0.00    +0.257 C 
ENDBRANCH  26  28
ENDBRANCH   1  26
TORSDOF 4
