REMARK  Name = ZINC23227601
REMARK  9 active torsions:
REMARK  status: ('A' for Active; 'I' for Inactive)
REMARK    1  A    between atoms: C_1  and  C_2
REMARK    2  A    between atoms: C_3  and  C_8
REMARK    3  A    between atoms: C_4  and  C_7
REMARK    4  A    between atoms: C_8  and  C_9
REMARK    5  A    between atoms: C_9  and  C_10
REMARK    6  A    between atoms: N_12  and  C_13
REMARK    7  A    between atoms: C_16  and  S_19
REMARK    8  A    between atoms: S_19  and  C_22
REMARK    9  A    between atoms: C_25  and  N_28
REMARK                            x       y       z     vdW  Elec       q    Type
REMARK                         _______ _______ _______ _____ _____    ______ ____
ROOT
ATOM      1  C   UNL     1      -1.446   3.733   2.680  0.00  0.00    +0.033 A 
ATOM      2  C   UNL     1      -1.854   2.780   3.604  0.00  0.00    +0.025 A 
ATOM      3  C   UNL     1      -2.423   3.177   4.798  0.00  0.00    +0.029 A 
ATOM      4  C   UNL     1      -2.598   4.522   5.069  0.00  0.00    +0.094 A 
ATOM      5  C   UNL     1      -2.198   5.473   4.149  0.00  0.00    +0.029 A 
ATOM      6  C   UNL     1      -1.622   5.082   2.955  0.00  0.00    +0.025 A 
ENDROOT
BRANCH   1   9
ATOM      7  C   UNL     1       0.114   4.078   0.917  0.00  0.00    +0.218 C 
ATOM      8  O   UNL     1       0.431   5.135   1.420  0.00  0.00    -0.275 OA
ATOM      9  N   UNL     1      -0.863   3.334   1.472  0.00  0.00    -0.285 N 
ATOM     10  H   UNL     1      -1.203   2.413   0.975  0.00  0.00    +0.155 HD
BRANCH   7  11
ATOM     11  C   UNL     1       0.814   3.596  -0.327  0.00  0.00    +0.101 C 
BRANCH  11  12
ATOM     12  C   UNL     1       1.872   4.618  -0.746  0.00  0.00    +0.049 C 
BRANCH  12  15
ATOM     13  C   UNL     1       1.050   5.194  -3.832  0.00  0.00    +0.069 C 
ATOM     14  C   UNL     1       2.220   4.382  -3.338  0.00  0.00    +0.084 A 
ATOM     15  C   UNL     1       2.571   4.136  -1.991  0.00  0.00    +0.018 A 
ATOM     16  C   UNL     1       3.686   3.371  -2.078  0.00  0.00    +0.138 A 
ATOM     17  O   UNL     1       3.928   3.201  -3.386  0.00  0.00    -0.359 OA
ATOM     18  N   UNL     1       3.107   3.770  -4.067  0.00  0.00    -0.083 NA
ATOM     19  C   UNL     1       4.494   2.819  -0.932  0.00  0.00    +0.089 C 
ENDBRANCH  12  15
ENDBRANCH  11  12
ENDBRANCH   7  11
ENDBRANCH   1   9
BRANCH   4  20
ATOM     20  S   UNL     1      -3.331   5.024   6.590  0.00  0.00    +0.025 S 
ATOM     21  O   UNL     1      -3.119   3.964   7.513  0.00  0.00    -0.164 OA
ATOM     22  O   UNL     1      -2.884   6.350   6.838  0.00  0.00    -0.164 OA
BRANCH  20  23
ATOM     23  C   UNL     1      -5.070   5.120   6.324  0.00  0.00    +0.094 A 
ATOM     24  C   UNL     1      -5.640   6.306   5.901  0.00  0.00    +0.029 A 
ATOM     25  C   UNL     1      -7.004   6.380   5.687  0.00  0.00    +0.034 A 
ATOM     26  C   UNL     1      -7.799   5.270   5.907  0.00  0.00    +0.126 A 
ATOM     27  C   UNL     1      -7.229   4.085   6.335  0.00  0.00    +0.034 A 
ATOM     28  C   UNL     1      -5.865   4.010   6.544  0.00  0.00    +0.029 A 
BRANCH  26  29
ATOM     29  N   UNL     1      -9.260   5.351   5.683  0.00  0.00    +0.056 N 
ATOM     30  O   UNL     1      -9.960   4.373   5.876  0.00  0.00    -0.126 OA
ATOM     31  O   UNL     1      -9.762   6.394   5.306  0.00  0.00    -0.126 OA
ENDBRANCH  26  29
ENDBRANCH  20  23
ENDBRANCH   4  20
TORSDOF 7
