REMARK  Name = ZINC58398761
REMARK  6 active torsions:
REMARK  status: ('A' for Active; 'I' for Inactive)
REMARK    1  A    between atoms: C_1  and  C_2
REMARK    2  A    between atoms: C_2  and  C_3
REMARK    3  A    between atoms: C_2  and  N_13
REMARK    4  A    between atoms: C_14  and  C_16
REMARK    5  A    between atoms: C_18  and  C_28
REMARK    6  A    between atoms: N_26  and  C_27
REMARK                            x       y       z     vdW  Elec       q    Type
REMARK                         _______ _______ _______ _____ _____    ______ ____
ROOT
ATOM      1  N   UNL     1       0.688  -0.476  -1.203  0.00  0.00    -0.305 N 
ATOM      2  C   UNL     1       2.031  -0.587  -1.215  0.00  0.00    +0.245 C 
ATOM      3  O   UNL     1       2.673  -0.295  -0.226  0.00  0.00    -0.270 OA
ATOM      4  H   UNL     1       0.175  -0.710  -1.993  0.00  0.00    +0.150 HD
ENDROOT
BRANCH   2   5
ATOM      5  C   UNL     1       2.725  -1.065  -2.435  0.00  0.00    +0.054 A 
ATOM      6  C   UNL     1       2.010  -1.401  -3.586  0.00  0.00    +0.037 A 
ATOM      7  C   UNL     1       2.697  -1.844  -4.702  0.00  0.00    +0.047 A 
ATOM      8  N   UNL     1       4.010  -1.955  -4.705  0.00  0.00    -0.232 NA
ATOM      9  C   UNL     1       4.743  -1.651  -3.644  0.00  0.00    +0.161 A 
ATOM     10  C   UNL     1       4.122  -1.189  -2.471  0.00  0.00    +0.096 A 
ATOM     11  C   UNL     1       5.196  -0.936  -1.495  0.00  0.00    +0.275 A 
ATOM     12  O   UNL     1       5.057  -0.530  -0.357  0.00  0.00    -0.266 OA
ATOM     13  N   UNL     1       6.361  -1.239  -2.103  0.00  0.00    -0.262 N 
ATOM     14  H   UNL     1       7.239  -1.169  -1.698  0.00  0.00    +0.190 HD
ATOM     15  N   UNL     1       6.103  -1.682  -3.404  0.00  0.00    -0.269 N 
ATOM     16  C   UNL     1       7.122  -2.100  -4.370  0.00  0.00    +0.172 C 
BRANCH   7  17
ATOM     17  C   UNL     1       1.926  -2.208  -5.945  0.00  0.00    +0.038 C 
ATOM     18  C   UNL     1       0.420  -2.438  -5.800  0.00  0.00    +0.010 C 
ATOM     19  C   UNL     1       1.357  -3.625  -6.034  0.00  0.00    +0.010 C 
ENDBRANCH   7  17
ENDBRANCH   2   5
BRANCH   1  21
ATOM     20  C   UNL     1      -0.019   1.526   0.010  0.00  0.00    +0.033 C 
ATOM     21  C   UNL     1       0.002  -0.004   0.002  0.00  0.00    +0.100 C 
BRANCH  21  22
ATOM     22  C   UNL     1      -1.412  -0.526   0.013  0.00  0.00    -0.027 A 
ATOM     23  C   UNL     1      -2.143  -0.570  -1.160  0.00  0.00    +0.007 A 
ATOM     24  C   UNL     1      -3.438  -1.046  -1.157  0.00  0.00    +0.024 A 
ATOM     25  C   UNL     1      -4.018  -1.488   0.030  0.00  0.00    +0.037 A 
ATOM     26  C   UNL     1      -3.273  -1.439   1.202  0.00  0.00    -0.017 A 
ATOM     27  C   UNL     1      -1.979  -0.967   1.195  0.00  0.00    +0.011 A 
ATOM     28  C   UNL     1      -4.165  -1.977   2.296  0.00  0.00    +0.133 C 
ATOM     29  C   UNL     1      -5.458  -2.315   1.585  0.00  0.00    +0.222 C 
ATOM     30  O   UNL     1      -6.458  -2.780   2.089  0.00  0.00    -0.275 OA
ATOM     31  N   UNL     1      -5.289  -2.004   0.288  0.00  0.00    -0.285 N 
ATOM     32  H   UNL     1      -5.971  -2.124  -0.390  0.00  0.00    +0.155 HD
ENDBRANCH  21  22
ENDBRANCH   1  21
TORSDOF 4
