REMARK  Name = ZINC14966396
REMARK  8 active torsions:
REMARK  status: ('A' for Active; 'I' for Inactive)
REMARK    1  A    between atoms: C_1  and  N_2
REMARK    2  A    between atoms: N_2  and  C_3
REMARK    3  A    between atoms: C_3  and  C_5
REMARK    4  A    between atoms: C_3  and  C_13
REMARK    5  A    between atoms: C_5  and  C_6
REMARK    6  A    between atoms: C_18  and  C_19
REMARK    7  A    between atoms: C_18  and  N_64
REMARK    8  A    between atoms: C_29  and  C_31
REMARK                            x       y       z     vdW  Elec       q    Type
REMARK                         _______ _______ _______ _____ _____    ______ ____
ROOT
ATOM      1  C   UNL     1       0.218   0.788   0.153  0.00  0.00    +0.083 C 
ENDROOT
BRANCH   1   2
ATOM      2  C   UNL     1      -0.019   1.756   1.315  0.00  0.00    +0.006 C 
ATOM      3  C   UNL     1       0.649   1.210   2.579  0.00  0.00    -0.013 C 
ATOM      4  C   UNL     1       0.357   2.150   3.751  0.00  0.00    -0.078 C 
ATOM      5  C   UNL     1      -1.752   2.821   2.763  0.00  0.00    -0.078 C 
ATOM      6  C   UNL     1      -1.523   1.900   1.562  0.00  0.00    -0.013 C 
ATOM      7  N   UNL     1      -1.106   2.227   3.952  0.00  0.00    +0.383 N 
ATOM      8  H   UNL     1      -1.473   1.278   4.092  0.00  0.00    -0.081 HD
BRANCH   7   9
ATOM      9  C   UNL     1      -1.408   3.039   5.149  0.00  0.00    -0.025 C 
BRANCH   9  10
ATOM     10  C   UNL     1      -0.928   2.300   6.371  0.00  0.00    +0.000 A 
ATOM     11  C   UNL     1      -1.685   1.494   7.131  0.00  0.00    +0.029 A 
ATOM     12  C   UNL     1      -0.827   0.985   8.204  0.00  0.00    -0.000 A 
ATOM     13  C   UNL     1      -1.029   0.122   9.282  0.00  0.00    +0.010 A 
ATOM     14  C   UNL     1       0.005  -0.157  10.131  0.00  0.00    +0.001 A 
ATOM     15  C   UNL     1       1.255   0.410   9.930  0.00  0.00    +0.002 A 
ATOM     16  C   UNL     1       1.477   1.265   8.872  0.00  0.00    +0.026 A 
ATOM     17  C   UNL     1       0.439   1.563   7.995  0.00  0.00    +0.047 A 
ATOM     18  N   UNL     1       0.343   2.357   6.874  0.00  0.00    -0.360 N 
ATOM     19  H   UNL     1       1.069   2.878   6.497  0.00  0.00    +0.166 HD
ENDBRANCH   9  10
ENDBRANCH   7   9
ENDBRANCH   1   2
BRANCH   1  21
ATOM     20  C   UNL     1      -0.127   2.668  -1.516  0.00  0.00    +0.132 C 
ATOM     21  N   UNL     1      -0.425   1.309  -1.056  0.00  0.00    -0.294 N 
ATOM     22  C   UNL     1      -1.290   0.539  -1.744  0.00  0.00    +0.282 C 
ATOM     23  O   UNL     1      -1.590  -0.563  -1.326  0.00  0.00    -0.267 OA
BRANCH  22  24
ATOM     24  C   UNL     1      -1.870   1.030  -2.999  0.00  0.00    +0.189 A 
ATOM     25  C   UNL     1      -2.657   0.312  -3.854  0.00  0.00    +0.054 A 
ATOM     26  C   UNL     1      -2.985   1.169  -4.916  0.00  0.00    +0.042 A 
ATOM     27  C   UNL     1      -2.391   2.357  -4.667  0.00  0.00    +0.196 A 
ATOM     28  O   UNL     1      -1.724   2.271  -3.508  0.00  0.00    -0.458 OA
ENDBRANCH  22  24
ENDBRANCH   1  21
BRANCH   1  29
ATOM     29  C   UNL     1       1.721   0.642  -0.091  0.00  0.00    +0.059 C 
BRANCH  29  30
ATOM     30  C   UNL     1       1.959  -0.401  -1.153  0.00  0.00    -0.027 A 
ATOM     31  C   UNL     1       1.948  -1.742  -0.819  0.00  0.00    +0.005 A 
ATOM     32  C   UNL     1       2.161  -2.699  -1.794  0.00  0.00    +0.000 A 
ATOM     33  C   UNL     1       2.396  -2.314  -3.101  0.00  0.00    +0.001 A 
ATOM     34  C   UNL     1       2.412  -0.973  -3.434  0.00  0.00    +0.020 A 
ATOM     35  C   UNL     1       2.193  -0.015  -2.460  0.00  0.00    +0.044 A 
ATOM     36 CL   UNL     1       2.215   1.669  -2.878  0.00  0.00    -0.083 Cl
ENDBRANCH  29  30
ENDBRANCH   1  29
TORSDOF 7
