REMARK  Name = ZINC39337301
REMARK  12 active torsions:
REMARK  status: ('A' for Active; 'I' for Inactive)
REMARK    1  A    between atoms: C_1  and  C_2
REMARK    2  A    between atoms: C_2  and  C_4
REMARK    3  A    between atoms: C_2  and  C_14
REMARK    4  A    between atoms: C_7  and  C_10
REMARK    5  A    between atoms: C_10  and  C_11
REMARK    6  A    between atoms: C_11  and  C_12
REMARK    7  A    between atoms: C_11  and  C_13
REMARK    8  A    between atoms: C_14  and  O_16
REMARK    9  A    between atoms: O_16  and  C_17
REMARK   10  A    between atoms: C_17  and  C_19
REMARK   11  A    between atoms: C_17  and  C_29
REMARK   12  A    between atoms: C_38  and  C_40
REMARK                            x       y       z     vdW  Elec       q    Type
REMARK                         _______ _______ _______ _____ _____    ______ ____
ROOT
ATOM      1  C   UNL     1       1.020  -0.699   3.560  0.00  0.00    +0.194 C 
ENDROOT
BRANCH   1   2
ATOM      2  C   UNL     1       2.053   0.334   3.932  0.00  0.00    +0.002 A 
ATOM      3  C   UNL     1       1.873   1.651   3.618  0.00  0.00    +0.027 A 
ATOM      4  C   UNL     1       2.841   2.588   3.971  0.00  0.00    +0.112 A 
ATOM      5  N   UNL     1       3.936   2.244   4.605  0.00  0.00    -0.255 NA
ATOM      6  C   UNL     1       4.173   0.972   4.941  0.00  0.00    +0.071 A 
ATOM      7  C   UNL     1       3.226  -0.031   4.618  0.00  0.00    +0.007 A 
ATOM      8  C   UNL     1       3.478  -1.365   4.979  0.00  0.00    +0.010 A 
ATOM      9  C   UNL     1       4.625  -1.677   5.641  0.00  0.00    +0.001 A 
ATOM     10  C   UNL     1       5.555  -0.691   5.966  0.00  0.00    +0.002 A 
ATOM     11  C   UNL     1       5.349   0.609   5.621  0.00  0.00    +0.028 A 
ENDBRANCH   1   2
BRANCH   1  12
ATOM     12  C   UNL     1       0.074  -0.923   4.742  0.00  0.00    -0.022 C 
ATOM     13  C   UNL     1      -1.070  -1.843   4.310  0.00  0.00    -0.008 C 
ATOM     14  C   UNL     1      -2.399  -1.099   4.492  0.00  0.00    -0.009 C 
ATOM     15  C   UNL     1      -2.367   0.167   3.625  0.00  0.00    -0.015 C 
ATOM     16  C   UNL     1      -1.180   1.031   4.055  0.00  0.00    -0.078 C 
ATOM     17  N   UNL     1      -0.462   0.365   5.187  0.00  0.00    +0.385 N 
ATOM     18  C   UNL     1      -1.342   0.186   6.344  0.00  0.00    -0.070 C 
ATOM     19  C   UNL     1      -2.531  -0.697   5.967  0.00  0.00    -0.003 C 
ATOM     20  H   UNL     1       0.309   0.952   5.470  0.00  0.00    -0.081 HD
BRANCH  19  21
ATOM     21  C   UNL     1      -2.538  -1.933   6.829  0.00  0.00    -0.033 C 
ATOM     22  C   UNL     1      -3.570  -2.194   7.592  0.00  0.00    +0.004 C 
ENDBRANCH  19  21
ENDBRANCH   1  12
BRANCH   1  23
ATOM     23  O   UNL     1       0.272  -0.240   2.433  0.00  0.00    -0.458 OA
BRANCH  23  24
ATOM     24  C   UNL     1       0.739  -0.567   1.218  0.00  0.00    +0.315 C 
ATOM     25  O   UNL     1       1.750  -1.220   1.115  0.00  0.00    -0.250 OA
BRANCH  24  27
ATOM     26  C   UNL     1      -0.062   1.411  -0.046  0.00  0.00    +0.024 C 
ATOM     27  C   UNL     1       0.003  -0.118  -0.019  0.00  0.00    +0.125 C 
BRANCH  27  28
ATOM     28  C   UNL     1       0.730  -0.612  -1.243  0.00  0.00    -0.034 A 
ATOM     29  C   UNL     1       2.039  -0.230  -1.471  0.00  0.00    +0.005 A 
ATOM     30  C   UNL     1       2.705  -0.683  -2.594  0.00  0.00    +0.004 A 
ATOM     31  C   UNL     1       2.063  -1.518  -3.489  0.00  0.00    -0.047 A 
ATOM     32  C   UNL     1       0.754  -1.901  -3.261  0.00  0.00    +0.004 A 
ATOM     33  C   UNL     1       0.089  -1.451  -2.135  0.00  0.00    +0.005 A 
BRANCH  31  34
ATOM     34  C   UNL     1       2.789  -2.011  -4.714  0.00  0.00    +0.038 C 
BRANCH  34  35
ATOM     35  C   UNL     1       3.500  -3.327  -4.390  0.00  0.00    -0.013 C 
ATOM     36  C   UNL     1       4.133  -3.891  -5.663  0.00  0.00    +0.007 C 
ATOM     37  C   UNL     1       4.591  -3.074  -3.347  0.00  0.00    +0.007 C 
ENDBRANCH  34  35
ENDBRANCH  31  34
ENDBRANCH  27  28
ENDBRANCH  24  27
ENDBRANCH  23  24
ENDBRANCH   1  23
TORSDOF 9
