REMARK  Name = ZINC10858987
REMARK  10 active torsions:
REMARK  status: ('A' for Active; 'I' for Inactive)
REMARK    1  A    between atoms: C_1  and  C_2
REMARK    2  A    between atoms: C_4  and  S_28
REMARK    3  A    between atoms: C_6  and  N_9
REMARK    4  A    between atoms: C_7  and  C_8
REMARK    5  A    between atoms: C_10  and  C_12
REMARK    6  A    between atoms: C_12  and  O_13
REMARK    7  A    between atoms: O_13  and  N_14
REMARK    8  A    between atoms: S_28  and  N_31
REMARK    9  A    between atoms: N_31  and  C_32
REMARK   10  A    between atoms: N_31  and  C_33
REMARK                            x       y       z     vdW  Elec       q    Type
REMARK                         _______ _______ _______ _____ _____    ______ ____
ROOT
ATOM      1  N   UNL     1       7.591   3.384  -0.052  0.00  0.00    -0.282 N 
ATOM      2  C   UNL     1       6.249   3.259  -0.043  0.00  0.00    +0.258 C 
ATOM      3  O   UNL     1       5.548   4.249  -0.025  0.00  0.00    -0.272 OA
ATOM      4  H   UNL     1       8.152   2.595   0.014  0.00  0.00    +0.155 HD
ENDROOT
BRANCH   1  10
ATOM      5  C   UNL     1      11.419   6.359   0.761  0.00  0.00    +0.044 C 
ATOM      6  C   UNL     1      10.029   6.122   0.229  0.00  0.00    -0.044 A 
ATOM      7  C   UNL     1       9.329   7.157  -0.363  0.00  0.00    +0.032 A 
ATOM      8  C   UNL     1       8.054   6.943  -0.852  0.00  0.00    +0.107 A 
ATOM      9  C   UNL     1       7.475   5.693  -0.750  0.00  0.00    +0.052 A 
ATOM     10  C   UNL     1       8.175   4.651  -0.157  0.00  0.00    +0.039 A 
ATOM     11  C   UNL     1       9.454   4.871   0.339  0.00  0.00    -0.026 A 
ATOM     12  C   UNL     1      10.214   3.745   0.990  0.00  0.00    +0.046 C 
BRANCH   8  13
ATOM     13  S   UNL     1       7.166   8.266  -1.605  0.00  0.00    +0.060 S 
ATOM     14  O   UNL     1       8.137   9.195  -2.067  0.00  0.00    -0.153 OA
ATOM     15  O   UNL     1       6.208   7.672  -2.470  0.00  0.00    -0.153 OA
BRANCH  13  16
ATOM     16  N   UNL     1       6.314   9.028  -0.407  0.00  0.00    -0.183 NA
ATOM     17  C   UNL     1       6.920  10.142   0.328  0.00  0.00    +0.131 C 
ATOM     18  C   UNL     1       4.955   8.590  -0.082  0.00  0.00    +0.131 C 
ENDBRANCH  13  16
ENDBRANCH   8  13
ENDBRANCH   1  10
BRANCH   2  19
ATOM     19  C   UNL     1       5.619   1.890  -0.057  0.00  0.00    +0.358 C 
BRANCH  19  20
ATOM     20  O   UNL     1       4.196   2.019  -0.043  0.00  0.00    -0.384 OA
BRANCH  20  21
ATOM     21  N   UNL     1       3.505   0.784  -0.054  0.00  0.00    -0.083 NA
ATOM     22  C   UNL     1       2.204   0.766  -0.044  0.00  0.00    +0.118 C 
ATOM     23  C   UNL     1       1.306   1.945  -0.022  0.00  0.00    +0.012 A 
ATOM     24  C   UNL     1       1.556   3.312  -0.006  0.00  0.00    +0.011 A 
ATOM     25  C   UNL     1       0.502   4.206   0.013  0.00  0.00    +0.001 A 
ATOM     26  C   UNL     1      -0.803   3.746   0.017  0.00  0.00    +0.001 A 
ATOM     27  C   UNL     1      -1.068   2.390  -0.002  0.00  0.00    +0.009 A 
ATOM     28  C   UNL     1      -0.018   1.476  -0.018  0.00  0.00    -0.008 A 
ATOM     29  C   UNL     1       0.003  -0.005  -0.037  0.00  0.00    -0.008 A 
ATOM     30  C   UNL     1       1.339  -0.438  -0.054  0.00  0.00    +0.012 A 
ATOM     31  C   UNL     1       1.627  -1.798  -0.074  0.00  0.00    +0.011 A 
ATOM     32  C   UNL     1       0.597  -2.720  -0.079  0.00  0.00    +0.001 A 
ATOM     33  C   UNL     1      -0.720  -2.296  -0.062  0.00  0.00    +0.001 A 
ATOM     34  C   UNL     1      -1.022  -0.948  -0.042  0.00  0.00    +0.009 A 
ENDBRANCH  20  21
ENDBRANCH  19  20
ENDBRANCH   2  19
TORSDOF 6
