REMARK  Name = ZINC22536084
REMARK  16 active torsions:
REMARK  status: ('A' for Active; 'I' for Inactive)
REMARK    1  A    between atoms: C_1  and  C_2
REMARK    2  A    between atoms: C_5  and  C_8
REMARK    3  A    between atoms: C_8  and  N_9
REMARK    4  A    between atoms: N_9  and  C_10
REMARK    5  A    between atoms: N_9  and  S_26
REMARK    6  A    between atoms: C_10  and  C_11
REMARK    7  A    between atoms: N_13  and  C_14
REMARK    8  A    between atoms: C_14  and  C_16
REMARK    9  A    between atoms: C_14  and  C_17
REMARK   10  A    between atoms: C_19  and  C_25
REMARK   11  A    between atoms: C_20  and  C_24
REMARK   12  A    between atoms: C_22  and  C_23
REMARK   13  A    between atoms: S_26  and  C_29
REMARK   14  A    between atoms: C_30  and  C_37
REMARK   15  A    between atoms: C_32  and  C_36
REMARK   16  A    between atoms: C_34  and  C_35
REMARK                            x       y       z     vdW  Elec       q    Type
REMARK                         _______ _______ _______ _____ _____    ______ ____
ROOT
ATOM      1  N   UNL     1      -3.196   4.444  -0.960  0.00  0.00    -0.163 NA
ENDROOT
BRANCH   1   2
ATOM      2  S   UNL     1      -2.833   3.845   0.541  0.00  0.00    +0.062 S 
ATOM      3  O   UNL     1      -3.659   2.704   0.733  0.00  0.00    -0.153 OA
ATOM      4  O   UNL     1      -2.843   4.951   1.433  0.00  0.00    -0.153 OA
BRANCH   2   5
ATOM      5  C   UNL     1      -1.172   3.260   0.481  0.00  0.00    +0.111 A 
ATOM      6  C   UNL     1      -0.124   4.132   0.711  0.00  0.00    -0.024 A 
ATOM      7  C   UNL     1       1.179   3.674   0.660  0.00  0.00    +0.008 A 
ATOM      8  C   UNL     1       1.434   2.343   0.388  0.00  0.00    -0.050 A 
ATOM      9  C   UNL     1       0.386   1.471   0.161  0.00  0.00    +0.008 A 
ATOM     10  C   UNL     1      -0.917   1.930   0.208  0.00  0.00    -0.024 A 
ATOM     11  C   UNL     1      -2.060   0.979  -0.039  0.00  0.00    +0.046 C 
ATOM     12  C   UNL     1       2.855   1.843   0.337  0.00  0.00    +0.044 C 
ATOM     13  C   UNL     1      -0.403   5.582   1.014  0.00  0.00    +0.046 C 
ENDBRANCH   2   5
ENDBRANCH   1   2
BRANCH   1  14
ATOM     14  C   UNL     1      -3.906   3.607  -1.931  0.00  0.00    +0.145 C 
BRANCH  14  19
ATOM     15  C   UNL     1      -9.570   4.720  -1.657  0.00  0.00    +0.044 C 
ATOM     16  C   UNL     1      -8.093   4.429  -1.729  0.00  0.00    -0.050 A 
ATOM     17  C   UNL     1      -7.288   5.151  -2.590  0.00  0.00    +0.003 A 
ATOM     18  C   UNL     1      -5.933   4.884  -2.656  0.00  0.00    +0.005 A 
ATOM     19  C   UNL     1      -5.383   3.897  -1.859  0.00  0.00    -0.032 A 
ATOM     20  C   UNL     1      -6.189   3.173  -1.001  0.00  0.00    +0.005 A 
ATOM     21  C   UNL     1      -7.543   3.442  -0.932  0.00  0.00    +0.003 A 
ENDBRANCH  14  19
ENDBRANCH   1  14
BRANCH   1  22
ATOM     22  C   UNL     1      -2.808   5.811  -1.317  0.00  0.00    +0.205 C 
BRANCH  22  23
ATOM     23  C   UNL     1      -1.487   5.784  -2.042  0.00  0.00    +0.229 C 
ATOM     24  O   UNL     1      -0.926   4.728  -2.241  0.00  0.00    -0.274 OA
ATOM     25  N   UNL     1      -0.929   6.934  -2.470  0.00  0.00    -0.308 N 
ATOM     26  H   UNL     1      -1.438   7.893  -2.289  0.00  0.00    +0.149 HD
BRANCH  25  27
ATOM     27  C   UNL     1       0.354   6.908  -3.175  0.00  0.00    +0.100 C 
ATOM     28  C   UNL     1       1.496   6.905  -2.156  0.00  0.00    +0.033 C 
BRANCH  27  29
ATOM     29  C   UNL     1       0.469   8.127  -4.054  0.00  0.00    -0.024 A 
ATOM     30  C   UNL     1      -0.247   9.270  -3.749  0.00  0.00    +0.009 A 
ATOM     31  C   UNL     1      -0.138  10.389  -4.552  0.00  0.00    -0.047 A 
ATOM     32  C   UNL     1       0.680  10.363  -5.667  0.00  0.00    -0.047 A 
ATOM     33  C   UNL     1       1.392   9.219  -5.974  0.00  0.00    +0.007 A 
ATOM     34  C   UNL     1       1.287   8.101  -5.168  0.00  0.00    -0.045 A 
ATOM     35  C   UNL     1       2.063   6.854  -5.504  0.00  0.00    +0.044 C 
ATOM     36  C   UNL     1       0.795  11.582  -6.545  0.00  0.00    +0.044 C 
ATOM     37  C   UNL     1      -0.914  11.636  -4.216  0.00  0.00    +0.044 C 
ENDBRANCH  27  29
ENDBRANCH  25  27
ENDBRANCH  22  23
ENDBRANCH   1  22
TORSDOF 8
