REMARK  Name = ZINC05109037
REMARK  9 active torsions:
REMARK  status: ('A' for Active; 'I' for Inactive)
REMARK    1  A    between atoms: C_1  and  C_2
REMARK    2  A    between atoms: C_2  and  C_3
REMARK    3  A    between atoms: N_5  and  C_16
REMARK    4  A    between atoms: C_16  and  C_17
REMARK    5  A    between atoms: N_19  and  C_20
REMARK    6  A    between atoms: C_20  and  C_21
REMARK    7  A    between atoms: C_21  and  N_58
REMARK    8  A    between atoms: C_22  and  N_58
REMARK    9  A    between atoms: C_23  and  N_58
REMARK                            x       y       z     vdW  Elec       q    Type
REMARK                         _______ _______ _______ _____ _____    ______ ____
ROOT
ATOM      1  C   UNL     1       6.159   1.438   3.928  0.00  0.00    +0.243 C 
ENDROOT
BRANCH   1   4
ATOM      2  C   UNL     1       9.718   2.209   3.425  0.00  0.00    +0.135 A 
ATOM      3  N   UNL     1       8.571   1.620   3.386  0.00  0.00    -0.154 NA
ATOM      4  N   UNL     1       7.438   2.147   4.012  0.00  0.00    -0.217 N 
ATOM      5  C   UNL     1       7.522   3.308   4.700  0.00  0.00    +0.292 A 
ATOM      6  O   UNL     1       6.547   3.780   5.257  0.00  0.00    -0.264 OA
ATOM      7  C   UNL     1       8.823   3.981   4.756  0.00  0.00    +0.116 A 
ATOM      8  N   UNL     1       9.897   3.397   4.104  0.00  0.00    -0.291 N 
ATOM      9  C   UNL     1      11.023   4.194   4.284  0.00  0.00    +0.063 A 
ATOM     10  C   UNL     1      12.377   4.197   3.914  0.00  0.00    +0.034 A 
ATOM     11  C   UNL     1      13.184   5.202   4.309  0.00  0.00    +0.048 A 
ATOM     12  S   UNL     1      12.081   6.243   5.250  0.00  0.00    -0.095 S 
ATOM     13  C   UNL     1      10.603   5.278   5.063  0.00  0.00    +0.038 A 
ATOM     14  C   UNL     1       9.252   5.143   5.351  0.00  0.00    +0.048 A 
BRANCH   2  16
ATOM     15  C   UNL     1      10.445   0.282   2.044  0.00  0.00    +0.012 C 
ATOM     16  C   UNL     1      10.891   1.581   2.718  0.00  0.00    +0.073 C 
ENDBRANCH   2  16
ENDBRANCH   1   4
BRANCH   1  17
ATOM     17  C   UNL     1       5.397   1.918   2.719  0.00  0.00    +0.235 C 
ATOM     18  O   UNL     1       5.876   2.768   1.999  0.00  0.00    -0.274 OA
ATOM     19  N   UNL     1       4.184   1.401   2.439  0.00  0.00    -0.316 N 
ATOM     20  H   UNL     1       3.802   0.721   3.015  0.00  0.00    +0.149 HD
BRANCH  19  21
ATOM     21  C   UNL     1       3.444   1.868   1.264  0.00  0.00    +0.086 C 
BRANCH  21  22
ATOM     22  C   UNL     1       2.108   1.127   1.176  0.00  0.00    -0.060 C 
BRANCH  22  24
ATOM     23  C   UNL     1       2.056   1.218  -1.243  0.00  0.00    -0.096 C 
ATOM     24  N   UNL     1       1.364   1.623  -0.001  0.00  0.00    +0.381 N 
ATOM     25  H   UNL     1       1.323   2.648   0.038  0.00  0.00    -0.082 HD
BRANCH  24  26
ATOM     26  C   UNL     1      -0.013   1.086   0.008  0.00  0.00    -0.069 C 
ATOM     27  C   UNL     1      -0.729   1.579   1.267  0.00  0.00    -0.015 C 
ATOM     28  C   UNL     1      -2.164   1.050   1.278  0.00  0.00    -0.002 C 
ATOM     29  C   UNL     1      -2.904   1.556   0.038  0.00  0.00    -0.000 C 
ATOM     30  C   UNL     1      -2.188   1.063  -1.221  0.00  0.00    -0.002 C 
ATOM     31  C   UNL     1      -0.753   1.593  -1.232  0.00  0.00    -0.015 C 
ENDBRANCH  24  26
ENDBRANCH  22  24
ENDBRANCH  21  22
ENDBRANCH  19  21
ENDBRANCH   1  17
TORSDOF 7
