REMARK  Name = ZINC22754239
REMARK  12 active torsions:
REMARK  status: ('A' for Active; 'I' for Inactive)
REMARK    1  A    between atoms: C_1  and  N_2
REMARK    2  A    between atoms: N_2  and  C_3
REMARK    3  A    between atoms: N_2  and  C_4
REMARK    4  A    between atoms: C_4  and  C_6
REMARK    5  A    between atoms: C_4  and  C_28
REMARK    6  A    between atoms: C_6  and  N_7
REMARK    7  A    between atoms: C_8  and  C_10
REMARK    8  A    between atoms: C_13  and  S_16
REMARK    9  A    between atoms: S_16  and  N_19
REMARK   10  A    between atoms: N_19  and  C_20
REMARK   11  A    between atoms: C_25  and  O_26
REMARK   12  A    between atoms: O_26  and  C_27
REMARK                            x       y       z     vdW  Elec       q    Type
REMARK                         _______ _______ _______ _____ _____    ______ ____
ROOT
ATOM      1  C   UNL     1      -1.888   3.583   3.876  0.00  0.00    +0.037 A 
ATOM      2  C   UNL     1      -1.306   4.031   2.689  0.00  0.00    +0.015 A 
ATOM      3  C   UNL     1      -1.526   5.324   2.261  0.00  0.00    +0.029 A 
ATOM      4  C   UNL     1      -2.322   6.176   3.006  0.00  0.00    +0.109 A 
ATOM      5  C   UNL     1      -2.902   5.738   4.184  0.00  0.00    +0.029 A 
ATOM      6  C   UNL     1      -2.694   4.446   4.620  0.00  0.00    +0.015 A 
ENDROOT
BRANCH   1   8
ATOM      7  N   UNL     1      -0.877   1.368   3.619  0.00  0.00    -0.312 N 
ATOM      8  C   UNL     1      -1.656   2.199   4.340  0.00  0.00    +0.244 C 
ATOM      9  O   UNL     1      -2.168   1.809   5.371  0.00  0.00    -0.270 OA
ATOM     10  H   UNL     1      -0.468   1.678   2.796  0.00  0.00    +0.149 HD
BRANCH   7  11
ATOM     11  C   UNL     1      -0.647  -0.004   4.079  0.00  0.00    +0.097 C 
BRANCH  11  12
ATOM     12  C   UNL     1       0.165  -0.765   3.029  0.00  0.00    +0.016 C 
BRANCH  12  13
ATOM     13  C   UNL     1      -0.645  -0.897   1.766  0.00  0.00    +0.093 A 
ATOM     14  C   UNL     1      -1.336  -1.987   1.385  0.00  0.00    +0.043 A 
ATOM     15  C   UNL     1      -1.943  -1.675   0.147  0.00  0.00    +0.041 A 
ATOM     16  C   UNL     1      -1.587  -0.414  -0.155  0.00  0.00    +0.195 A 
ATOM     17  O   UNL     1      -0.805   0.054   0.832  0.00  0.00    -0.469 OA
ENDBRANCH  12  13
BRANCH  12  19
ATOM     18  C   UNL     1       2.234   0.025   3.952  0.00  0.00    -0.096 C 
ATOM     19  N   UNL     1       1.404  -0.029   2.741  0.00  0.00    +0.384 N 
ATOM     20  C   UNL     1       2.143  -0.713   1.672  0.00  0.00    -0.096 C 
ATOM     21  H   UNL     1       1.177   0.909   2.447  0.00  0.00    -0.082 HD
ENDBRANCH  12  19
ENDBRANCH  11  12
ENDBRANCH   7  11
ENDBRANCH   1   8
BRANCH   4  22
ATOM     22  S   UNL     1      -2.599   7.826   2.453  0.00  0.00    +0.072 S 
ATOM     23  O   UNL     1      -2.933   8.589   3.604  0.00  0.00    -0.150 OA
ATOM     24  O   UNL     1      -1.505   8.160   1.609  0.00  0.00    -0.150 OA
BRANCH  22  25
ATOM     25  N   UNL     1      -3.948   7.801   1.493  0.00  0.00    -0.213 N 
ATOM     26  H   UNL     1      -3.889   8.081   0.567  0.00  0.00    +0.174 HD
BRANCH  25  27
ATOM     27  C   UNL     1      -5.173   7.376   2.019  0.00  0.00    +0.090 A 
ATOM     28  C   UNL     1      -5.503   7.665   3.336  0.00  0.00    +0.028 A 
ATOM     29  C   UNL     1      -6.714   7.245   3.853  0.00  0.00    +0.002 A 
ATOM     30  C   UNL     1      -7.599   6.537   3.061  0.00  0.00    +0.004 A 
ATOM     31  C   UNL     1      -7.277   6.245   1.748  0.00  0.00    +0.047 A 
ATOM     32  C   UNL     1      -6.068   6.667   1.221  0.00  0.00    +0.142 A 
BRANCH  32  33
ATOM     33  O   UNL     1      -5.752   6.385  -0.072  0.00  0.00    -0.493 OA
ATOM     34  C   UNL     1      -6.718   5.654  -0.831  0.00  0.00    +0.277 C 
ENDBRANCH  32  33
ENDBRANCH  25  27
ENDBRANCH  22  25
ENDBRANCH   4  22
TORSDOF 9
