REMARK  Name = ZINC38689236
REMARK  12 active torsions:
REMARK  status: ('A' for Active; 'I' for Inactive)
REMARK    1  A    between atoms: C_1  and  C_2
REMARK    2  A    between atoms: C_4  and  C_12
REMARK    3  A    between atoms: C_12  and  C_14
REMARK    4  A    between atoms: C_14  and  O_15
REMARK    5  A    between atoms: O_15  and  C_16
REMARK    6  A    between atoms: C_16  and  C_18
REMARK    7  A    between atoms: C_21  and  S_24
REMARK    8  A    between atoms: S_24  and  N_27
REMARK    9  A    between atoms: N_27  and  C_28
REMARK   10  A    between atoms: N_27  and  C_29
REMARK   11  A    between atoms: C_34  and  O_35
REMARK   12  A    between atoms: O_35  and  C_36
REMARK                            x       y       z     vdW  Elec       q    Type
REMARK                         _______ _______ _______ _____ _____    ______ ____
ROOT
ATOM      1  C   UNL     1       0.795  -0.617  -7.386  0.00  0.00    +0.059 A 
ATOM      2  C   UNL     1      -0.352   0.166  -7.521  0.00  0.00    +0.017 A 
ATOM      3  C   UNL     1      -0.828   0.475  -8.779  0.00  0.00    +0.029 A 
ATOM      4  C   UNL     1      -0.171   0.011  -9.904  0.00  0.00    +0.109 A 
ATOM      5  C   UNL     1       0.967  -0.766  -9.777  0.00  0.00    +0.029 A 
ATOM      6  C   UNL     1       1.458  -1.077  -8.526  0.00  0.00    +0.017 A 
ENDROOT
BRANCH   4   7
ATOM      7  S   UNL     1      -0.785   0.411 -11.506  0.00  0.00    +0.075 S 
ATOM      8  O   UNL     1      -0.306  -0.595 -12.388  0.00  0.00    -0.150 OA
ATOM      9  O   UNL     1      -2.169   0.692 -11.352  0.00  0.00    -0.150 OA
BRANCH   7  10
ATOM     10  N   UNL     1      -0.063   1.828 -11.968  0.00  0.00    -0.203 N 
ATOM     11  C   UNL     1       1.206   1.799 -12.700  0.00  0.00    +0.158 C 
BRANCH  10  12
ATOM     12  C   UNL     1      -0.665   3.053 -11.659  0.00  0.00    +0.092 A 
ATOM     13  C   UNL     1      -1.488   3.677 -12.585  0.00  0.00    +0.028 A 
ATOM     14  C   UNL     1      -2.081   4.887 -12.278  0.00  0.00    +0.002 A 
ATOM     15  C   UNL     1      -1.857   5.478 -11.048  0.00  0.00    +0.004 A 
ATOM     16  C   UNL     1      -1.038   4.862 -10.120  0.00  0.00    +0.047 A 
ATOM     17  C   UNL     1      -0.443   3.647 -10.418  0.00  0.00    +0.143 A 
BRANCH  17  18
ATOM     18  O   UNL     1       0.358   3.037  -9.504  0.00  0.00    -0.493 OA
ATOM     19  C   UNL     1       0.540   3.704  -8.253  0.00  0.00    +0.277 C 
ENDBRANCH  17  18
ENDBRANCH  10  12
ENDBRANCH   7  10
ENDBRANCH   4   7
BRANCH   1  20
ATOM     20  C   UNL     1       1.311  -0.953  -6.043  0.00  0.00    +0.340 C 
ATOM     21  O   UNL     1       2.312  -1.630  -5.928  0.00  0.00    -0.245 OA
BRANCH  20  22
ATOM     22  O   UNL     1       0.670  -0.507  -4.945  0.00  0.00    -0.453 OA
BRANCH  22  23
ATOM     23  C   UNL     1       1.223  -0.869  -3.678  0.00  0.00    +0.311 C 
BRANCH  23  24
ATOM     24  C   UNL     1       0.379  -0.286  -2.575  0.00  0.00    +0.199 C 
ATOM     25  O   UNL     1      -0.602   0.376  -2.847  0.00  0.00    -0.289 OA
BRANCH  24  28
ATOM     26  C   UNL     1      -0.019   1.526   0.010  0.00  0.00    +0.035 C 
ATOM     27  C   UNL     1       0.002  -0.004   0.002  0.00  0.00    +0.111 C 
ATOM     28  C   UNL     1       0.728  -0.508  -1.226  0.00  0.00    +0.029 C 
ATOM     29  C   UNL     1       1.805  -1.234  -0.750  0.00  0.00    +0.007 A 
ATOM     30  C   UNL     1       2.845  -1.946  -1.391  0.00  0.00    +0.010 A 
ATOM     31  C   UNL     1       3.789  -2.580  -0.660  0.00  0.00    +0.001 A 
ATOM     32  C   UNL     1       3.790  -2.566   0.744  0.00  0.00    +0.002 A 
ATOM     33  C   UNL     1       2.842  -1.915   1.453  0.00  0.00    +0.026 A 
ATOM     34  C   UNL     1       1.776  -1.199   0.733  0.00  0.00    +0.043 A 
ATOM     35  N   UNL     1       0.756  -0.505   1.155  0.00  0.00    -0.377 N 
ATOM     36  H   UNL     1       0.532  -0.344   2.085  0.00  0.00    +0.160 HD
ENDBRANCH  24  28
ENDBRANCH  23  24
ENDBRANCH  22  23
ENDBRANCH  20  22
ENDBRANCH   1  20
TORSDOF 9
