REMARK  Name = ZINC00875627
REMARK  6 active torsions:
REMARK  status: ('A' for Active; 'I' for Inactive)
REMARK    1  A    between atoms: C_1  and  C_2
REMARK    2  A    between atoms: C_5  and  C_8
REMARK    3  A    between atoms: C_13  and  C_18
REMARK    4  A    between atoms: C_13  and  C_19
REMARK    5  A    between atoms: C_25  and  O_28
REMARK    6  A    between atoms: C_26  and  C_27
REMARK                            x       y       z     vdW  Elec       q    Type
REMARK                         _______ _______ _______ _____ _____    ______ ____
ROOT
ATOM      1  C   UNL     1      -0.383   1.569   1.230  0.00  0.00    +0.058 C 
ATOM      2  C   UNL     1       0.250   1.068  -0.071  0.00  0.00    +0.081 C 
ATOM      3  C   UNL     1      -0.586   1.590  -1.245  0.00  0.00    +0.182 C 
ATOM      4  C   UNL     1      -0.042   1.014  -2.555  0.00  0.00    +0.094 C 
ATOM      5  C   UNL     1      -0.962   1.452  -3.700  0.00  0.00    +0.036 C 
ATOM      6  N   UNL     1      -2.335   1.044  -3.397  0.00  0.00    -0.294 N 
ATOM      7  C   UNL     1      -2.769   0.938  -2.133  0.00  0.00    +0.303 C 
ATOM      8  O   UNL     1      -3.923   0.609  -1.937  0.00  0.00    -0.253 OA
ATOM      9  N   UNL     1      -1.980   1.181  -1.075  0.00  0.00    -0.262 N 
ATOM     10  C   UNL     1      -0.507   0.790  -5.002  0.00  0.00    +0.031 C 
ATOM     11  C   UNL     1      -0.903   2.973  -3.852  0.00  0.00    +0.031 C 
ATOM     12  O   UNL     1      -0.497   3.014  -1.270  0.00  0.00    -0.468 OA
ATOM     13  C   UNL     1      -0.712   3.683  -0.107  0.00  0.00    +0.133 A 
ATOM     14  C   UNL     1      -0.666   3.046   1.121  0.00  0.00    +0.002 A 
ATOM     15  C   UNL     1      -0.886   3.768   2.283  0.00  0.00    +0.011 A 
ATOM     16  C   UNL     1      -1.155   5.120   2.224  0.00  0.00    +0.046 A 
ATOM     17  C   UNL     1      -1.205   5.763   0.995  0.00  0.00    +0.123 A 
ATOM     18  C   UNL     1      -0.985   5.045  -0.168  0.00  0.00    +0.033 A 
ATOM     19  C   UNL     1      -1.038   5.742  -1.503  0.00  0.00    +0.051 C 
ATOM     20  H   UNL     1      -2.943   0.846  -4.126  0.00  0.00    +0.151 HD
ATOM     21  H   UNL     1      -2.341   1.082  -0.180  0.00  0.00    +0.154 HD
ENDROOT
BRANCH   1  26
ATOM     22  C   UNL     1       3.253   0.623   5.622  0.00  0.00    +0.044 C 
ATOM     23  C   UNL     1       2.305   0.869   4.476  0.00  0.00    -0.050 A 
ATOM     24  C   UNL     1       1.049   0.292   4.482  0.00  0.00    +0.003 A 
ATOM     25  C   UNL     1       0.179   0.518   3.432  0.00  0.00    +0.004 A 
ATOM     26  C   UNL     1       0.565   1.322   2.376  0.00  0.00    -0.040 A 
ATOM     27  C   UNL     1       1.823   1.895   2.367  0.00  0.00    +0.004 A 
ATOM     28  C   UNL     1       2.691   1.673   3.420  0.00  0.00    +0.003 A 
ENDBRANCH   1  26
BRANCH  17  29
ATOM     29  O   UNL     1      -1.472   7.095   0.934  0.00  0.00    -0.506 OA
ATOM     30  H   UNL     1      -0.685   7.655   0.972  0.00  0.00    +0.292 HD
ENDBRANCH  17  29
TORSDOF 2
