REMARK  Name = ZINC59678350
REMARK  11 active torsions:
REMARK  status: ('A' for Active; 'I' for Inactive)
REMARK    1  A    between atoms: C_1  and  C_2
REMARK    2  A    between atoms: C_5  and  N_8
REMARK    3  A    between atoms: C_9  and  C_11
REMARK    4  A    between atoms: C_15  and  N_16
REMARK    5  A    between atoms: C_17  and  C_33
REMARK    6  A    between atoms: C_19  and  C_22
REMARK    7  A    between atoms: C_20  and  C_21
REMARK    8  A    between atoms: N_23  and  C_24
REMARK    9  A    between atoms: C_27  and  C_30
REMARK   10  A    between atoms: C_30  and  C_31
REMARK   11  A    between atoms: C_30  and  C_32
REMARK                            x       y       z     vdW  Elec       q    Type
REMARK                         _______ _______ _______ _____ _____    ______ ____
ROOT
ATOM      1  C   UNL     1      -0.027  -7.634   1.998  0.00  0.00    +0.072 A 
ATOM      2  C   UNL     1       1.279  -8.156   1.640  0.00  0.00    -0.023 A 
ATOM      3  C   UNL     1       1.588  -8.022   0.332  0.00  0.00    -0.004 A 
ATOM      4  S   UNL     1       0.179  -7.227  -0.383  0.00  0.00    -0.075 S 
ATOM      5  C   UNL     1      -0.788  -7.078   0.982  0.00  0.00    +0.097 A 
ATOM      6  C   UNL     1       2.853  -8.457  -0.343  0.00  0.00    +0.043 C 
ATOM      7  C   UNL     1       3.904  -8.739   0.740  0.00  0.00    +0.005 C 
ATOM      8  C   UNL     1       3.275  -9.616   1.826  0.00  0.00    +0.005 C 
ATOM      9  C   UNL     1       2.247  -8.806   2.619  0.00  0.00    +0.037 C 
ENDROOT
BRANCH   5  10
ATOM     10  N   UNL     1      -2.059  -6.522   1.073  0.00  0.00    -0.311 N 
ATOM     11  C   UNL     1      -2.321  -5.195   1.275  0.00  0.00    +0.022 A 
ATOM     12  C   UNL     1      -3.651  -5.009   1.310  0.00  0.00    +0.032 A 
ATOM     13  C   UNL     1      -4.265  -6.329   1.113  0.00  0.00    +0.014 A 
ATOM     14  C   UNL     1      -3.221  -7.217   0.968  0.00  0.00    +0.030 A 
ATOM     15  C   UNL     1      -3.347  -8.701   0.736  0.00  0.00    +0.064 C 
ATOM     16  C   UNL     1      -1.283  -4.114   1.433  0.00  0.00    +0.064 C 
BRANCH  13  17
ATOM     17  C   UNL     1      -5.700  -6.638   1.074  0.00  0.00    +0.121 C 
ATOM     18  N   UNL     1      -6.098  -7.867   0.891  0.00  0.00    -0.255 NA
BRANCH  18  19
ATOM     19  C   UNL     1      -7.436  -8.156   0.855  0.00  0.00    +0.064 A 
ATOM     20  C   UNL     1      -8.299  -7.601   1.802  0.00  0.00    +0.028 A 
ATOM     21  C   UNL     1      -9.645  -7.896   1.760  0.00  0.00    +0.006 A 
ATOM     22  C   UNL     1     -10.142  -8.739   0.781  0.00  0.00    -0.045 A 
ATOM     23  C   UNL     1      -9.292  -9.292  -0.161  0.00  0.00    +0.006 A 
ATOM     24  C   UNL     1      -7.944  -9.001  -0.134  0.00  0.00    +0.028 A 
BRANCH  22  25
ATOM     25  C   UNL     1     -11.614  -9.057   0.742  0.00  0.00    +0.013 C 
ATOM     26  C   UNL     1     -12.198  -8.603  -0.597  0.00  0.00    +0.012 C 
ATOM     27  C   UNL     1     -11.815 -10.566   0.899  0.00  0.00    +0.012 C 
ENDBRANCH  22  25
ENDBRANCH  18  19
ENDBRANCH  13  17
ENDBRANCH   5  10
BRANCH   1  29
ATOM     28  N   UNL     1      -0.180  -6.739   4.261  0.00  0.00    -0.281 N 
ATOM     29  C   UNL     1      -0.524  -7.697   3.377  0.00  0.00    +0.251 C 
ATOM     30  O   UNL     1      -1.245  -8.614   3.723  0.00  0.00    -0.270 OA
ATOM     31  H   UNL     1       0.374  -5.995   3.979  0.00  0.00    +0.155 HD
BRANCH  28  36
ATOM     32  C   UNL     1      -1.978  -7.061   9.632  0.00  0.00    +0.044 C 
ATOM     33  C   UNL     1      -1.501  -6.975   8.205  0.00  0.00    -0.050 A 
ATOM     34  C   UNL     1      -0.255  -6.445   7.925  0.00  0.00    +0.005 A 
ATOM     35  C   UNL     1       0.186  -6.365   6.619  0.00  0.00    +0.023 A 
ATOM     36  C   UNL     1      -0.624  -6.819   5.585  0.00  0.00    +0.034 A 
ATOM     37  C   UNL     1      -1.875  -7.351   5.870  0.00  0.00    +0.023 A 
ATOM     38  C   UNL     1      -2.307  -7.432   7.179  0.00  0.00    +0.005 A 
ENDBRANCH  28  36
ENDBRANCH   1  29
TORSDOF 6
