REMARK  Name = ZINC04736602
REMARK  5 active torsions:
REMARK  status: ('A' for Active; 'I' for Inactive)
REMARK    1  A    between atoms: C_1  and  C_2
REMARK    2  A    between atoms: C_11  and  S_13
REMARK    3  A    between atoms: S_13  and  C_14
REMARK    4  A    between atoms: C_14  and  C_15
REMARK    5  A    between atoms: N_17  and  C_18
REMARK                            x       y       z     vdW  Elec       q    Type
REMARK                         _______ _______ _______ _____ _____    ______ ____
ROOT
ATOM      1  C   UNL     1      13.589   2.364  -0.595  0.00  0.00    +0.045 C 
ATOM      2  C   UNL     1      12.267   1.822  -1.073  0.00  0.00    -0.029 A 
ATOM      3  C   UNL     1      12.191   1.137  -2.224  0.00  0.00    +0.051 A 
ATOM      4  S   UNL     1      10.462   0.722  -2.345  0.00  0.00    -0.077 S 
ATOM      5  C   UNL     1       9.890   1.481  -0.847  0.00  0.00    +0.116 A 
ATOM      6  C   UNL     1      11.060   2.036  -0.294  0.00  0.00    +0.075 A 
ATOM      7  C   UNL     1      10.894   2.726   0.948  0.00  0.00    +0.261 A 
ATOM      8  O   UNL     1      11.852   3.239   1.502  0.00  0.00    -0.267 OA
ATOM      9  N   UNL     1       9.667   2.806   1.495  0.00  0.00    -0.301 N 
ATOM     10  H   UNL     1       9.546   3.295   2.359  0.00  0.00    +0.171 HD
ATOM     11  C   UNL     1       8.585   2.233   0.892  0.00  0.00    +0.170 A 
ATOM     12  N   UNL     1       8.709   1.592  -0.252  0.00  0.00    -0.216 NA
ENDROOT
BRANCH  11  13
ATOM     13  S   UNL     1       7.000   2.360   1.651  0.00  0.00    -0.078 S 
BRANCH  13  14
ATOM     14  C   UNL     1       6.000   1.457   0.442  0.00  0.00    +0.173 C 
BRANCH  14  15
ATOM     15  C   UNL     1       4.563   1.435   0.895  0.00  0.00    +0.224 C 
ATOM     16  O   UNL     1       4.245   1.976   1.933  0.00  0.00    -0.275 OA
ATOM     17  N   UNL     1       3.630   0.814   0.146  0.00  0.00    -0.312 N 
ATOM     18  H   UNL     1       3.883   0.381  -0.684  0.00  0.00    +0.149 HD
BRANCH  17  19
ATOM     19  C   UNL     1       2.232   0.792   0.586  0.00  0.00    +0.073 C 
ATOM     20  C   UNL     1       1.453   1.995  -0.001  0.00  0.00    +0.022 C 
ATOM     21  C   UNL     1      -0.019   1.534   0.011  0.00  0.00    +0.002 C 
ATOM     22  C   UNL     1       0.002  -0.004   0.002  0.00  0.00    +0.002 C 
ATOM     23  C   UNL     1       1.486  -0.425  -0.014  0.00  0.00    +0.022 C 
ENDBRANCH  17  19
ENDBRANCH  14  15
ENDBRANCH  13  14
ENDBRANCH  11  13
TORSDOF 4
