REMARK  Name = ZINC23221760
REMARK  8 active torsions:
REMARK  status: ('A' for Active; 'I' for Inactive)
REMARK    1  A    between atoms: C_4  and  N_7
REMARK    2  A    between atoms: C_9  and  C_17
REMARK    3  A    between atoms: C_10  and  C_12
REMARK    4  A    between atoms: C_18  and  C_19
REMARK    5  A    between atoms: C_19  and  O_21
REMARK    6  A    between atoms: O_21  and  C_22
REMARK    7  A    between atoms: C_22  and  C_23
REMARK    8  A    between atoms: C_26  and  C_28
REMARK                            x       y       z     vdW  Elec       q    Type
REMARK                         _______ _______ _______ _____ _____    ______ ____
ROOT
ATOM      1  C   UNL     1      -9.429   3.895   0.072  0.00  0.00    +0.018 C 
ATOM      2  C   UNL     1      -8.116   4.227   0.067  0.00  0.00    +0.092 C 
ENDROOT
BRANCH   1   5
ATOM      3  N   UNL     1     -11.434   6.920   0.099  0.00  0.00    -0.239 N 
ATOM      4  C   UNL     1     -10.234   6.313   0.095  0.00  0.00    +0.123 A 
ATOM      5  C   UNL     1     -10.450   4.947   0.083  0.00  0.00    +0.021 A 
ATOM      6  C   UNL     1     -11.908   4.759   0.090  0.00  0.00    +0.107 A 
ATOM      7  N   UNL     1     -12.449   5.959   0.099  0.00  0.00    -0.165 NA
BRANCH   3  11
ATOM      8  C   UNL     1     -12.036  11.043   0.126  0.00  0.00    +0.000 A 
ATOM      9  C   UNL     1     -13.122  10.188   0.126  0.00  0.00    +0.002 A 
ATOM     10  C   UNL     1     -12.926   8.820   0.117  0.00  0.00    +0.028 A 
ATOM     11  C   UNL     1     -11.637   8.306   0.108  0.00  0.00    +0.065 A 
ATOM     12  C   UNL     1     -10.548   9.168   0.113  0.00  0.00    +0.028 A 
ATOM     13  C   UNL     1     -10.751  10.534   0.117  0.00  0.00    +0.002 A 
ENDBRANCH   3  11
BRANCH   6  14
ATOM     14  C   UNL     1     -12.627   3.471   0.086  0.00  0.00    +0.040 A 
ATOM     15  C   UNL     1     -13.803   3.137   0.706  0.00  0.00    +0.018 A 
ATOM     16  C   UNL     1     -14.291   1.857   0.554  0.00  0.00    +0.008 A 
ATOM     17  C   UNL     1     -13.589   0.966  -0.192  0.00  0.00    +0.046 A 
ATOM     18  S   UNL     1     -12.189   1.939  -0.720  0.00  0.00    -0.095 S 
ENDBRANCH   6  14
ENDBRANCH   1   5
BRANCH   2  19
ATOM     19  C   UNL     1      -7.131   3.212   0.057  0.00  0.00    +0.332 C 
ATOM     20  O   UNL     1      -7.463   2.041   0.053  0.00  0.00    -0.246 OA
BRANCH  19  21
ATOM     21  O   UNL     1      -5.822   3.543   0.051  0.00  0.00    -0.452 OA
BRANCH  21  22
ATOM     22  C   UNL     1      -4.881   2.467   0.041  0.00  0.00    +0.328 C 
BRANCH  22  23
ATOM     23  C   UNL     1      -3.481   3.024   0.036  0.00  0.00    +0.257 C 
ATOM     24  O   UNL     1      -3.306   4.224   0.042  0.00  0.00    -0.272 OA
ATOM     25  N   UNL     1      -2.424   2.189   0.027  0.00  0.00    -0.249 N 
ATOM     26  C   UNL     1      -1.171   2.687   0.022  0.00  0.00    +0.257 C 
ATOM     27  O   UNL     1      -0.996   3.891   0.028  0.00  0.00    -0.269 OA
ATOM     28  H   UNL     1      -2.582   1.101   0.022  0.00  0.00    +0.158 HD
BRANCH  26  29
ATOM     29  C   UNL     1      -0.022   1.780   0.012  0.00  0.00    +0.074 A 
ATOM     30  C   UNL     1       1.331   2.083   0.001  0.00  0.00    +0.021 A 
ATOM     31  C   UNL     1       2.208   1.028  -0.013  0.00  0.00    +0.008 A 
ATOM     32  C   UNL     1       1.719  -0.241  -0.016  0.00  0.00    +0.046 A 
ATOM     33  S   UNL     1       0.002  -0.004   0.002  0.00  0.00    -0.092 S 
ENDBRANCH  26  29
ENDBRANCH  22  23
ENDBRANCH  21  22
ENDBRANCH  19  21
ENDBRANCH   2  19
TORSDOF 8
