REMARK  Name = ZINC33959576
REMARK  12 active torsions:
REMARK  status: ('A' for Active; 'I' for Inactive)
REMARK    1  A    between atoms: C_4  and  C_7
REMARK    2  A    between atoms: N_9  and  C_10
REMARK    3  A    between atoms: C_10  and  C_11
REMARK    4  A    between atoms: C_11  and  C_12
REMARK    5  A    between atoms: C_12  and  C_13
REMARK    6  A    between atoms: C_13  and  C_14
REMARK    7  A    between atoms: C_14  and  C_16
REMARK    8  A    between atoms: C_14  and  N_35
REMARK    9  A    between atoms: N_18  and  N_19
REMARK   10  A    between atoms: C_20  and  C_21
REMARK   11  A    between atoms: C_24  and  C_26
REMARK   12  A    between atoms: C_29  and  N_32
REMARK                            x       y       z     vdW  Elec       q    Type
REMARK                         _______ _______ _______ _____ _____    ______ ____
ROOT
ATOM      1  C   UNL     1       7.215  -7.142  -0.065  0.00  0.00    +0.021 C 
ENDROOT
BRANCH   1   2
ATOM      2  N   UNL     1       7.951  -6.757  -1.277  0.00  0.00    +0.387 N 
ATOM      3  C   UNL     1       9.233  -7.470  -1.315  0.00  0.00    -0.078 C 
ATOM      4  C   UNL     1       9.969  -7.135  -2.615  0.00  0.00    -0.019 C 
ATOM      5  C   UNL     1      10.220  -5.625  -2.678  0.00  0.00    -0.004 C 
ATOM      6  C   UNL     1       8.882  -4.890  -2.562  0.00  0.00    -0.019 C 
ATOM      7  C   UNL     1       8.187  -5.308  -1.264  0.00  0.00    -0.078 C 
ATOM      8  H   UNL     1       7.408  -7.001  -2.091  0.00  0.00    -0.081 HD
ENDBRANCH   1   2
BRANCH   1   9
ATOM      9  C   UNL     1       6.908  -8.617  -0.112  0.00  0.00    +0.219 C 
ATOM     10  O   UNL     1       6.927  -9.205  -1.167  0.00  0.00    -0.276 OA
ATOM     11  N   UNL     1       6.612  -9.279   1.024  0.00  0.00    -0.208 N 
ATOM     12  H   UNL     1       6.596  -8.807   1.871  0.00  0.00    +0.177 HD
BRANCH  11  13
ATOM     13  N   UNL     1       6.349 -10.542   0.985  0.00  0.00    -0.185 NA
ATOM     14  C   UNL     1       6.057 -11.194   2.103  0.00  0.00    +0.176 C 
BRANCH  14  15
ATOM     15  C   UNL     1       5.774 -12.553   2.060  0.00  0.00    +0.148 A 
ATOM     16  C   UNL     1       5.429 -13.408   3.207  0.00  0.00    +0.051 A 
ATOM     17  C   UNL     1       5.235 -14.655   2.708  0.00  0.00    +0.050 A 
ATOM     18  C   UNL     1       5.447 -14.593   1.308  0.00  0.00    +0.136 A 
ATOM     19  O   UNL     1       5.759 -13.333   0.958  0.00  0.00    -0.454 OA
BRANCH  18  20
ATOM     20  C   UNL     1       5.341 -15.688   0.414  0.00  0.00    +0.017 A 
ATOM     21  C   UNL     1       4.995 -16.965   0.896  0.00  0.00    +0.014 A 
ATOM     22  C   UNL     1       4.896 -18.014   0.026  0.00  0.00    +0.033 A 
ATOM     23  C   UNL     1       5.134 -17.824  -1.327  0.00  0.00    +0.126 A 
ATOM     24  C   UNL     1       5.475 -16.570  -1.813  0.00  0.00    +0.033 A 
ATOM     25  C   UNL     1       5.575 -15.506  -0.962  0.00  0.00    +0.014 A 
BRANCH  23  26
ATOM     26  N   UNL     1       5.023 -18.968  -2.260  0.00  0.00    +0.056 N 
ATOM     27  O   UNL     1       4.700 -20.160  -1.805  0.00  0.00    -0.126 OA
ATOM     28  O   UNL     1       5.248 -18.793  -3.546  0.00  0.00    -0.126 OA
ENDBRANCH  23  26
ENDBRANCH  18  20
ENDBRANCH  14  15
ENDBRANCH  11  13
ENDBRANCH   1   9
BRANCH   1  29
ATOM     29  C   UNL     1       5.907  -6.351   0.010  0.00  0.00    -0.006 C 
BRANCH  29  30
ATOM     30  C   UNL     1       5.175  -6.699   1.308  0.00  0.00    +0.000 C 
BRANCH  30  31
ATOM     31  C   UNL     1       3.935  -5.814   1.446  0.00  0.00    +0.019 C 
BRANCH  31  32
ATOM     32  C   UNL     1       3.202  -6.161   2.744  0.00  0.00    +0.104 C 
BRANCH  32  35
ATOM     33  C   UNL     1       1.210  -5.444   3.950  0.00  0.00    +0.244 C 
ATOM     34  O   UNL     1       1.470  -6.265   4.808  0.00  0.00    -0.270 OA
ATOM     35  N   UNL     1       2.015  -5.314   2.876  0.00  0.00    -0.311 N 
ATOM     36  H   UNL     1       1.808  -4.659   2.192  0.00  0.00    +0.149 HD
BRANCH  33  40
ATOM     37  C   UNL     1      -2.232  -2.985   4.335  0.00  0.00    +0.000 A 
ATOM     38  C   UNL     1      -1.939  -3.919   5.314  0.00  0.00    +0.001 A 
ATOM     39  C   UNL     1      -0.823  -4.721   5.194  0.00  0.00    +0.013 A 
ATOM     40  C   UNL     1       0.012  -4.588   4.084  0.00  0.00    +0.037 A 
ATOM     41  C   UNL     1      -0.289  -3.644   3.101  0.00  0.00    +0.013 A 
ATOM     42  C   UNL     1      -1.408  -2.849   3.232  0.00  0.00    +0.001 A 
ENDBRANCH  33  40
ENDBRANCH  32  35
ENDBRANCH  31  32
ENDBRANCH  30  31
ENDBRANCH  29  30
ENDBRANCH   1  29
TORSDOF 12
