REMARK  Name = ZINC57649194
REMARK  8 active torsions:
REMARK  status: ('A' for Active; 'I' for Inactive)
REMARK    1  A    between atoms: C_1  and  C_2
REMARK    2  A    between atoms: C_2  and  C_3
REMARK    3  A    between atoms: C_6  and  C_9
REMARK    4  A    between atoms: C_11  and  C_14
REMARK    5  A    between atoms: C_14  and  S_15
REMARK    6  A    between atoms: S_15  and  C_16
REMARK    7  A    between atoms: C_18  and  C_23
REMARK    8  A    between atoms: C_20  and  N_22
REMARK                            x       y       z     vdW  Elec       q    Type
REMARK                         _______ _______ _______ _____ _____    ______ ____
ROOT
ATOM      1  C   UNL     1      -5.397  -1.995   0.043  0.00  0.00    +0.109 A 
ATOM      2  N   UNL     1      -6.193  -2.290  -0.976  0.00  0.00    -0.243 NA
ATOM      3  C   UNL     1      -7.410  -2.739  -0.781  0.00  0.00    +0.059 A 
ATOM      4  C   UNL     1      -7.876  -2.909   0.485  0.00  0.00    +0.071 A 
ATOM      5  S   UNL     1      -6.450  -2.390   1.433  0.00  0.00    -0.075 S 
ENDROOT
BRANCH   1   9
ATOM      6  C   UNL     1      -1.412  -0.526   0.013  0.00  0.00    -0.048 A 
ATOM      7  C   UNL     1      -2.048  -0.765   1.218  0.00  0.00    +0.004 A 
ATOM      8  C   UNL     1      -3.343  -1.242   1.234  0.00  0.00    +0.011 A 
ATOM      9  C   UNL     1      -4.010  -1.483   0.032  0.00  0.00    +0.007 A 
ATOM     10  C   UNL     1      -3.362  -1.240  -1.179  0.00  0.00    +0.011 A 
ATOM     11  C   UNL     1      -2.069  -0.758  -1.182  0.00  0.00    +0.004 A 
BRANCH   6  13
ATOM     12  C   UNL     1      -0.019   1.526   0.010  0.00  0.00    +0.009 C 
ATOM     13  C   UNL     1       0.002  -0.004   0.002  0.00  0.00    +0.032 C 
ENDBRANCH   6  13
ENDBRANCH   1   9
BRANCH   3  14
ATOM     14  C   UNL     1      -8.292  -3.065  -1.959  0.00  0.00    +0.133 C 
BRANCH  14  15
ATOM     15  S   UNL     1      -8.054  -4.801  -2.430  0.00  0.00    -0.080 S 
BRANCH  15  16
ATOM     16  C   UNL     1      -9.138  -5.023  -3.801  0.00  0.00    +0.190 A 
ATOM     17  N   UNL     1      -9.205  -6.211  -4.386  0.00  0.00    -0.227 NA
ATOM     18  C   UNL     1     -10.008  -6.417  -5.419  0.00  0.00    +0.044 A 
ATOM     19  C   UNL     1     -10.784  -5.375  -5.890  0.00  0.00    +0.066 A 
ATOM     20  C   UNL     1     -10.692  -4.135  -5.254  0.00  0.00    +0.121 A 
ATOM     21  N   UNL     1      -9.869  -4.000  -4.219  0.00  0.00    -0.207 NA
ATOM     22  C   UNL     1     -10.075  -7.772  -6.074  0.00  0.00    +0.066 C 
BRANCH  20  23
ATOM     23  N   UNL     1     -11.451  -3.062  -5.693  0.00  0.00    -0.343 N 
ATOM     24  H   UNL     1     -12.052  -3.169  -6.447  0.00  0.00    +0.144 HD
ATOM     25  H   UNL     1     -11.381  -2.204  -5.246  0.00  0.00    +0.144 HD
ENDBRANCH  20  23
ENDBRANCH  15  16
ENDBRANCH  14  15
ENDBRANCH   3  14
TORSDOF 6
