REMARK  Name = ZINC29548398
REMARK  9 active torsions:
REMARK  status: ('A' for Active; 'I' for Inactive)
REMARK    1  A    between atoms: C_1  and  C_2
REMARK    2  A    between atoms: C_5  and  N_9
REMARK    3  A    between atoms: C_6  and  C_8
REMARK    4  A    between atoms: C_13  and  C_15
REMARK    5  A    between atoms: C_15  and  C_17
REMARK    6  A    between atoms: C_15  and  S_18
REMARK    7  A    between atoms: S_18  and  C_19
REMARK    8  A    between atoms: C_22  and  C_25
REMARK    9  A    between atoms: N_23  and  C_24
REMARK                            x       y       z     vdW  Elec       q    Type
REMARK                         _______ _______ _______ _____ _____    ______ ____
ROOT
ATOM      1  N   UNL     1       1.531   5.737   1.972  0.00  0.00    -0.269 N 
ATOM      2  C   UNL     1       0.393   5.161   1.537  0.00  0.00    +0.310 C 
ATOM      3  O   UNL     1      -0.554   5.853   1.217  0.00  0.00    -0.252 OA
ATOM      4  N   UNL     1       0.305   3.819   1.456  0.00  0.00    -0.239 N 
ATOM      5  C   UNL     1      -0.833   3.243   1.021  0.00  0.00    +0.234 C 
ATOM      6  O   UNL     1      -1.778   3.932   0.702  0.00  0.00    -0.274 OA
ATOM      7  H   UNL     1       2.414   5.117   2.187  0.00  0.00    +0.156 HD
ATOM      8  H   UNL     1       1.163   3.193   1.745  0.00  0.00    +0.159 HD
ENDROOT
BRANCH   1  13
ATOM      9  C   UNL     1       1.769  11.360   2.691  0.00  0.00    +0.044 C 
ATOM     10  C   UNL     1       1.706   9.866   2.500  0.00  0.00    -0.050 A 
ATOM     11  C   UNL     1       0.853   9.327   1.555  0.00  0.00    +0.005 A 
ATOM     12  C   UNL     1       0.792   7.959   1.377  0.00  0.00    +0.024 A 
ATOM     13  C   UNL     1       1.590   7.124   2.149  0.00  0.00    +0.038 A 
ATOM     14  C   UNL     1       2.442   7.668   3.100  0.00  0.00    -0.029 A 
ATOM     15  C   UNL     1       2.502   9.038   3.269  0.00  0.00    +0.008 A 
ATOM     16  C   UNL     1       3.306   6.766   3.944  0.00  0.00    +0.045 C 
ENDBRANCH   1  13
BRANCH   5  17
ATOM     17  C   UNL     1      -0.931   1.742   0.931  0.00  0.00    +0.137 C 
ATOM     18  C   UNL     1      -0.244   1.262  -0.350  0.00  0.00    +0.029 C 
BRANCH  17  19
ATOM     19  S   UNL     1      -2.673   1.252   0.901  0.00  0.00    -0.074 S 
BRANCH  19  20
ATOM     20  C   UNL     1      -2.499  -0.501   0.947  0.00  0.00    +0.192 A 
ATOM     21  N   UNL     1      -1.369  -1.171   0.990  0.00  0.00    -0.122 NA
ATOM     22  N   UNL     1      -1.606  -2.434   1.016  0.00  0.00    -0.128 NA
ATOM     23  C   UNL     1      -2.901  -2.648   0.990  0.00  0.00    +0.167 A 
ATOM     24  N   UNL     1      -3.513  -1.416   0.950  0.00  0.00    -0.305 N 
ATOM     25  C   UNL     1      -4.952  -1.143   0.916  0.00  0.00    +0.153 C 
BRANCH  23  26
ATOM     26  C   UNL     1      -3.575  -3.963   1.006  0.00  0.00    +0.054 A 
ATOM     27  C   UNL     1      -4.609  -4.233   0.109  0.00  0.00    +0.014 A 
ATOM     28  C   UNL     1      -5.234  -5.463   0.129  0.00  0.00    +0.001 A 
ATOM     29  C   UNL     1      -4.838  -6.430   1.037  0.00  0.00    +0.003 A 
ATOM     30  C   UNL     1      -3.814  -6.171   1.930  0.00  0.00    +0.039 A 
ATOM     31  C   UNL     1      -3.175  -4.945   1.917  0.00  0.00    +0.134 A 
ATOM     32  F   UNL     1      -2.171  -4.695   2.786  0.00  0.00    -0.205 F 
ENDBRANCH  23  26
ENDBRANCH  19  20
ENDBRANCH  17  19
ENDBRANCH   5  17
TORSDOF 5
