REMARK  Name = ZINC41629241
REMARK  2 active torsions:
REMARK  status: ('A' for Active; 'I' for Inactive)
REMARK    1  A    between atoms: C_1  and  C_2
REMARK    2  A    between atoms: C_6  and  C_8
REMARK                            x       y       z     vdW  Elec       q    Type
REMARK                         _______ _______ _______ _____ _____    ______ ____
ROOT
ATOM      1  C   UNL     1       0.304   1.489  -0.002  0.00  0.00    +0.044 C 
ATOM      2  C   UNL     1       0.157  -0.010  -0.004  0.00  0.00    -0.049 A 
ATOM      3  C   UNL     1       0.006  -0.686  -1.202  0.00  0.00    +0.009 A 
ATOM      4  C   UNL     1      -0.130  -2.061  -1.214  0.00  0.00    -0.025 A 
ATOM      5  C   UNL     1      -0.116  -2.771  -0.023  0.00  0.00    +0.046 A 
ATOM      6  C   UNL     1       0.037  -2.091   1.190  0.00  0.00    +0.023 A 
ATOM      7  C   UNL     1       0.178  -0.705   1.189  0.00  0.00    +0.015 A 
ATOM      8  N   UNL     1      -0.253  -4.162  -0.036  0.00  0.00    -0.285 N 
ATOM      9  C   UNL     1      -0.029  -4.858  -1.166  0.00  0.00    +0.218 C 
ATOM     10  O   UNL     1      -0.167  -6.063  -1.164  0.00  0.00    -0.275 OA
ATOM     11  C   UNL     1       0.389  -4.159  -2.431  0.00  0.00    +0.101 C 
ATOM     12  C   UNL     1      -0.295  -2.793  -2.521  0.00  0.00    +0.046 C 
ATOM     13  H   UNL     1      -0.511  -4.628   0.774  0.00  0.00    +0.155 HD
ENDROOT
BRANCH   6  14
ATOM     14  C   UNL     1       0.054  -2.841   2.469  0.00  0.00    +0.082 A 
ATOM     15  C   UNL     1      -0.709  -2.425   3.523  0.00  0.00    +0.077 A 
ATOM     16  S   UNL     1      -0.299  -3.667   4.742  0.00  0.00    -0.060 S 
ATOM     17  C   UNL     1       0.836  -4.608   3.733  0.00  0.00    +0.156 A 
ATOM     18  N   UNL     1       0.807  -3.931   2.599  0.00  0.00    -0.225 NA
ATOM     19  N   UNL     1       1.554  -5.749   4.053  0.00  0.00    -0.338 N 
ATOM     20  H   UNL     1       1.471  -6.142   4.936  0.00  0.00    +0.144 HD
ATOM     21  H   UNL     1       2.139  -6.154   3.395  0.00  0.00    +0.144 HD
ENDBRANCH   6  14
TORSDOF 1
