REMARK  Name = ZINC63139210
REMARK  6 active torsions:
REMARK  status: ('A' for Active; 'I' for Inactive)
REMARK    1  A    between atoms: C_1  and  C_2
REMARK    2  A    between atoms: C_2  and  C_3
REMARK    3  A    between atoms: C_2  and  C_4
REMARK    4  A    between atoms: C_7  and  C_10
REMARK    5  A    between atoms: N_29  and  C_32
REMARK    6  A    between atoms: C_32  and  C_33
REMARK                            x       y       z     vdW  Elec       q    Type
REMARK                         _______ _______ _______ _____ _____    ______ ____
ROOT
ATOM      1  C   UNL     1       2.707  -1.868  -4.752  0.00  0.00    +0.133 C 
ATOM      2  C   UNL     1       2.276  -3.307  -5.037  0.00  0.00    +0.131 C 
ATOM      3  C   UNL     1       3.274  -3.847  -6.059  0.00  0.00    -0.034 C 
ATOM      4  C   UNL     1       2.578  -4.164  -7.142  0.00  0.00    -0.001 A 
ATOM      5  C   UNL     1       2.983  -4.750  -8.430  0.00  0.00    +0.010 A 
ATOM      6  C   UNL     1       1.992  -4.943  -9.339  0.00  0.00    +0.001 A 
ATOM      7  C   UNL     1       0.653  -4.616  -9.099  0.00  0.00    +0.002 A 
ATOM      8  C   UNL     1       0.191  -4.075  -7.944  0.00  0.00    +0.026 A 
ATOM      9  C   UNL     1       1.140  -3.826  -6.910  0.00  0.00    +0.043 A 
ATOM     10  N   UNL     1       0.966  -3.330  -5.701  0.00  0.00    -0.375 N 
ATOM     11  C   UNL     1       4.745  -3.913  -5.752  0.00  0.00    +0.065 C 
ATOM     12  C   UNL     1       5.171  -2.666  -5.022  0.00  0.00    +0.167 C 
ATOM     13  N   UNL     1       4.144  -1.761  -4.553  0.00  0.00    -0.279 N 
ATOM     14  C   UNL     1       4.600  -0.651  -3.884  0.00  0.00    +0.234 C 
ATOM     15  O   UNL     1       3.836   0.148  -3.385  0.00  0.00    -0.274 OA
ATOM     16  C   UNL     1       6.101  -0.472  -3.799  0.00  0.00    +0.204 C 
ATOM     17  N   UNL     1       6.683  -0.765  -5.122  0.00  0.00    -0.287 N 
ATOM     18  C   UNL     1       6.237  -1.889  -5.753  0.00  0.00    +0.237 C 
ATOM     19  O   UNL     1       6.670  -2.243  -6.829  0.00  0.00    -0.274 OA
ATOM     20  H   UNL     1       0.130  -3.028  -5.313  0.00  0.00    +0.160 HD
ENDROOT
BRANCH   1  24
ATOM     21  C   UNL     1       0.707  -0.490  -1.238  0.00  0.00    -0.045 A 
ATOM     22  C   UNL     1       0.222  -0.151  -2.487  0.00  0.00    +0.004 A 
ATOM     23  C   UNL     1       0.869  -0.597  -3.624  0.00  0.00    +0.006 A 
ATOM     24  C   UNL     1       2.002  -1.381  -3.513  0.00  0.00    -0.025 A 
ATOM     25  C   UNL     1       2.488  -1.720  -2.263  0.00  0.00    +0.006 A 
ATOM     26  C   UNL     1       1.843  -1.270  -1.126  0.00  0.00    +0.004 A 
BRANCH  21  28
ATOM     27  C   UNL     1      -0.019   1.526   0.010  0.00  0.00    +0.012 C 
ATOM     28  C   UNL     1       0.002  -0.004   0.002  0.00  0.00    +0.013 C 
ATOM     29  C   UNL     1      -1.433  -0.534   0.013  0.00  0.00    +0.012 C 
ENDBRANCH  21  28
ENDBRANCH   1  24
BRANCH  17  30
ATOM     30  C   UNL     1       7.688   0.110  -5.731  0.00  0.00    +0.143 C 
BRANCH  30  31
ATOM     31  C   UNL     1       9.065  -0.345  -5.320  0.00  0.00    -0.026 A 
ATOM     32  C   UNL     1       9.645   0.164  -4.173  0.00  0.00    +0.009 A 
ATOM     33  C   UNL     1      10.907  -0.250  -3.791  0.00  0.00    +0.050 A 
ATOM     34  C   UNL     1      11.594  -1.177  -4.558  0.00  0.00    +0.166 A 
ATOM     35  C   UNL     1      11.010  -1.689  -5.714  0.00  0.00    +0.167 A 
ATOM     36  C   UNL     1       9.742  -1.274  -6.087  0.00  0.00    +0.054 A 
ATOM     37  O   UNL     1      11.878  -2.573  -6.286  0.00  0.00    -0.453 OA
ATOM     38  C   UNL     1      13.160  -2.291  -5.694  0.00  0.00    +0.466 C 
ATOM     39  O   UNL     1      12.828  -1.740  -4.406  0.00  0.00    -0.453 OA
ENDBRANCH  30  31
ENDBRANCH  17  30
TORSDOF 4
