REMARK  Name = ZINC43746559
REMARK  12 active torsions:
REMARK  status: ('A' for Active; 'I' for Inactive)
REMARK    1  A    between atoms: C_1  and  C_2
REMARK    2  A    between atoms: C_2  and  C_3
REMARK    3  A    between atoms: C_3  and  C_5
REMARK    4  A    between atoms: C_3  and  C_6
REMARK    5  A    between atoms: C_6  and  C_8
REMARK    6  A    between atoms: C_6  and  N_16
REMARK    7  A    between atoms: N_10  and  C_11
REMARK    8  A    between atoms: C_11  and  C_12
REMARK    9  A    between atoms: C_12  and  C_13
REMARK   10  A    between atoms: C_13  and  C_14
REMARK   11  A    between atoms: C_13  and  C_15
REMARK   12  A    between atoms: C_17  and  C_19
REMARK                            x       y       z     vdW  Elec       q    Type
REMARK                         _______ _______ _______ _____ _____    ______ ____
ROOT
ATOM      1  C   UNL     1       4.812  -2.823   2.413  0.00  0.00    +0.167 C 
ATOM      2  C   UNL     1       4.295  -4.178   2.916  0.00  0.00    +0.069 C 
ATOM      3  C   UNL     1       5.451  -5.079   3.269  0.00  0.00    -0.015 A 
ATOM      4  C   UNL     1       5.408  -6.294   4.064  0.00  0.00    +0.003 A 
ATOM      5  C   UNL     1       4.364  -6.957   4.717  0.00  0.00    +0.010 A 
ATOM      6  C   UNL     1       4.689  -8.109   5.391  0.00  0.00    +0.001 A 
ATOM      7  C   UNL     1       5.984  -8.600   5.430  0.00  0.00    +0.002 A 
ATOM      8  C   UNL     1       7.034  -7.962   4.794  0.00  0.00    +0.026 A 
ATOM      9  C   UNL     1       6.735  -6.790   4.102  0.00  0.00    +0.047 A 
ATOM     10  N   UNL     1       7.511  -5.927   3.384  0.00  0.00    -0.356 N 
ATOM     11  H   UNL     1       8.466  -6.024   3.239  0.00  0.00    +0.166 HD
ATOM     12  C   UNL     1       6.740  -4.906   2.899  0.00  0.00    +0.046 A 
ATOM     13  C   UNL     1       7.210  -3.725   2.085  0.00  0.00    +0.155 C 
ATOM     14  N   UNL     1       5.984  -3.074   1.567  0.00  0.00    -0.273 N 
ATOM     15  C   UNL     1       6.156  -2.825   0.262  0.00  0.00    +0.248 C 
ATOM     16  O   UNL     1       5.448  -2.103  -0.413  0.00  0.00    -0.270 OA
ATOM     17  C   UNL     1       7.329  -3.556  -0.227  0.00  0.00    +0.042 A 
ATOM     18  C   UNL     1       8.008  -4.131   0.894  0.00  0.00    -0.009 A 
ATOM     19  C   UNL     1       9.151  -4.887   0.761  0.00  0.00    +0.006 A 
ATOM     20  C   UNL     1       9.649  -5.062  -0.527  0.00  0.00    +0.000 A 
ATOM     21  C   UNL     1       9.031  -4.503  -1.628  0.00  0.00    +0.001 A 
ATOM     22  C   UNL     1       7.826  -3.724  -1.520  0.00  0.00    +0.013 A 
ENDROOT
BRANCH   1  24
ATOM     23  N   UNL     1       3.139  -1.030   2.093  0.00  0.00    -0.302 N 
ATOM     24  C   UNL     1       3.740  -2.135   1.608  0.00  0.00    +0.235 C 
ATOM     25  O   UNL     1       3.418  -2.575   0.525  0.00  0.00    -0.274 OA
ATOM     26  H   UNL     1       3.396  -0.678   2.959  0.00  0.00    +0.150 HD
BRANCH  23  27
ATOM     27  C   UNL     1       2.097  -0.361   1.310  0.00  0.00    +0.162 C 
BRANCH  27  28
ATOM     28  C   UNL     1       2.022   1.090   1.710  0.00  0.00    +0.234 C 
ATOM     29  O   UNL     1       2.454   1.446   2.787  0.00  0.00    -0.274 OA
ATOM     30  N   UNL     1       1.476   1.993   0.872  0.00  0.00    -0.314 N 
ATOM     31  H   UNL     1       1.067   1.700   0.043  0.00  0.00    +0.149 HD
BRANCH  30  32
ATOM     32  C   UNL     1       1.500   3.418   1.213  0.00  0.00    +0.104 C 
BRANCH  32  33
ATOM     33  C   UNL     1       0.820   4.220   0.101  0.00  0.00    +0.022 C 
BRANCH  33  34
ATOM     34  C   UNL     1       0.846   5.707   0.457  0.00  0.00    -0.016 C 
ATOM     35  C   UNL     1       0.279   6.521  -0.708  0.00  0.00    +0.007 C 
ATOM     36  C   UNL     1      -0.003   5.948   1.707  0.00  0.00    +0.007 C 
ENDBRANCH  33  34
ENDBRANCH  32  33
ENDBRANCH  30  32
ENDBRANCH  27  28
BRANCH  27  37
ATOM     37  C   UNL     1       0.748  -1.033   1.577  0.00  0.00    +0.015 C 
ATOM     38  C   UNL     1       0.489  -1.077   3.084  0.00  0.00    +0.010 C 
BRANCH  37  40
ATOM     39  C   UNL     1       0.884  -2.411  -0.503  0.00  0.00    +0.004 C 
ATOM     40  C   UNL     1       0.771  -2.459   1.022  0.00  0.00    +0.002 C 
ENDBRANCH  37  40
ENDBRANCH  27  37
ENDBRANCH  23  27
ENDBRANCH   1  24
TORSDOF 8
