REMARK  Name = ZINC09041227
REMARK  7 active torsions:
REMARK  status: ('A' for Active; 'I' for Inactive)
REMARK    1  A    between atoms: C_1  and  C_2
REMARK    2  A    between atoms: N_7  and  C_10
REMARK    3  A    between atoms: C_10  and  C_11
REMARK    4  A    between atoms: N_13  and  C_14
REMARK    5  A    between atoms: C_22  and  C_23
REMARK    6  A    between atoms: C_23  and  O_25
REMARK    7  A    between atoms: O_25  and  C_26
REMARK                            x       y       z     vdW  Elec       q    Type
REMARK                         _______ _______ _______ _____ _____    ______ ____
ROOT
ATOM      1  C   UNL     1       2.417   1.809   0.012  0.00  0.00    +0.046 C 
ATOM      2  C   UNL     1       1.007   2.341   0.018  0.00  0.00    -0.015 A 
ATOM      3  C   UNL     1       0.780   3.719   0.021  0.00  0.00    +0.076 A 
ATOM      4  C   UNL     1      -0.576   4.120   0.026  0.00  0.00    +0.116 A 
ATOM      5  N   UNL     1      -0.928   5.399   0.029  0.00  0.00    -0.230 NA
ATOM      6  C   UNL     1      -0.038   6.354   0.026  0.00  0.00    +0.203 A 
ATOM      7  N   UNL     1       1.293   6.093   0.020  0.00  0.00    -0.290 N 
ATOM      8  C   UNL     1       1.760   4.829   0.017  0.00  0.00    +0.263 A 
ATOM      9  O   UNL     1       2.957   4.606   0.012  0.00  0.00    -0.267 OA
ATOM     10  S   UNL     1      -1.456   2.578   0.020  0.00  0.00    -0.062 S 
ATOM     11  C   UNL     1      -0.050   1.479   0.021  0.00  0.00    +0.102 A 
ENDROOT
BRANCH  11  12
ATOM     12  C   UNL     1      -0.035   0.014   0.019  0.00  0.00    +0.346 C 
ATOM     13  O   UNL     1       1.024  -0.583   0.015  0.00  0.00    -0.244 OA
BRANCH  12  14
ATOM     14  O   UNL     1      -1.196  -0.672   0.023  0.00  0.00    -0.458 OA
BRANCH  14  15
ATOM     15  C   UNL     1      -1.106  -2.121   0.021  0.00  0.00    +0.177 C 
ATOM     16  C   UNL     1      -1.079  -2.629  -1.422  0.00  0.00    +0.044 C 
ATOM     17  C   UNL     1      -0.984  -4.156  -1.424  0.00  0.00    +0.004 C 
ATOM     18  C   UNL     1      -2.196  -4.744  -0.699  0.00  0.00    +0.000 C 
ATOM     19  C   UNL     1      -2.222  -4.237   0.745  0.00  0.00    +0.004 C 
ATOM     20  C   UNL     1      -2.318  -2.709   0.747  0.00  0.00    +0.044 C 
ENDBRANCH  14  15
ENDBRANCH  12  14
ENDBRANCH  11  12
BRANCH   7  21
ATOM     21  C   UNL     1       2.242   7.209   0.017  0.00  0.00    +0.222 C 
BRANCH  21  22
ATOM     22  C   UNL     1       2.562   7.593  -1.405  0.00  0.00    +0.237 C 
ATOM     23  O   UNL     1       2.047   6.993  -2.325  0.00  0.00    -0.274 OA
ATOM     24  N   UNL     1       3.419   8.602  -1.653  0.00  0.00    -0.283 N 
ATOM     25  H   UNL     1       3.780   9.124  -0.920  0.00  0.00    +0.155 HD
BRANCH  24  26
ATOM     26  C   UNL     1       3.789   8.897  -2.971  0.00  0.00    +0.047 A 
ATOM     27  C   UNL     1       2.872   8.745  -4.002  0.00  0.00    +0.024 A 
ATOM     28  C   UNL     1       3.238   9.041  -5.300  0.00  0.00    +0.002 A 
ATOM     29  C   UNL     1       4.520   9.480  -5.575  0.00  0.00    +0.001 A 
ATOM     30  C   UNL     1       5.438   9.629  -4.552  0.00  0.00    +0.017 A 
ATOM     31  C   UNL     1       5.077   9.338  -3.250  0.00  0.00    +0.039 A 
ATOM     32 BR   UNL     1       6.333   9.541  -1.851  0.00  0.00    -0.048 Br
ENDBRANCH  24  26
ENDBRANCH  21  22
ENDBRANCH   7  21
TORSDOF 6
