REMARK  Name = ZINC27349804
REMARK  9 active torsions:
REMARK  status: ('A' for Active; 'I' for Inactive)
REMARK    1  A    between atoms: C_1  and  C_2
REMARK    2  A    between atoms: C_2  and  N_3
REMARK    3  A    between atoms: N_3  and  C_4
REMARK    4  A    between atoms: N_3  and  C_18
REMARK    5  A    between atoms: C_4  and  C_5
REMARK    6  A    between atoms: N_7  and  C_8
REMARK    7  A    between atoms: C_13  and  C_14
REMARK    8  A    between atoms: C_18  and  C_19
REMARK    9  A    between atoms: C_28  and  N_30
REMARK                            x       y       z     vdW  Elec       q    Type
REMARK                         _______ _______ _______ _____ _____    ______ ____
ROOT
ATOM      1  N   UNL     1       1.578   1.134   0.448  0.00  0.00    +0.391 N 
ATOM      2  H   UNL     1       1.100   0.395  -0.211  0.00  0.00    -0.080 HD
ENDROOT
BRANCH   1   4
ATOM      3  C   UNL     1      -0.102   0.244   1.992  0.00  0.00    -0.017 C 
ATOM      4  C   UNL     1       1.345   0.717   1.837  0.00  0.00    -0.081 C 
ENDBRANCH   1   4
BRANCH   1   5
ATOM      5  C   UNL     1       0.964   2.442   0.182  0.00  0.00    +0.020 C 
BRANCH   5   6
ATOM      6  C   UNL     1       0.749   2.603  -1.301  0.00  0.00    +0.201 C 
ATOM      7  O   UNL     1       0.977   1.677  -2.051  0.00  0.00    -0.278 OA
ATOM      8  N   UNL     1       0.309   3.777  -1.795  0.00  0.00    -0.287 N 
ATOM      9  H   UNL     1       0.189   4.644  -1.128  0.00  0.00    +0.155 HD
BRANCH   8  10
ATOM     10  C   UNL     1       0.006   3.895  -3.156  0.00  0.00    +0.045 A 
ATOM     11  C   UNL     1      -0.254   2.759  -3.912  0.00  0.00    +0.024 A 
ATOM     12  C   UNL     1      -0.556   2.878  -5.253  0.00  0.00    +0.002 A 
ATOM     13  C   UNL     1      -0.591   4.127  -5.848  0.00  0.00    +0.001 A 
ATOM     14  C   UNL     1      -0.328   5.259  -5.099  0.00  0.00    +0.014 A 
ATOM     15  C   UNL     1      -0.029   5.147  -3.755  0.00  0.00    +0.076 A 
BRANCH  15  16
ATOM     16  C   UNL     1       0.259   6.381  -2.941  0.00  0.00    +0.419 C 
ATOM     17  F   UNL     1       0.163   7.512  -3.759  0.00  0.00    -0.166 F 
ATOM     18  F   UNL     1      -0.670   6.479  -1.899  0.00  0.00    -0.166 F 
ATOM     19  F   UNL     1       1.550   6.299  -2.409  0.00  0.00    -0.166 F 
ENDBRANCH  15  16
ENDBRANCH   8  10
ENDBRANCH   5   6
ENDBRANCH   1   5
BRANCH   1  20
ATOM     20  C   UNL     1       3.014   1.155   0.138  0.00  0.00    +0.020 C 
BRANCH  20  21
ATOM     21  C   UNL     1       3.558  -0.250   0.186  0.00  0.00    +0.203 C 
ATOM     22  O   UNL     1       2.822  -1.177   0.453  0.00  0.00    -0.277 OA
ATOM     23  N   UNL     1       4.862  -0.477  -0.067  0.00  0.00    -0.272 N 
ATOM     24  C   UNL     1       5.506  -1.793  -0.044  0.00  0.00    +0.118 C 
ATOM     25  C   UNL     1       6.979  -1.527  -0.397  0.00  0.00    +0.056 C 
ATOM     26  C   UNL     1       7.060  -0.030  -0.590  0.00  0.00    -0.022 A 
ATOM     27  C   UNL     1       5.801   0.511  -0.383  0.00  0.00    +0.040 A 
ATOM     28  C   UNL     1       5.627   1.890  -0.506  0.00  0.00    +0.026 A 
ATOM     29  C   UNL     1       6.695   2.700  -0.829  0.00  0.00    +0.034 A 
ATOM     30  C   UNL     1       7.947   2.151  -1.033  0.00  0.00    +0.127 A 
ATOM     31  C   UNL     1       8.128   0.785  -0.913  0.00  0.00    +0.038 A 
BRANCH  30  32
ATOM     32  N   UNL     1       9.092   3.023  -1.381  0.00  0.00    +0.056 N 
ATOM     33  O   UNL     1       8.931   4.226  -1.487  0.00  0.00    -0.126 OA
ATOM     34  O   UNL     1      10.194   2.538  -1.560  0.00  0.00    -0.126 OA
ENDBRANCH  30  32
ENDBRANCH  20  21
ENDBRANCH   1  20
TORSDOF 8
