REMARK  Name = ZINC12374997
REMARK  5 active torsions:
REMARK  status: ('A' for Active; 'I' for Inactive)
REMARK    1  A    between atoms: C_3  and  C_6
REMARK    2  A    between atoms: C_8  and  C_30
REMARK    3  A    between atoms: C_13  and  C_15
REMARK    4  A    between atoms: N_17  and  C_18
REMARK    5  A    between atoms: C_18  and  C_19
REMARK                            x       y       z     vdW  Elec       q    Type
REMARK                         _______ _______ _______ _____ _____    ______ ____
ROOT
ATOM      1  C   UNL     1       0.913   5.128   0.020  0.00  0.00    +0.082 A 
ATOM      2  C   UNL     1       2.305   5.390   0.015  0.00  0.00    +0.061 A 
ATOM      3  C   UNL     1       2.738   6.668   0.011  0.00  0.00    +0.149 A 
ATOM      4  N   UNL     1       1.821   7.687   0.024  0.00  0.00    -0.208 N 
ATOM      5  C   UNL     1       0.478   7.400   0.035  0.00  0.00    +0.176 A 
ATOM      6  N   UNL     1       0.051   6.131   0.033  0.00  0.00    -0.226 NA
ATOM      7  C   UNL     1      -0.198   8.612   0.047  0.00  0.00    +0.117 A 
ATOM      8  C   UNL     1       0.761   9.632   0.043  0.00  0.00    +0.168 A 
ATOM      9  N   UNL     1       1.964   9.079   0.030  0.00  0.00    -0.158 NA
ATOM     10 CL   UNL     1      -1.921   8.825   0.063  0.00  0.00    -0.077 Cl
ENDROOT
BRANCH   1  13
ATOM     11  C   UNL     1      -1.081   1.916   0.017  0.00  0.00    +0.008 A 
ATOM     12  C   UNL     1      -0.867   3.274   0.027  0.00  0.00    +0.017 A 
ATOM     13  C   UNL     1       0.425   3.737   0.017  0.00  0.00    +0.038 A 
ATOM     14  S   UNL     1       1.361   2.217   0.001  0.00  0.00    -0.095 S 
ATOM     15  C   UNL     1      -0.013   1.076   0.008  0.00  0.00    +0.046 A 
ENDBRANCH   1  13
BRANCH   8  16
ATOM     16  C   UNL     1       0.478  11.082   0.053  0.00  0.00    +0.266 C 
ATOM     17  O   UNL     1      -0.672  11.477   0.065  0.00  0.00    -0.268 OA
ATOM     18  N   UNL     1       1.494  11.967   0.048  0.00  0.00    -0.309 N 
ATOM     19  H   UNL     1       2.412  11.652   0.039  0.00  0.00    +0.149 HD
BRANCH  18  20
ATOM     20  C   UNL     1       1.214  13.405   0.058  0.00  0.00    +0.111 C 
BRANCH  20  21
ATOM     21  C   UNL     1       2.532  14.182   0.050  0.00  0.00    -0.013 C 
ATOM     22  C   UNL     1       3.349  13.813   1.290  0.00  0.00    +0.012 C 
ATOM     23  C   UNL     1       4.667  14.590   1.282  0.00  0.00    -0.010 C 
ATOM     24  C   UNL     1       4.374  16.092   1.292  0.00  0.00    +0.007 C 
ATOM     25  C   UNL     1       3.557  16.460   0.052  0.00  0.00    -0.010 C 
ATOM     26  C   UNL     1       2.239  15.683   0.060  0.00  0.00    +0.012 C 
ATOM     27  C   UNL     1       4.351  16.104  -1.206  0.00  0.00    +0.007 C 
ATOM     28  C   UNL     1       4.644  14.602  -1.216  0.00  0.00    -0.010 C 
ATOM     29  C   UNL     1       5.461  14.234   0.024  0.00  0.00    +0.007 C 
ATOM     30  C   UNL     1       3.326  13.825  -1.208  0.00  0.00    +0.012 C 
ENDBRANCH  20  21
ENDBRANCH  18  20
ENDBRANCH   8  16
BRANCH   3  31
ATOM     31  C   UNL     1       4.214   6.973  -0.001  0.00  0.00    +0.434 C 
ATOM     32  F   UNL     1       4.683   7.061   1.314  0.00  0.00    -0.164 F 
ATOM     33  F   UNL     1       4.895   5.951  -0.671  0.00  0.00    -0.164 F 
ATOM     34  F   UNL     1       4.434   8.189  -0.657  0.00  0.00    -0.164 F 
ENDBRANCH   3  31
TORSDOF 5
