REMARK  Name = ZINC00679203
REMARK  16 active torsions:
REMARK  status: ('A' for Active; 'I' for Inactive)
REMARK    1  A    between atoms: C_1  and  C_2
REMARK    2  A    between atoms: C_3  and  C_35
REMARK    3  A    between atoms: C_4  and  C_25
REMARK    4  A    between atoms: C_10  and  C_15
REMARK    5  A    between atoms: C_18  and  O_23
REMARK    6  A    between atoms: C_19  and  O_21
REMARK    7  A    between atoms: O_21  and  C_22
REMARK    8  A    between atoms: O_23  and  C_24
REMARK    9  A    between atoms: C_28  and  O_33
REMARK   10  A    between atoms: C_30  and  O_31
REMARK   11  A    between atoms: O_31  and  C_32
REMARK   12  A    between atoms: O_33  and  C_34
REMARK   13  A    between atoms: C_35  and  O_37
REMARK   14  A    between atoms: O_37  and  C_38
REMARK   15  A    between atoms: C_38  and  C_39
REMARK   16  A    between atoms: C_38  and  C_40
REMARK                            x       y       z     vdW  Elec       q    Type
REMARK                         _______ _______ _______ _____ _____    ______ ____
ROOT
ATOM      1  C   UNL     1      -3.875   0.724  -2.449  0.00  0.00    +0.061 C 
ATOM      2  C   UNL     1      -3.119   0.405  -1.185  0.00  0.00    +0.016 C 
ATOM      3  C   UNL     1      -2.073  -0.439  -1.227  0.00  0.00    +0.065 C 
ATOM      4  C   UNL     1      -1.293  -0.775   0.010  0.00  0.00    +0.096 C 
ATOM      5  C   UNL     1      -2.071  -0.422   1.252  0.00  0.00    +0.024 C 
ATOM      6  C   UNL     1      -3.118   0.428   1.192  0.00  0.00    +0.016 C 
ATOM      7  N   UNL     1      -3.501   0.975  -0.003  0.00  0.00    -0.321 N 
ATOM      8  C   UNL     1      -3.893   0.795   2.433  0.00  0.00    +0.059 C 
ATOM      9  C   UNL     1      -3.874  -0.377   3.417  0.00  0.00    +0.032 C 
ATOM     10  C   UNL     1      -2.415  -0.710   3.748  0.00  0.00    +0.088 C 
ATOM     11  C   UNL     1      -1.678  -1.004   2.470  0.00  0.00    +0.162 C 
ATOM     12  O   UNL     1      -0.725  -1.758   2.491  0.00  0.00    -0.292 OA
ATOM     13  H   UNL     1      -4.123   1.883  -0.006  0.00  0.00    +0.152 HD
ENDROOT
BRANCH   9  14
ATOM     14  C   UNL     1      -4.609   0.006   4.676  0.00  0.00    -0.040 A 
ATOM     15  C   UNL     1      -4.172   1.079   5.429  0.00  0.00    +0.008 A 
ATOM     16  C   UNL     1      -4.843   1.435   6.585  0.00  0.00    +0.049 A 
ATOM     17  C   UNL     1      -5.955   0.715   6.990  0.00  0.00    +0.161 A 
ATOM     18  C   UNL     1      -6.394  -0.366   6.231  0.00  0.00    +0.162 A 
ATOM     19  C   UNL     1      -5.721  -0.714   5.071  0.00  0.00    +0.053 A 
BRANCH  18  20
ATOM     20  O   UNL     1      -7.486  -1.076   6.624  0.00  0.00    -0.491 OA
ATOM     21  C   UNL     1      -7.880  -2.172   5.796  0.00  0.00    +0.277 C 
ENDBRANCH  18  20
BRANCH  17  22
ATOM     22  O   UNL     1      -6.616   1.063   8.126  0.00  0.00    -0.491 OA
ATOM     23  C   UNL     1      -6.108   2.183   8.854  0.00  0.00    +0.277 C 
ENDBRANCH  17  22
ENDBRANCH   9  14
BRANCH   4  24
ATOM     24  C   UNL     1       0.002  -0.004   0.002  0.00  0.00    +0.007 A 
ATOM     25  C   UNL     1      -0.017   1.378   0.010  0.00  0.00    +0.012 A 
ATOM     26  C   UNL     1       1.169   2.087   0.002  0.00  0.00    +0.046 A 
ATOM     27  C   UNL     1       2.382   1.413  -0.013  0.00  0.00    +0.124 A 
ATOM     28  C   UNL     1       2.404   0.027  -0.021  0.00  0.00    +0.091 A 
ATOM     29  C   UNL     1       1.212  -0.682  -0.013  0.00  0.00    +0.128 A 
BRANCH  29  30
ATOM     30  O   UNL     1       1.230  -2.041  -0.021  0.00  0.00    -0.495 OA
ATOM     31  C   UNL     1       2.512  -2.673  -0.037  0.00  0.00    +0.277 C 
ENDBRANCH  29  30
BRANCH  27  32
ATOM     32  O   UNL     1       3.548   2.111  -0.020  0.00  0.00    -0.495 OA
ATOM     33  C   UNL     1       3.450   3.537  -0.012  0.00  0.00    +0.277 C 
ENDBRANCH  27  32
ENDBRANCH   4  24
BRANCH   3  34
ATOM     34  C   UNL     1      -1.702  -1.022  -2.461  0.00  0.00    +0.338 C 
ATOM     35  O   UNL     1      -2.327  -0.758  -3.471  0.00  0.00    -0.245 OA
BRANCH  34  36
ATOM     36  O   UNL     1      -0.654  -1.871  -2.518  0.00  0.00    -0.459 OA
BRANCH  36  37
ATOM     37  C   UNL     1      -0.335  -2.422  -3.798  0.00  0.00    +0.171 C 
ATOM     38  C   UNL     1       1.167  -2.701  -3.873  0.00  0.00    +0.052 C 
ATOM     39  C   UNL     1      -1.107  -3.729  -3.997  0.00  0.00    +0.052 C 
ENDBRANCH  36  37
ENDBRANCH  34  36
ENDBRANCH   3  34
TORSDOF 9
