REMARK  Name = ZINC13032002
REMARK  13 active torsions:
REMARK  status: ('A' for Active; 'I' for Inactive)
REMARK    1  A    between atoms: C_1  and  C_2
REMARK    2  A    between atoms: C_2  and  C_3
REMARK    3  A    between atoms: C_3  and  C_4
REMARK    4  A    between atoms: C_3  and  C_5
REMARK    5  A    between atoms: C_3  and  N_6
REMARK    6  A    between atoms: C_7  and  C_9
REMARK    7  A    between atoms: C_9  and  C_11
REMARK    8  A    between atoms: C_9  and  N_17
REMARK    9  A    between atoms: N_15  and  C_16
REMARK   10  A    between atoms: N_17  and  C_18
REMARK   11  A    between atoms: C_22  and  C_24
REMARK   12  A    between atoms: C_25  and  C_27
REMARK   13  A    between atoms: C_27  and  N_28
REMARK                            x       y       z     vdW  Elec       q    Type
REMARK                         _______ _______ _______ _____ _____    ______ ____
ROOT
ATOM      1  N   UNL     1      -5.617   3.700  -1.493  0.00  0.00    -0.252 N 
ATOM      2  C   UNL     1      -4.430   3.136  -1.194  0.00  0.00    +0.242 C 
ATOM      3  O   UNL     1      -3.623   2.918  -2.073  0.00  0.00    -0.273 OA
ENDROOT
BRANCH   1   4
ATOM      4  C   UNL     1      -6.519   4.013  -0.471  0.00  0.00    +0.038 A 
ATOM      5  C   UNL     1      -6.052   4.465   0.757  0.00  0.00    +0.023 A 
ATOM      6  C   UNL     1      -6.946   4.773   1.763  0.00  0.00    +0.002 A 
ATOM      7  C   UNL     1      -8.305   4.633   1.550  0.00  0.00    +0.003 A 
ATOM      8  C   UNL     1      -8.774   4.185   0.329  0.00  0.00    -0.049 A 
ATOM      9  C   UNL     1      -7.885   3.880  -0.684  0.00  0.00    +0.027 A 
ATOM     10  C   UNL     1     -10.255   4.034   0.101  0.00  0.00    +0.044 C 
ENDBRANCH   1   4
BRANCH   1  11
ATOM     11  C   UNL     1      -5.961   3.985  -2.888  0.00  0.00    +0.213 C 
BRANCH  11  12
ATOM     12  C   UNL     1      -6.392   5.424  -3.015  0.00  0.00    +0.049 A 
ATOM     13  C   UNL     1      -7.113   6.116  -2.110  0.00  0.00    +0.025 A 
ATOM     14  C   UNL     1      -7.292   7.418  -2.620  0.00  0.00    +0.019 A 
ATOM     15  C   UNL     1      -6.673   7.471  -3.817  0.00  0.00    +0.085 A 
ATOM     16  N   UNL     1      -6.113   6.252  -4.062  0.00  0.00    -0.352 N 
ATOM     17  C   UNL     1      -5.343   5.891  -5.255  0.00  0.00    +0.148 C 
ENDBRANCH  11  12
BRANCH  11  19
ATOM     18  N   UNL     1      -7.731   3.319  -4.482  0.00  0.00    -0.308 N 
ATOM     19  C   UNL     1      -7.089   3.084  -3.321  0.00  0.00    +0.240 C 
ATOM     20  O   UNL     1      -7.418   2.147  -2.625  0.00  0.00    -0.273 OA
ATOM     21  H   UNL     1      -7.423   4.024  -5.074  0.00  0.00    +0.149 HD
BRANCH  18  22
ATOM     22  C   UNL     1      -8.896   2.511  -4.852  0.00  0.00    +0.029 C 
ATOM     23  C   UNL     1      -8.486   1.040  -4.947  0.00  0.00    +0.031 C 
ATOM     24  C   UNL     1      -9.985   2.669  -3.788  0.00  0.00    +0.031 C 
BRANCH  22  26
ATOM     25  C   UNL     1     -10.650   2.135  -6.591  0.00  0.00    +0.006 C 
ATOM     26  C   UNL     1      -9.434   2.979  -6.205  0.00  0.00    +0.022 C 
ENDBRANCH  22  26
ENDBRANCH  18  22
ENDBRANCH  11  19
ENDBRANCH   1  11
BRANCH   2  27
ATOM     27  C   UNL     1      -4.105   2.776   0.233  0.00  0.00    +0.242 C 
BRANCH  27  28
ATOM     28  N   UNL     1      -3.375   1.506   0.262  0.00  0.00    -0.235 N 
ATOM     29  C   UNL     1      -3.918   0.247   0.356  0.00  0.00    +0.090 A 
ATOM     30  C   UNL     1      -5.218  -0.241   0.445  0.00  0.00    +0.029 A 
ATOM     31  C   UNL     1      -5.433  -1.588   0.533  0.00  0.00    +0.002 A 
ATOM     32  C   UNL     1      -4.366  -2.476   0.524  0.00  0.00    +0.002 A 
ATOM     33  C   UNL     1      -3.082  -2.024   0.433  0.00  0.00    +0.032 A 
ATOM     34  C   UNL     1      -2.833  -0.647   0.347  0.00  0.00    +0.113 A 
ATOM     35  N   UNL     1      -1.704   0.081   0.249  0.00  0.00    -0.129 NA
ATOM     36  N   UNL     1      -1.984   1.335   0.198  0.00  0.00    -0.064 NA
ENDBRANCH  27  28
ENDBRANCH   2  27
TORSDOF 8
