REMARK  Name = ZINC49601442
REMARK  11 active torsions:
REMARK  status: ('A' for Active; 'I' for Inactive)
REMARK    1  A    between atoms: C_1  and  C_2
REMARK    2  A    between atoms: C_2  and  O_4
REMARK    3  A    between atoms: O_4  and  C_5
REMARK    4  A    between atoms: C_9  and  C_39
REMARK    5  A    between atoms: C_9  and  C_40
REMARK    6  A    between atoms: C_12  and  C_38
REMARK    7  A    between atoms: C_16  and  C_37
REMARK    8  A    between atoms: C_23  and  O_36
REMARK    9  A    between atoms: C_25  and  O_27
REMARK   10  A    between atoms: O_27  and  C_28
REMARK   11  A    between atoms: C_28  and  C_30
REMARK                            x       y       z     vdW  Elec       q    Type
REMARK                         _______ _______ _______ _____ _____    ______ ____
ROOT
ATOM      1  C   UNL     1       0.793  -1.777  -1.394  0.00  0.00    +0.183 C 
ATOM      2  C   UNL     1      -0.670  -1.511  -1.038  0.00  0.00    +0.046 C 
ATOM      3  C   UNL     1      -1.317  -2.782  -0.506  0.00  0.00    +0.010 C 
ATOM      4  C   UNL     1      -1.227  -3.920  -1.519  0.00  0.00    -0.028 C 
ATOM      5  C   UNL     1       0.213  -4.136  -1.986  0.00  0.00    +0.048 C 
ATOM      6  C   UNL     1       0.888  -2.859  -2.470  0.00  0.00    +0.018 C 
ATOM      7  C   UNL     1       2.354  -3.139  -2.796  0.00  0.00    -0.014 C 
ATOM      8  C   UNL     1       2.512  -4.256  -3.838  0.00  0.00    +0.009 C 
ATOM      9  C   UNL     1       3.768  -3.895  -4.661  0.00  0.00    +0.015 C 
ATOM     10  C   UNL     1       4.305  -2.569  -4.068  0.00  0.00    +0.027 C 
ATOM     11  C   UNL     1       3.022  -1.913  -3.463  0.00  0.00    +0.022 C 
ATOM     12  C   UNL     1       5.159  -2.926  -2.862  0.00  0.00    +0.140 C 
ATOM     13  O   UNL     1       6.260  -2.456  -2.698  0.00  0.00    -0.297 OA
ATOM     14  C   UNL     1       4.564  -3.905  -1.873  0.00  0.00    +0.081 C 
ATOM     15  C   UNL     1       3.122  -3.490  -1.528  0.00  0.00    +0.035 C 
ATOM     16  C   UNL     1       2.478  -4.630  -0.768  0.00  0.00    +0.159 C 
ATOM     17  C   UNL     1       0.987  -4.819  -0.869  0.00  0.00    +0.210 C 
ATOM     18  C   UNL     1       5.017  -1.681  -5.091  0.00  0.00    +0.019 C 
ATOM     19  C   UNL     1       0.234  -2.331  -3.754  0.00  0.00    +0.016 C 
ATOM     20  C   UNL     1      -1.742  -5.196  -0.814  0.00  0.00    +0.011 C 
ATOM     21  C   UNL     1      -2.196  -3.680  -2.676  0.00  0.00    +0.011 C 
ENDROOT
BRANCH  16  22
ATOM     22  O   UNL     1       3.124  -5.872  -1.105  0.00  0.00    -0.388 OA
ATOM     23  H   UNL     1       2.757  -6.642  -0.650  0.00  0.00    +0.210 HD
ENDBRANCH  16  22
BRANCH   1  24
ATOM     24  O   UNL     1       1.366  -0.556  -1.872  0.00  0.00    -0.461 OA
BRANCH  24  26
ATOM     25  C   UNL     1       2.534   1.564  -1.386  0.00  0.00    +0.136 C 
ATOM     26  C   UNL     1       1.911   0.261  -0.957  0.00  0.00    +0.304 C 
ATOM     27  O   UNL     1       1.902  -0.049   0.211  0.00  0.00    -0.251 OA
ENDBRANCH  24  26
ENDBRANCH   1  24
BRANCH  17  28
ATOM     28  O   UNL     1       0.776  -6.249  -0.979  0.00  0.00    -0.455 OA
BRANCH  28  29
ATOM     29  C   UNL     1       0.815  -6.962   0.164  0.00  0.00    +0.340 C 
ATOM     30  O   UNL     1       1.019  -6.402   1.222  0.00  0.00    -0.245 OA
BRANCH  29  31
ATOM     31  C   UNL     1       0.609  -8.425   0.129  0.00  0.00    +0.059 A 
ATOM     32  C   UNL     1       0.380  -9.072  -1.087  0.00  0.00    +0.015 A 
ATOM     33  C   UNL     1       0.189 -10.438  -1.112  0.00  0.00    +0.001 A 
ATOM     34  C   UNL     1       0.224 -11.166   0.064  0.00  0.00    +0.000 A 
ATOM     35  C   UNL     1       0.450 -10.531   1.272  0.00  0.00    +0.001 A 
ATOM     36  C   UNL     1       0.649  -9.166   1.311  0.00  0.00    +0.015 A 
ENDBRANCH  29  31
ENDBRANCH  28  29
ENDBRANCH  17  28
TORSDOF 6
