REMARK  Name = ZINC09874956
REMARK  7 active torsions:
REMARK  status: ('A' for Active; 'I' for Inactive)
REMARK    1  A    between atoms: C_4  and  N_7
REMARK    2  A    between atoms: C_8  and  C_27
REMARK    3  A    between atoms: C_11  and  S_12
REMARK    4  A    between atoms: S_12  and  C_13
REMARK    5  A    between atoms: C_13  and  C_14
REMARK    6  A    between atoms: N_16  and  C_17
REMARK    7  A    between atoms: C_27  and  N_57
REMARK                            x       y       z     vdW  Elec       q    Type
REMARK                         _______ _______ _______ _____ _____    ______ ____
ROOT
ATOM      1  N   UNL     1      -1.698   0.905   1.940  0.00  0.00    -0.276 N 
ATOM      2  C   UNL     1      -0.687   1.548   1.275  0.00  0.00    +0.122 A 
ATOM      3  N   UNL     1      -0.452   2.660   1.911  0.00  0.00    -0.135 NA
ATOM      4  N   UNL     1      -1.242   2.770   2.919  0.00  0.00    -0.122 NA
ATOM      5  C   UNL     1      -2.027   1.720   2.988  0.00  0.00    +0.197 A 
ENDROOT
BRANCH   1   9
ATOM      6  C   UNL     1      -3.411  -2.770   0.970  0.00  0.00    +0.000 A 
ATOM      7  C   UNL     1      -2.707  -2.627   2.152  0.00  0.00    +0.002 A 
ATOM      8  C   UNL     1      -2.138  -1.411   2.475  0.00  0.00    +0.026 A 
ATOM      9  C   UNL     1      -2.274  -0.332   1.613  0.00  0.00    +0.050 A 
ATOM     10  C   UNL     1      -2.986  -0.476   0.431  0.00  0.00    +0.026 A 
ATOM     11  C   UNL     1      -3.548  -1.697   0.110  0.00  0.00    +0.002 A 
ENDBRANCH   1   9
BRANCH   5  12
ATOM     12  S   UNL     1      -3.269   1.417   4.200  0.00  0.00    -0.076 S 
BRANCH  12  13
ATOM     13  C   UNL     1      -3.095   2.911   5.208  0.00  0.00    +0.173 C 
BRANCH  13  14
ATOM     14  C   UNL     1      -4.087   2.871   6.341  0.00  0.00    +0.228 C 
ATOM     15  O   UNL     1      -4.839   1.926   6.456  0.00  0.00    -0.275 OA
ATOM     16  N   UNL     1      -4.140   3.885   7.227  0.00  0.00    -0.284 N 
ATOM     17  H   UNL     1      -3.497   4.609   7.174  0.00  0.00    +0.155 HD
BRANCH  16  18
ATOM     18  C   UNL     1      -5.121   3.894   8.220  0.00  0.00    +0.041 A 
ATOM     19  C   UNL     1      -5.546   2.713   8.789  0.00  0.00    +0.024 A 
ATOM     20  C   UNL     1      -6.523   2.711   9.780  0.00  0.00    +0.002 A 
ATOM     21  C   UNL     1      -7.086   3.873  10.214  0.00  0.00    +0.008 A 
ATOM     22  C   UNL     1      -6.681   5.099   9.660  0.00  0.00    -0.016 A 
ATOM     23  C   UNL     1      -5.683   5.114   8.655  0.00  0.00    +0.003 A 
ATOM     24  C   UNL     1      -5.282   6.339   8.099  0.00  0.00    +0.010 A 
ATOM     25  C   UNL     1      -5.849   7.496   8.539  0.00  0.00    +0.001 A 
ATOM     26  C   UNL     1      -6.828   7.483   9.531  0.00  0.00    +0.001 A 
ATOM     27  C   UNL     1      -7.244   6.313  10.089  0.00  0.00    +0.008 A 
ENDBRANCH  16  18
ENDBRANCH  13  14
ENDBRANCH  12  13
ENDBRANCH   5  12
BRANCH   2  28
ATOM     28  C   UNL     1       0.025   1.057   0.041  0.00  0.00    -0.001 C 
BRANCH  28  33
ATOM     29  C   UNL     1      -0.869   3.014  -1.098  0.00  0.00    -0.078 C 
ATOM     30  C   UNL     1      -1.110   3.397  -2.580  0.00  0.00    -0.020 C 
ATOM     31  C   UNL     1      -0.149   2.456  -3.341  0.00  0.00    -0.020 C 
ATOM     32  C   UNL     1       0.117   1.286  -2.376  0.00  0.00    -0.078 C 
ATOM     33  N   UNL     1      -0.679   1.558  -1.178  0.00  0.00    +0.384 N 
ATOM     34  H   UNL     1      -1.591   1.092  -1.255  0.00  0.00    -0.081 HD
ENDBRANCH  28  33
ENDBRANCH   2  28
TORSDOF 7
