REMARK  Name = ZINC27664423
REMARK  8 active torsions:
REMARK  status: ('A' for Active; 'I' for Inactive)
REMARK    1  A    between atoms: C_1  and  C_2
REMARK    2  A    between atoms: C_2  and  C_4
REMARK    3  A    between atoms: C_7  and  C_10
REMARK    4  A    between atoms: C_13  and  C_15
REMARK    5  A    between atoms: C_17  and  C_29
REMARK    6  A    between atoms: C_19  and  C_24
REMARK    7  A    between atoms: C_19  and  O_28
REMARK    8  A    between atoms: C_29  and  C_31
REMARK                            x       y       z     vdW  Elec       q    Type
REMARK                         _______ _______ _______ _____ _____    ______ ____
ROOT
ATOM      1  C   UNL     1      -0.790   1.789   3.754  0.00  0.00    +0.156 C 
ATOM      2  C   UNL     1       0.007   1.381   2.511  0.00  0.00    +0.148 C 
ATOM      3  C   UNL     1      -0.733   1.888   1.268  0.00  0.00    +0.243 C 
ATOM      4  N   UNL     1      -2.104   1.376   1.284  0.00  0.00    -0.264 N 
ATOM      5  C   UNL     1      -2.736   1.109   2.437  0.00  0.00    +0.302 C 
ATOM      6  O   UNL     1      -3.879   0.696   2.394  0.00  0.00    -0.253 OA
ATOM      7  N   UNL     1      -2.159   1.282   3.635  0.00  0.00    -0.289 N 
ATOM      8  H   UNL     1      -2.637   1.202   0.337  0.00  0.00    +0.153 HD
ATOM      9  H   UNL     1      -2.734   1.034   4.539  0.00  0.00    +0.151 HD
ENDROOT
BRANCH   1  13
ATOM     10  C   UNL     1       0.442  -0.230   6.538  0.00  0.00    +0.135 A 
ATOM     11  C   UNL     1       1.050   0.952   6.834  0.00  0.00    +0.050 A 
ATOM     12  C   UNL     1       0.671   1.865   5.832  0.00  0.00    +0.047 A 
ATOM     13  C   UNL     1      -0.142   1.204   4.982  0.00  0.00    +0.127 A 
ATOM     14  O   UNL     1      -0.283  -0.059   5.415  0.00  0.00    -0.458 OA
BRANCH  10  18
ATOM     15  C   UNL     1       0.759  -3.820   8.771  0.00  0.00    +0.017 A 
ATOM     16  C   UNL     1      -0.029  -3.782   7.613  0.00  0.00    +0.012 A 
ATOM     17  C   UNL     1      -0.130  -2.626   6.895  0.00  0.00    +0.012 A 
ATOM     18  C   UNL     1       0.552  -1.479   7.315  0.00  0.00    +0.017 A 
ATOM     19  C   UNL     1       1.344  -1.517   8.468  0.00  0.00    +0.012 A 
ATOM     20  C   UNL     1       1.443  -2.671   9.190  0.00  0.00    +0.012 A 
BRANCH  15  22
ATOM     21  C   UNL     1       1.717  -5.103  10.790  0.00  0.00    +0.091 C 
ATOM     22  C   UNL     1       0.869  -5.063   9.544  0.00  0.00    +0.160 C 
ATOM     23  O   UNL     1       0.277  -6.058   9.181  0.00  0.00    -0.292 OA
ENDBRANCH  15  22
ENDBRANCH  10  18
ENDBRANCH   1  13
BRANCH   3  24
ATOM     24  C   UNL     1      -0.017   1.395   0.010  0.00  0.00    +0.436 C 
ATOM     25  F   UNL     1       0.002  -0.004   0.002  0.00  0.00    -0.166 F 
ATOM     26  F   UNL     1       1.296   1.879  -0.000  0.00  0.00    -0.166 F 
ATOM     27  F   UNL     1      -0.694   1.858  -1.124  0.00  0.00    -0.166 F 
ENDBRANCH   3  24
BRANCH   3  28
ATOM     28  O   UNL     1      -0.756   3.317   1.276  0.00  0.00    -0.364 OA
ATOM     29  H   UNL     1      -1.247   3.864   0.458  0.00  0.00    +0.212 HD
ENDBRANCH   3  28
BRANCH   2  30
ATOM     30  C   UNL     1       0.123  -0.120   2.453  0.00  0.00    +0.180 C 
ATOM     31  O   UNL     1      -0.680  -0.767   1.812  0.00  0.00    -0.291 OA
BRANCH  30  32
ATOM     32  C   UNL     1       1.165  -0.775   3.146  0.00  0.00    +0.055 A 
ATOM     33  C   UNL     1       1.448  -2.135   3.222  0.00  0.00    +0.019 A 
ATOM     34  C   UNL     1       2.534  -2.504   3.972  0.00  0.00    +0.008 A 
ATOM     35  C   UNL     1       3.270  -1.543   4.594  0.00  0.00    +0.046 A 
ATOM     36  S   UNL     1       2.468  -0.074   4.143  0.00  0.00    -0.094 S 
ENDBRANCH  30  32
ENDBRANCH   2  30
TORSDOF 7
