REMARK  Name = ZINC35886282
REMARK  6 active torsions:
REMARK  status: ('A' for Active; 'I' for Inactive)
REMARK    1  A    between atoms: C_4  and  C_7
REMARK    2  A    between atoms: C_7  and  C_8
REMARK    3  A    between atoms: N_11  and  C_14
REMARK    4  A    between atoms: C_14  and  C_15
REMARK    5  A    between atoms: C_20  and  C_22
REMARK    6  A    between atoms: C_29  and  C_31
REMARK                            x       y       z     vdW  Elec       q    Type
REMARK                         _______ _______ _______ _____ _____    ______ ____
ROOT
ATOM      1  C   UNL     1       7.919  -1.778   4.721  0.00  0.00    -0.001 C 
ATOM      2  C   UNL     1       7.682  -3.186   4.132  0.00  0.00    +0.110 C 
ATOM      3  N   UNL     1       8.599  -4.067   4.890  0.00  0.00    -0.297 N 
ATOM      4  C   UNL     1       8.525  -3.564   6.282  0.00  0.00    +0.116 C 
ATOM      5  C   UNL     1       8.476  -2.025   6.138  0.00  0.00    +0.039 C 
ATOM      6  C   UNL     1       9.335  -5.094   4.421  0.00  0.00    +0.247 C 
ATOM      7  O   UNL     1       9.372  -5.320   3.227  0.00  0.00    -0.270 OA
ENDROOT
BRANCH   5   8
ATOM      8  C   UNL     1       9.859  -1.441   6.266  0.00  0.00    -0.040 A 
ATOM      9  C   UNL     1      10.874  -1.879   5.436  0.00  0.00    +0.004 A 
ATOM     10  C   UNL     1      12.143  -1.344   5.552  0.00  0.00    +0.003 A 
ATOM     11  C   UNL     1      12.399  -0.371   6.499  0.00  0.00    +0.038 A 
ATOM     12  C   UNL     1      11.384   0.069   7.331  0.00  0.00    +0.124 A 
ATOM     13  C   UNL     1      10.111  -0.463   7.209  0.00  0.00    +0.042 A 
ATOM     14  F   UNL     1      11.633   1.020   8.257  0.00  0.00    -0.205 F 
ENDBRANCH   5   8
BRANCH   6  15
ATOM     15  C   UNL     1      10.097  -5.947   5.358  0.00  0.00    +0.040 A 
ATOM     16  C   UNL     1       9.731  -6.011   6.704  0.00  0.00    +0.013 A 
ATOM     17  C   UNL     1      10.445  -6.808   7.574  0.00  0.00    +0.004 A 
ATOM     18  C   UNL     1      11.523  -7.544   7.117  0.00  0.00    +0.038 A 
ATOM     19  C   UNL     1      11.893  -7.486   5.783  0.00  0.00    +0.124 A 
ATOM     20  C   UNL     1      11.182  -6.695   4.900  0.00  0.00    +0.051 A 
ATOM     21  F   UNL     1      12.948  -8.207   5.344  0.00  0.00    -0.205 F 
ENDBRANCH   6  15
BRANCH   1  22
ATOM     22  C   UNL     1       6.601  -1.004   4.795  0.00  0.00    -0.073 C 
BRANCH  22  26
ATOM     23  C   UNL     1       5.210   1.073   1.344  0.00  0.00    -0.010 C 
ATOM     24  C   UNL     1       6.619   0.472   1.344  0.00  0.00    -0.015 C 
ATOM     25  C   UNL     1       7.061   0.224   2.788  0.00  0.00    -0.079 C 
ATOM     26  N   UNL     1       6.130  -0.708   3.435  0.00  0.00    +0.380 N 
ATOM     27  C   UNL     1       4.791  -0.109   3.502  0.00  0.00    -0.079 C 
ATOM     28  C   UNL     1       4.262   0.126   2.086  0.00  0.00    -0.015 C 
ATOM     29  H   UNL     1       6.088  -1.564   2.902  0.00  0.00    -0.082 HD
BRANCH  23  30
ATOM     30  C   UNL     1       4.730   1.250  -0.098  0.00  0.00    +0.038 C 
BRANCH  30  34
ATOM     31  C   UNL     1       7.167   4.154  -2.066  0.00  0.00    +0.000 A 
ATOM     32  C   UNL     1       7.520   2.818  -2.101  0.00  0.00    +0.000 A 
ATOM     33  C   UNL     1       6.731   1.878  -1.465  0.00  0.00    +0.003 A 
ATOM     34  C   UNL     1       5.590   2.275  -0.792  0.00  0.00    -0.047 A 
ATOM     35  C   UNL     1       5.239   3.611  -0.755  0.00  0.00    +0.003 A 
ATOM     36  C   UNL     1       6.026   4.551  -1.393  0.00  0.00    +0.000 A 
ENDBRANCH  30  34
ENDBRANCH  23  30
ENDBRANCH  22  26
ENDBRANCH   1  22
TORSDOF 6
