REMARK  Name = ZINC12017571
REMARK  8 active torsions:
REMARK  status: ('A' for Active; 'I' for Inactive)
REMARK    1  A    between atoms: C_1  and  C_2
REMARK    2  A    between atoms: C_5  and  C_8
REMARK    3  A    between atoms: N_16  and  C_19
REMARK    4  A    between atoms: C_20  and  C_28
REMARK    5  A    between atoms: C_28  and  O_30
REMARK    6  A    between atoms: O_30  and  C_31
REMARK    7  A    between atoms: N_33  and  C_34
REMARK    8  A    between atoms: C_39  and  C_40
REMARK                            x       y       z     vdW  Elec       q    Type
REMARK                         _______ _______ _______ _____ _____    ______ ____
ROOT
ATOM      1  C   UNL     1       0.160  -4.338  -0.176  0.00  0.00    +0.157 C 
ATOM      2  C   UNL     1       1.541  -4.865   0.277  0.00  0.00    +0.145 C 
ATOM      3  C   UNL     1       1.377  -5.038   1.812  0.00  0.00    +0.249 C 
ATOM      4  C   UNL     1       2.357  -4.036   2.381  0.00  0.00    +0.259 C 
ATOM      5  O   UNL     1       2.570  -3.856   3.561  0.00  0.00    -0.272 OA
ATOM      6  N   UNL     1       2.952  -3.378   1.379  0.00  0.00    -0.201 N 
ATOM      7  C   UNL     1       2.567  -3.764   0.139  0.00  0.00    +0.235 C 
ATOM      8  O   UNL     1       2.969  -3.308  -0.911  0.00  0.00    -0.274 OA
ATOM      9  O   UNL     1       0.032  -4.617   2.106  0.00  0.00    -0.257 OA
ATOM     10  N   UNL     1      -0.738  -4.783   0.917  0.00  0.00    -0.243 N 
ENDROOT
BRANCH   6  11
ATOM     11  C   UNL     1       3.898  -2.381   1.591  0.00  0.00    +0.096 A 
ATOM     12  C   UNL     1       5.275  -2.517   1.678  0.00  0.00    +0.091 A 
ATOM     13  C   UNL     1       6.048  -1.310   1.907  0.00  0.00    -0.021 A 
ATOM     14  C   UNL     1       5.303  -0.187   2.008  0.00  0.00    -0.004 A 
ATOM     15  S   UNL     1       3.635  -0.735   1.795  0.00  0.00    -0.077 S 
ATOM     16  C   UNL     1       5.802   1.205   2.243  0.00  0.00    +0.043 C 
ATOM     17  C   UNL     1       7.256   1.120   2.729  0.00  0.00    +0.005 C 
ATOM     18  C   UNL     1       8.033   0.174   1.809  0.00  0.00    +0.005 C 
ATOM     19  C   UNL     1       7.564  -1.266   2.027  0.00  0.00    +0.037 C 
BRANCH  12  20
ATOM     20  C   UNL     1       5.922  -3.825   1.544  0.00  0.00    +0.342 C 
ATOM     21  O   UNL     1       6.271  -4.222   0.449  0.00  0.00    -0.245 OA
BRANCH  20  22
ATOM     22  O   UNL     1       6.132  -4.589   2.636  0.00  0.00    -0.464 OA
ATOM     23  C   UNL     1       6.768  -5.852   2.432  0.00  0.00    +0.280 C 
ENDBRANCH  20  22
ENDBRANCH  12  20
ENDBRANCH   6  11
BRANCH   1  28
ATOM     24  C   UNL     1       0.194   1.427  -0.578  0.00  0.00    +0.044 C 
ATOM     25  C   UNL     1       0.185  -0.077  -0.473  0.00  0.00    -0.050 A 
ATOM     26  C   UNL     1       0.269  -0.850  -1.616  0.00  0.00    +0.004 A 
ATOM     27  C   UNL     1       0.261  -2.229  -1.520  0.00  0.00    +0.006 A 
ATOM     28  C   UNL     1       0.170  -2.835  -0.281  0.00  0.00    -0.022 A 
ATOM     29  C   UNL     1       0.087  -2.062   0.862  0.00  0.00    +0.006 A 
ATOM     30  C   UNL     1       0.099  -0.683   0.766  0.00  0.00    +0.004 A 
ENDBRANCH   1  28
BRANCH  10  31
ATOM     31  C   UNL     1      -2.043  -5.270   0.805  0.00  0.00    +0.068 A 
ATOM     32  C   UNL     1      -2.264  -6.617   0.547  0.00  0.00    +0.028 A 
ATOM     33  C   UNL     1      -3.554  -7.095   0.438  0.00  0.00    +0.002 A 
ATOM     34  C   UNL     1      -4.627  -6.234   0.586  0.00  0.00    +0.000 A 
ATOM     35  C   UNL     1      -4.411  -4.893   0.843  0.00  0.00    +0.005 A 
ATOM     36  C   UNL     1      -3.122  -4.410   0.959  0.00  0.00    -0.025 A 
ATOM     37  C   UNL     1      -2.888  -2.949   1.246  0.00  0.00    +0.046 C 
ENDBRANCH  10  31
TORSDOF 5
