REMARK  Name = ZINC11786644
REMARK  11 active torsions:
REMARK  status: ('A' for Active; 'I' for Inactive)
REMARK    1  A    between atoms: C_1  and  C_2
REMARK    2  A    between atoms: C_2  and  C_3
REMARK    3  A    between atoms: C_2  and  C_4
REMARK    4  A    between atoms: C_4  and  C_5
REMARK    5  A    between atoms: C_5  and  C_7
REMARK    6  A    between atoms: C_5  and  N_30
REMARK    7  A    between atoms: C_16  and  C_17
REMARK    8  A    between atoms: C_16  and  N_72
REMARK    9  A    between atoms: C_17  and  C_18
REMARK   10  A    between atoms: C_17  and  C_24
REMARK   11  A    between atoms: C_31  and  C_33
REMARK                            x       y       z     vdW  Elec       q    Type
REMARK                         _______ _______ _______ _____ _____    ______ ____
ROOT
ATOM      1  C   UNL     1       0.152   2.321   2.247  0.00  0.00    +0.154 A 
ATOM      2  N   UNL     1      -1.155   2.340   2.216  0.00  0.00    -0.132 NA
ATOM      3  N   UNL     1      -1.601   3.061   3.186  0.00  0.00    -0.134 NA
ATOM      4  C   UNL     1      -0.602   3.534   3.872  0.00  0.00    +0.132 A 
ATOM      5  N   UNL     1       0.537   3.090   3.287  0.00  0.00    -0.315 N 
ATOM      6  C   UNL     1       1.902   3.408   3.709  0.00  0.00    +0.106 C 
ATOM      7  C   UNL     1       1.908   3.700   5.212  0.00  0.00    -0.057 C 
ATOM      8  C   UNL     1       0.347   5.548   4.945  0.00  0.00    -0.071 C 
ATOM      9  C   UNL     1      -0.658   4.402   5.103  0.00  0.00    +0.058 C 
ATOM     10  N   UNL     1       1.686   5.147   5.432  0.00  0.00    +0.382 N 
ATOM     11  H   UNL     1       2.397   5.673   4.911  0.00  0.00    -0.082 HD
ENDROOT
BRANCH   1  12
ATOM     12  C   UNL     1       1.059   1.584   1.295  0.00  0.00    +0.142 C 
BRANCH  12  13
ATOM     13  N   UNL     1       0.552   0.225   1.091  0.00  0.00    -0.299 N 
ATOM     14  C   UNL     1       1.394  -0.760   0.721  0.00  0.00    +0.280 C 
ATOM     15  O   UNL     1       2.575  -0.521   0.556  0.00  0.00    -0.267 OA
ATOM     16  H   UNL     1      -0.390   0.034   1.222  0.00  0.00    +0.150 HD
BRANCH  14  17
ATOM     17  C   UNL     1       0.886  -2.121   0.517  0.00  0.00    +0.189 A 
ATOM     18  C   UNL     1       1.626  -3.206   0.144  0.00  0.00    +0.054 A 
ATOM     19  C   UNL     1       0.741  -4.293   0.070  0.00  0.00    +0.042 A 
ATOM     20  C   UNL     1      -0.486  -3.829   0.397  0.00  0.00    +0.196 A 
ATOM     21  O   UNL     1      -0.393  -2.521   0.671  0.00  0.00    -0.458 OA
ENDBRANCH  14  17
ENDBRANCH  12  13
BRANCH  12  22
ATOM     22  C   UNL     1       1.097   2.320  -0.046  0.00  0.00    +0.033 C 
BRANCH  22  24
ATOM     23  C   UNL     1       3.517   1.797  -0.384  0.00  0.00    +0.007 C 
ATOM     24  C   UNL     1       2.112   1.644  -0.970  0.00  0.00    -0.015 C 
ATOM     25  C   UNL     1       2.062   2.301  -2.351  0.00  0.00    +0.007 C 
ENDBRANCH  22  24
ENDBRANCH  12  22
ENDBRANCH   1  12
BRANCH  10  26
ATOM     26  C   UNL     1       1.812   5.464   6.866  0.00  0.00    -0.066 C 
BRANCH  26  27
ATOM     27  C   UNL     1       3.295   5.424   7.240  0.00  0.00    +0.032 C 
BRANCH  27  28
ATOM     28  C   UNL     1       4.043   6.463   6.445  0.00  0.00    -0.042 A 
ATOM     29  C   UNL     1       5.172   6.107   5.732  0.00  0.00    +0.004 A 
ATOM     30  C   UNL     1       5.855   7.059   4.999  0.00  0.00    +0.000 A 
ATOM     31  C   UNL     1       5.415   8.369   4.987  0.00  0.00    +0.000 A 
ATOM     32  C   UNL     1       4.289   8.726   5.705  0.00  0.00    +0.000 A 
ATOM     33  C   UNL     1       3.603   7.773   6.434  0.00  0.00    +0.004 A 
ENDBRANCH  27  28
BRANCH  27  34
ATOM     34  C   UNL     1       3.450   5.710   8.712  0.00  0.00    -0.042 A 
ATOM     35  C   UNL     1       2.852   6.827   9.265  0.00  0.00    +0.004 A 
ATOM     36  C   UNL     1       2.989   7.088  10.616  0.00  0.00    +0.000 A 
ATOM     37  C   UNL     1       3.733   6.236  11.411  0.00  0.00    +0.000 A 
ATOM     38  C   UNL     1       4.335   5.122  10.857  0.00  0.00    +0.000 A 
ATOM     39  C   UNL     1       4.193   4.859   9.508  0.00  0.00    +0.004 A 
ENDBRANCH  27  34
ENDBRANCH  26  27
ENDBRANCH  10  26
TORSDOF 9
