REMARK  Name = ZINC24153859
REMARK  7 active torsions:
REMARK  status: ('A' for Active; 'I' for Inactive)
REMARK    1  A    between atoms: C_4  and  C_7
REMARK    2  A    between atoms: C_7  and  C_9
REMARK    3  A    between atoms: C_7  and  N_15
REMARK    4  A    between atoms: N_15  and  C_16
REMARK    5  A    between atoms: C_19  and  S_25
REMARK    6  A    between atoms: C_21  and  N_22
REMARK    7  A    between atoms: S_25  and  N_28
REMARK                            x       y       z     vdW  Elec       q    Type
REMARK                         _______ _______ _______ _____ _____    ______ ____
ROOT
ATOM      1  C   UNL     1       4.929  -1.830  -2.983  0.00  0.00    +0.059 A 
ATOM      2  C   UNL     1       3.973  -2.592  -2.323  0.00  0.00    +0.027 A 
ATOM      3  C   UNL     1       3.214  -2.025  -1.318  0.00  0.00    +0.030 A 
ATOM      4  C   UNL     1       3.398  -0.698  -0.976  0.00  0.00    +0.108 A 
ATOM      5  C   UNL     1       4.348   0.063  -1.630  0.00  0.00    +0.063 A 
ATOM      6  C   UNL     1       5.115  -0.499  -2.633  0.00  0.00    +0.149 A 
ENDROOT
BRANCH   6   7
ATOM      7  N   UNL     1       6.132   0.317  -3.333  0.00  0.00    +0.058 N 
ATOM      8  O   UNL     1       6.790   1.133  -2.712  0.00  0.00    -0.126 OA
ATOM      9  O   UNL     1       6.312   0.172  -4.528  0.00  0.00    -0.126 OA
ENDBRANCH   6   7
BRANCH   4  10
ATOM     10  S   UNL     1       2.423   0.022   0.303  0.00  0.00    +0.061 S 
ATOM     11  O   UNL     1       3.166   1.122   0.810  0.00  0.00    -0.153 OA
ATOM     12  O   UNL     1       1.984  -1.046   1.130  0.00  0.00    -0.153 OA
BRANCH  10  13
ATOM     13  N   UNL     1       1.069   0.655  -0.411  0.00  0.00    -0.177 NA
ATOM     14  C   UNL     1      -0.143  -0.160  -0.571  0.00  0.00    +0.109 C 
ATOM     15  C   UNL     1      -0.566  -0.130  -2.043  0.00  0.00    +0.017 C 
ATOM     16  C   UNL     1      -0.722   1.324  -2.496  0.00  0.00    +0.003 C 
ATOM     17  C   UNL     1       0.621   2.047  -2.364  0.00  0.00    +0.017 C 
ATOM     18  C   UNL     1       1.057   2.042  -0.896  0.00  0.00    +0.109 C 
ENDBRANCH  10  13
ENDBRANCH   4  10
BRANCH   1  19
ATOM     19  N   UNL     1       5.703  -2.401  -3.996  0.00  0.00    -0.330 N 
ATOM     20  H   UNL     1       6.529  -1.831  -4.445  0.00  0.00    +0.147 HD
BRANCH  19  21
ATOM     21  C   UNL     1       5.414  -3.760  -4.460  0.00  0.00    +0.150 C 
BRANCH  21  25
ATOM     22  C   UNL     1       2.210  -3.649  -7.283  0.00  0.00    +0.000 A 
ATOM     23  C   UNL     1       2.272  -4.666  -6.348  0.00  0.00    +0.000 A 
ATOM     24  C   UNL     1       3.309  -4.702  -5.435  0.00  0.00    +0.006 A 
ATOM     25  C   UNL     1       4.284  -3.721  -5.456  0.00  0.00    -0.021 A 
ATOM     26  C   UNL     1       4.218  -2.702  -6.387  0.00  0.00    +0.006 A 
ATOM     27  C   UNL     1       3.184  -2.668  -7.304  0.00  0.00    +0.000 A 
ENDBRANCH  21  25
BRANCH  21  28
ATOM     28  C   UNL     1       6.641  -4.339  -5.115  0.00  0.00    +0.066 A 
ATOM     29  C   UNL     1       7.224  -5.477  -4.590  0.00  0.00    +0.025 A 
ATOM     30  C   UNL     1       8.352  -6.002  -5.201  0.00  0.00    +0.003 A 
ATOM     31  C   UNL     1       8.855  -5.359  -6.322  0.00  0.00    +0.020 A 
ATOM     32  C   UNL     1       8.219  -4.225  -6.790  0.00  0.00    +0.111 A 
ATOM     33  N   UNL     1       7.144  -3.757  -6.186  0.00  0.00    -0.258 NA
ENDBRANCH  21  28
ENDBRANCH  19  21
ENDBRANCH   1  19
TORSDOF 7
