REMARK  Name = ZINC18200719
REMARK  6 active torsions:
REMARK  status: ('A' for Active; 'I' for Inactive)
REMARK    1  A    between atoms: C_1  and  O_2
REMARK    2  A    between atoms: O_2  and  C_3
REMARK    3  A    between atoms: C_6  and  C_11
REMARK    4  A    between atoms: C_8  and  O_9
REMARK    5  A    between atoms: O_9  and  C_10
REMARK    6  A    between atoms: C_16  and  C_25
REMARK                            x       y       z     vdW  Elec       q    Type
REMARK                         _______ _______ _______ _____ _____    ______ ____
ROOT
ATOM      1  C   UNL     1       2.489   1.046  -0.017  0.00  0.00    +0.032 C 
ATOM      2  C   UNL     1       3.309   1.425   1.218  0.00  0.00    +0.060 C 
ATOM      3  C   UNL     1       4.645   0.721   1.178  0.00  0.00    +0.020 C 
ATOM      4  C   UNL     1       5.239   0.427   0.002  0.00  0.00    +0.041 C 
ATOM      5  C   UNL     1       6.578  -0.274  -0.070  0.00  0.00    +0.177 C 
ATOM      6  N   UNL     1       7.217  -0.264   1.240  0.00  0.00    -0.219 N 
ATOM      7  C   UNL     1       6.565   0.051   2.386  0.00  0.00    +0.220 A 
ATOM      8  N   UNL     1       7.413  -0.043   3.374  0.00  0.00    -0.180 NA
ATOM      9  C   UNL     1       8.613  -0.408   2.901  0.00  0.00    +0.233 A 
ATOM     10  N   UNL     1       8.534  -0.552   1.597  0.00  0.00    -0.132 NA
ATOM     11  N   UNL     1       9.761  -0.603   3.670  0.00  0.00    -0.326 N 
ATOM     12  N   UNL     1       5.225   0.401   2.382  0.00  0.00    -0.287 N 
ATOM     13  C   UNL     1       4.628   0.764  -1.220  0.00  0.00    +0.164 C 
ATOM     14  O   UNL     1       5.197   0.502  -2.261  0.00  0.00    -0.292 OA
ATOM     15  C   UNL     1       3.286   1.440  -1.265  0.00  0.00    +0.088 C 
ATOM     16  H   UNL     1       9.729  -0.474   4.631  0.00  0.00    +0.145 HD
ATOM     17  H   UNL     1      10.591  -0.869   3.244  0.00  0.00    +0.145 HD
ATOM     18  H   UNL     1       4.711   0.419   3.204  0.00  0.00    +0.155 HD
ENDROOT
BRANCH   5  19
ATOM     19  C   UNL     1       6.373  -1.700  -0.513  0.00  0.00    -0.005 A 
ATOM     20  C   UNL     1       5.589  -2.552   0.241  0.00  0.00    +0.007 A 
ATOM     21  C   UNL     1       5.401  -3.860  -0.166  0.00  0.00    +0.000 A 
ATOM     22  C   UNL     1       5.997  -4.315  -1.327  0.00  0.00    +0.001 A 
ATOM     23  C   UNL     1       6.781  -3.464  -2.081  0.00  0.00    +0.015 A 
ATOM     24  C   UNL     1       6.966  -2.154  -1.677  0.00  0.00    +0.023 A 
ATOM     25 BR   UNL     1       8.034  -0.986  -2.713  0.00  0.00    -0.050 Br
ENDBRANCH   5  19
BRANCH   1  29
ATOM     26  C   UNL     1      -1.237   3.144   0.030  0.00  0.00    +0.161 A 
ATOM     27  C   UNL     1      -0.043   3.847   0.023  0.00  0.00    +0.049 A 
ATOM     28  C   UNL     1       1.160   3.166   0.008  0.00  0.00    +0.008 A 
ATOM     29  C   UNL     1       1.175   1.783   0.000  0.00  0.00    -0.040 A 
ATOM     30  C   UNL     1      -0.013   1.076   0.008  0.00  0.00    +0.053 A 
ATOM     31  C   UNL     1      -1.222   1.752   0.017  0.00  0.00    +0.162 A 
BRANCH  26  33
ATOM     32  C   UNL     1      -2.361   5.240   0.051  0.00  0.00    +0.277 C 
ATOM     33  O   UNL     1      -2.421   3.812   0.044  0.00  0.00    -0.491 OA
ENDBRANCH  26  33
BRANCH  31  34
ATOM     34  O   UNL     1      -2.391   1.058   0.019  0.00  0.00    -0.491 OA
ATOM     35  C   UNL     1      -2.299  -0.368   0.011  0.00  0.00    +0.277 C 
ENDBRANCH  31  34
ENDBRANCH   1  29
TORSDOF 4
