REMARK  Name = ZINC63479978
REMARK  5 active torsions:
REMARK  status: ('A' for Active; 'I' for Inactive)
REMARK    1  A    between atoms: C_1  and  C_2
REMARK    2  A    between atoms: C_7  and  C_8
REMARK    3  A    between atoms: C_17  and  C_20
REMARK    4  A    between atoms: C_20  and  C_21
REMARK    5  A    between atoms: N_32  and  C_35
REMARK                            x       y       z     vdW  Elec       q    Type
REMARK                         _______ _______ _______ _____ _____    ______ ____
ROOT
ATOM      1  C   UNL     1       1.082   1.190   0.766  0.00  0.00    +0.044 C 
ATOM      2  C   UNL     1       0.876  -0.291   0.578  0.00  0.00    -0.046 A 
ATOM      3  C   UNL     1       0.680  -0.803  -0.692  0.00  0.00    +0.004 A 
ATOM      4  C   UNL     1       0.490  -2.162  -0.865  0.00  0.00    +0.008 A 
ATOM      5  C   UNL     1       0.497  -3.003   0.225  0.00  0.00    +0.004 A 
ATOM      6  C   UNL     1       0.693  -2.500   1.508  0.00  0.00    +0.042 A 
ATOM      7  C   UNL     1       0.888  -1.130   1.672  0.00  0.00    -0.026 A 
ATOM      8  C   UNL     1       1.110  -0.564   3.051  0.00  0.00    +0.046 C 
ATOM      9  N   UNL     1       0.657  -3.536   2.444  0.00  0.00    -0.283 N 
ATOM     10  C   UNL     1       0.445  -4.734   1.867  0.00  0.00    +0.243 C 
ATOM     11  O   UNL     1       0.364  -5.805   2.431  0.00  0.00    -0.273 OA
ATOM     12  C   UNL     1       0.328  -4.487   0.388  0.00  0.00    +0.136 C 
ATOM     13  C   UNL     1      -1.024  -4.963  -0.155  0.00  0.00    +0.123 C 
ATOM     14  C   UNL     1      -0.730  -6.359  -0.771  0.00  0.00    +0.107 C 
ATOM     15  C   UNL     1       0.777  -6.588  -0.530  0.00  0.00    +0.072 C 
ATOM     16  N   UNL     1       1.353  -5.234  -0.365  0.00  0.00    -0.295 NA
ATOM     17  C   UNL     1      -1.535  -7.299   0.097  0.00  0.00    +0.232 C 
ATOM     18  O   UNL     1      -1.593  -8.502  -0.039  0.00  0.00    -0.274 OA
ATOM     19  N   UNL     1      -2.173  -6.597   1.040  0.00  0.00    -0.210 N 
ATOM     20  C   UNL     1      -1.962  -5.262   0.992  0.00  0.00    +0.233 C 
ATOM     21  O   UNL     1      -2.438  -4.436   1.742  0.00  0.00    -0.274 OA
ATOM     22  H   UNL     1       0.772  -3.407   3.399  0.00  0.00    +0.155 HD
ATOM     23  H   UNL     1       1.520  -4.811  -1.266  0.00  0.00    +0.124 HD
ENDROOT
BRANCH  19  24
ATOM     24  C   UNL     1      -3.002  -7.194   2.000  0.00  0.00    +0.044 A 
ATOM     25  C   UNL     1      -2.457  -8.024   2.971  0.00  0.00    +0.024 A 
ATOM     26  C   UNL     1      -3.276  -8.611   3.915  0.00  0.00    +0.002 A 
ATOM     27  C   UNL     1      -4.638  -8.374   3.894  0.00  0.00    +0.000 A 
ATOM     28  C   UNL     1      -5.184  -7.548   2.929  0.00  0.00    +0.002 A 
ATOM     29  C   UNL     1      -4.369  -6.953   1.986  0.00  0.00    +0.024 A 
ENDBRANCH  19  24
BRANCH  15  30
ATOM     30  C   UNL     1       1.404  -7.311  -1.724  0.00  0.00    +0.052 C 
BRANCH  30  31
ATOM     31  C   UNL     1       2.843  -7.634  -1.416  0.00  0.00    -0.040 C 
ATOM     32  C   UNL     1       3.329  -8.796  -0.924  0.00  0.00    -0.001 A 
ATOM     33  C   UNL     1       2.688 -10.060  -0.542  0.00  0.00    +0.010 A 
ATOM     34  C   UNL     1       3.455 -11.068  -0.069  0.00  0.00    +0.001 A 
ATOM     35  C   UNL     1       4.844 -10.938   0.064  0.00  0.00    +0.002 A 
ATOM     36  C   UNL     1       5.505  -9.808  -0.266  0.00  0.00    +0.026 A 
ATOM     37  C   UNL     1       4.798  -8.684  -0.774  0.00  0.00    +0.043 A 
ATOM     38  N   UNL     1       5.204  -7.498  -1.158  0.00  0.00    -0.380 N 
ATOM     39  C   UNL     1       4.038  -6.725  -1.601  0.00  0.00    +0.144 C 
ATOM     40  H   UNL     1       6.122  -7.185  -1.153  0.00  0.00    +0.160 HD
ENDBRANCH  30  31
ENDBRANCH  15  30
TORSDOF 3
