REMARK  Name = ZINC20134752
REMARK  4 active torsions:
REMARK  status: ('A' for Active; 'I' for Inactive)
REMARK    1  A    between atoms: C_1  and  C_2
REMARK    2  A    between atoms: C_8  and  C_10
REMARK    3  A    between atoms: C_12  and  N_17
REMARK    4  A    between atoms: C_14  and  N_16
REMARK                            x       y       z     vdW  Elec       q    Type
REMARK                         _______ _______ _______ _____ _____    ______ ____
ROOT
ATOM      1  C   UNL     1      -3.638   1.618   0.029  0.00  0.00    +0.012 A 
ATOM      2  C   UNL     1      -3.653   3.012   0.037  0.00  0.00    +0.033 A 
ATOM      3  C   UNL     1      -2.458   3.717   0.035  0.00  0.00    +0.027 A 
ATOM      4  C   UNL     1      -1.248   3.036   0.030  0.00  0.00    +0.045 A 
ATOM      5  C   UNL     1      -1.230   1.648   0.017  0.00  0.00    +0.027 A 
ATOM      6  C   UNL     1      -2.422   0.937   0.019  0.00  0.00    +0.033 A 
ENDROOT
BRANCH   1  14
ATOM      7  C   UNL     1      -9.451   1.746   0.058  0.00  0.00    +0.090 C 
ATOM      8  C   UNL     1      -8.604   0.499   0.045  0.00  0.00    +0.153 A 
ATOM      9  N   UNL     1      -9.046  -0.727   0.039  0.00  0.00    -0.132 NA
ATOM     10  N   UNL     1      -8.058  -1.552   0.030  0.00  0.00    -0.120 NA
ATOM     11  C   UNL     1      -6.942  -0.888   0.029  0.00  0.00    +0.218 A 
ATOM     12  N   UNL     1      -7.225   0.456   0.038  0.00  0.00    -0.190 N 
ATOM     13  N   UNL     1      -6.137   1.319   0.039  0.00  0.00    -0.156 NA
ATOM     14  C   UNL     1      -4.911   0.863   0.030  0.00  0.00    +0.132 A 
ATOM     15  S   UNL     1      -5.167  -0.904   0.013  0.00  0.00    -0.026 S 
ENDBRANCH   1  14
BRANCH   5  16
ATOM     16  N   UNL     1      -0.011   0.966   0.007  0.00  0.00    -0.358 N 
ATOM     17  H   UNL     1       0.004  -0.134  -0.003  0.00  0.00    +0.142 HD
ATOM     18  H   UNL     1       0.934   1.529   0.011  0.00  0.00    +0.142 HD
ENDBRANCH   5  16
BRANCH   3  19
ATOM     19  N   UNL     1      -2.472   5.114   0.043  0.00  0.00    -0.358 N 
ATOM     20  H   UNL     1      -1.525   5.674   0.041  0.00  0.00    +0.142 HD
ATOM     21  H   UNL     1      -3.431   5.655   0.050  0.00  0.00    +0.142 HD
ENDBRANCH   3  19
TORSDOF 3
