REMARK  Name = ZINC09268816
REMARK  7 active torsions:
REMARK  status: ('A' for Active; 'I' for Inactive)
REMARK    1  A    between atoms: C_1  and  N_57
REMARK    2  A    between atoms: C_2  and  N_57
REMARK    3  A    between atoms: C_8  and  N_57
REMARK    4  A    between atoms: N_11  and  S_14
REMARK    5  A    between atoms: S_14  and  C_17
REMARK    6  A    between atoms: C_20  and  C_22
REMARK    7  A    between atoms: C_24  and  C_27
REMARK                            x       y       z     vdW  Elec       q    Type
REMARK                         _______ _______ _______ _____ _____    ______ ____
ROOT
ATOM      1  S   UNL     1      -0.080   3.856  -2.490  0.00  0.00    +0.067 S 
ATOM      2  O   UNL     1       0.239   5.135  -1.960  0.00  0.00    -0.152 OA
ATOM      3  O   UNL     1       0.882   3.041  -3.146  0.00  0.00    -0.152 OA
ENDROOT
BRANCH   1   7
ATOM      4  C   UNL     1      -0.671   1.569   1.229  0.00  0.00    -0.066 C 
ATOM      5  C   UNL     1       0.055   0.995   0.011  0.00  0.00    +0.002 C 
ATOM      6  C   UNL     1      -0.627   1.492  -1.268  0.00  0.00    +0.108 C 
ATOM      7  N   UNL     1      -0.681   2.960  -1.234  0.00  0.00    -0.176 NA
ATOM      8  C   UNL     1      -1.279   3.618  -0.064  0.00  0.00    +0.108 C 
ATOM      9  C   UNL     1      -0.590   3.097   1.201  0.00  0.00    +0.002 C 
BRANCH   4  11
ATOM     10  C   UNL     1       1.387   1.416   2.495  0.00  0.00    -0.095 C 
ATOM     11  N   UNL     1      -0.052   1.080   2.479  0.00  0.00    +0.382 N 
ATOM     12  H   UNL     1      -0.510   1.535   3.278  0.00  0.00    -0.081 HD
BRANCH  11  13
ATOM     13  C   UNL     1      -0.231  -0.383   2.593  0.00  0.00    -0.069 C 
ATOM     14  C   UNL     1      -1.728  -0.702   2.596  0.00  0.00    -0.015 C 
ATOM     15  C   UNL     1      -1.927  -2.212   2.737  0.00  0.00    -0.002 C 
ATOM     16  C   UNL     1      -1.301  -2.688   4.050  0.00  0.00    -0.000 C 
ATOM     17  C   UNL     1       0.195  -2.370   4.047  0.00  0.00    -0.002 C 
ATOM     18  C   UNL     1       0.395  -0.859   3.905  0.00  0.00    -0.015 C 
ENDBRANCH  11  13
ENDBRANCH   4  11
ENDBRANCH   1   7
BRANCH   1  19
ATOM     19  C   UNL     1      -1.398   4.099  -3.634  0.00  0.00    +0.143 A 
ATOM     20  C   UNL     1      -2.313   5.102  -3.683  0.00  0.00    +0.037 A 
ATOM     21  C   UNL     1      -3.264   5.094  -4.678  0.00  0.00    +0.020 A 
ATOM     22  C   UNL     1      -3.262   4.066  -5.583  0.00  0.00    +0.043 A 
ATOM     23  S   UNL     1      -1.879   3.086  -5.024  0.00  0.00    -0.067 S 
BRANCH  22  24
ATOM     24  C   UNL     1      -4.169   3.830  -6.726  0.00  0.00    +0.120 A 
ATOM     25  C   UNL     1      -4.126   2.741  -7.643  0.00  0.00    +0.085 A 
ATOM     26  C   UNL     1      -5.154   2.984  -8.486  0.00  0.00    +0.240 A 
ATOM     27  O   UNL     1      -5.731   4.122  -8.073  0.00  0.00    -0.350 OA
ATOM     28  N   UNL     1      -5.182   4.578  -7.098  0.00  0.00    -0.077 NA
BRANCH  26  29
ATOM     29  C   UNL     1      -5.572   2.139  -9.662  0.00  0.00    +0.453 C 
ATOM     30  F   UNL     1      -6.506   1.186  -9.243  0.00  0.00    -0.163 F 
ATOM     31  F   UNL     1      -6.146   2.956 -10.642  0.00  0.00    -0.163 F 
ATOM     32  F   UNL     1      -4.451   1.492 -10.193  0.00  0.00    -0.163 F 
ENDBRANCH  26  29
ENDBRANCH  22  24
ENDBRANCH   1  19
TORSDOF 6
