REMARK  Name = ZINC08594011
REMARK  6 active torsions:
REMARK  status: ('A' for Active; 'I' for Inactive)
REMARK    1  A    between atoms: C_3  and  O_26
REMARK    2  A    between atoms: C_6  and  N_7
REMARK    3  A    between atoms: C_8  and  C_10
REMARK    4  A    between atoms: N_15  and  S_17
REMARK    5  A    between atoms: S_17  and  C_20
REMARK    6  A    between atoms: O_26  and  C_27
REMARK                            x       y       z     vdW  Elec       q    Type
REMARK                         _______ _______ _______ _____ _____    ______ ____
ROOT
ATOM      1  N   UNL     1      -1.202  -0.721   0.010  0.00  0.00    -0.285 N 
ATOM      2  C   UNL     1      -1.186  -2.065  -0.099  0.00  0.00    +0.222 C 
ATOM      3  O   UNL     1      -0.129  -2.660  -0.113  0.00  0.00    -0.275 OA
ATOM      4  H   UNL     1      -2.046  -0.252   0.098  0.00  0.00    +0.155 HD
ENDROOT
BRANCH   1  10
ATOM      5  C   UNL     1       1.071  -0.455  -0.767  0.00  0.00    +0.027 A 
ATOM      6  C   UNL     1       2.256   0.254  -0.780  0.00  0.00    +0.048 A 
ATOM      7  C   UNL     1       2.379   1.415  -0.032  0.00  0.00    +0.130 A 
ATOM      8  C   UNL     1       1.311   1.866   0.730  0.00  0.00    +0.048 A 
ATOM      9  C   UNL     1       0.126   1.159   0.745  0.00  0.00    +0.027 A 
ATOM     10  C   UNL     1       0.002  -0.004  -0.004  0.00  0.00    +0.034 A 
BRANCH   7  11
ATOM     11  O   UNL     1       3.547   2.112  -0.046  0.00  0.00    -0.406 OA
BRANCH  11  12
ATOM     12  C   UNL     1       3.603   3.299   0.748  0.00  0.00    +0.575 C 
ATOM     13  F   UNL     1       3.375   2.974   2.089  0.00  0.00    -0.133 F 
ATOM     14  F   UNL     1       4.866   3.886   0.619  0.00  0.00    -0.133 F 
ATOM     15  F   UNL     1       2.624   4.198   0.312  0.00  0.00    -0.133 F 
ENDBRANCH  11  12
ENDBRANCH   7  11
ENDBRANCH   1  10
BRANCH   2  16
ATOM     16  C   UNL     1      -2.482  -2.827  -0.204  0.00  0.00    +0.091 C 
ATOM     17  C   UNL     1      -3.247  -2.365  -1.446  0.00  0.00    +0.015 C 
ATOM     18  C   UNL     1      -4.578  -3.115  -1.536  0.00  0.00    +0.018 C 
ATOM     19  C   UNL     1      -4.306  -4.617  -1.666  0.00  0.00    +0.109 C 
ATOM     20  N   UNL     1      -3.448  -5.041  -0.550  0.00  0.00    -0.175 NA
ATOM     21  C   UNL     1      -2.186  -4.326  -0.318  0.00  0.00    +0.122 C 
BRANCH  20  22
ATOM     22  S   UNL     1      -3.896  -6.300   0.427  0.00  0.00    +0.067 S 
ATOM     23  O   UNL     1      -3.222  -6.113   1.665  0.00  0.00    -0.152 OA
ATOM     24  O   UNL     1      -5.310  -6.401   0.338  0.00  0.00    -0.152 OA
BRANCH  22  25
ATOM     25  C   UNL     1      -3.240  -7.772  -0.286  0.00  0.00    +0.144 A 
ATOM     26  C   UNL     1      -2.042  -8.366  -0.066  0.00  0.00    +0.037 A 
ATOM     27  C   UNL     1      -1.736  -9.530  -0.746  0.00  0.00    +0.025 A 
ATOM     28  C   UNL     1      -2.645 -10.043  -1.613  0.00  0.00    +0.057 A 
ATOM     29  S   UNL     1      -3.985  -8.871  -1.479  0.00  0.00    -0.062 S 
ATOM     30 BR   UNL     1      -2.526 -11.600  -2.680  0.00  0.00    -0.043 Br
ENDBRANCH  22  25
ENDBRANCH  20  22
ENDBRANCH   2  16
TORSDOF 6
