REMARK  Name = ZINC40009090
REMARK  15 active torsions:
REMARK  status: ('A' for Active; 'I' for Inactive)
REMARK    1  A    between atoms: C_1  and  C_2
REMARK    2  A    between atoms: C_2  and  C_3
REMARK    3  A    between atoms: C_3  and  C_4
REMARK    4  A    between atoms: C_4  and  N_5
REMARK    5  A    between atoms: N_5  and  C_6
REMARK    6  A    between atoms: N_5  and  C_10
REMARK    7  A    between atoms: C_6  and  C_7
REMARK    8  A    between atoms: C_7  and  C_8
REMARK    9  A    between atoms: C_8  and  C_9
REMARK   10  A    between atoms: C_10  and  C_11
REMARK   11  A    between atoms: C_11  and  C_12
REMARK   12  A    between atoms: C_12  and  N_13
REMARK   13  A    between atoms: C_14  and  C_31
REMARK   14  A    between atoms: C_21  and  C_30
REMARK   15  A    between atoms: C_22  and  C_29
REMARK                            x       y       z     vdW  Elec       q    Type
REMARK                         _______ _______ _______ _____ _____    ______ ____
ROOT
ATOM      1  N   UNL     1       3.571  -6.801  -0.593  0.00  0.00    -0.284 N 
ATOM      2  C   UNL     1       3.009  -7.141  -1.910  0.00  0.00    +0.147 C 
ATOM      3  C   UNL     1       4.148  -7.686  -2.709  0.00  0.00    +0.072 A 
ATOM      4  C   UNL     1       4.206  -8.199  -4.082  0.00  0.00    +0.199 A 
ATOM      5  O   UNL     1       3.288  -8.090  -4.875  0.00  0.00    -0.287 OA
ATOM      6  C   UNL     1       5.493  -8.862  -4.414  0.00  0.00    +0.065 A 
ATOM      7  C   UNL     1       5.634  -9.573  -5.605  0.00  0.00    +0.019 A 
ATOM      8  C   UNL     1       6.823 -10.183  -5.894  0.00  0.00    -0.047 A 
ATOM      9  C   UNL     1       7.886 -10.096  -5.006  0.00  0.00    -0.044 A 
ATOM     10  C   UNL     1       7.765  -9.396  -3.827  0.00  0.00    +0.050 A 
ATOM     11  C   UNL     1       6.563  -8.764  -3.510  0.00  0.00    +0.140 A 
ATOM     12  O   UNL     1       6.469  -8.074  -2.350  0.00  0.00    -0.450 OA
ATOM     13  C   UNL     1       5.263  -7.654  -1.921  0.00  0.00    +0.199 A 
ATOM     14  C   UNL     1       4.886  -7.098  -0.609  0.00  0.00    +0.283 C 
ATOM     15  O   UNL     1       5.649  -6.934   0.322  0.00  0.00    -0.267 OA
ATOM     16  C   UNL     1       9.190 -10.775  -5.338  0.00  0.00    +0.044 C 
ATOM     17  C   UNL     1       6.980 -10.952  -7.181  0.00  0.00    +0.044 C 
ENDROOT
BRANCH   2  18
ATOM     18  C   UNL     1       2.451  -5.908  -2.572  0.00  0.00    +0.013 A 
ATOM     19  C   UNL     1       2.968  -4.664  -2.265  0.00  0.00    +0.008 A 
ATOM     20  C   UNL     1       2.456  -3.533  -2.872  0.00  0.00    +0.001 A 
ATOM     21  C   UNL     1       1.425  -3.645  -3.787  0.00  0.00    +0.003 A 
ATOM     22  C   UNL     1       0.906  -4.888  -4.096  0.00  0.00    +0.039 A 
ATOM     23  C   UNL     1       1.423  -6.022  -3.492  0.00  0.00    +0.129 A 
ATOM     24  F   UNL     1       0.919  -7.238  -3.797  0.00  0.00    -0.205 F 
ENDBRANCH   2  18
BRANCH   1  25
ATOM     25  C   UNL     1       2.831  -6.231   0.537  0.00  0.00    +0.107 C 
BRANCH  25  26
ATOM     26  C   UNL     1       2.384  -7.356   1.473  0.00  0.00    +0.000 C 
BRANCH  26  27
ATOM     27  C   UNL     1       1.508  -6.776   2.585  0.00  0.00    -0.077 C 
BRANCH  27  28
ATOM     28  N   UNL     1       1.079  -7.856   3.483  0.00  0.00    +0.380 N 
ATOM     29  H   UNL     1       0.623  -8.579   2.947  0.00  0.00    -0.082 HD
BRANCH  28  30
ATOM     30  C   UNL     1       2.251  -8.420   4.166  0.00  0.00    -0.079 C 
BRANCH  30  31
ATOM     31  C   UNL     1       1.824  -9.633   4.995  0.00  0.00    -0.019 C 
BRANCH  31  33
ATOM     32  C   UNL     1       2.636 -11.514   6.426  0.00  0.00    +0.004 C 
ATOM     33  C   UNL     1       3.062 -10.300   5.598  0.00  0.00    -0.005 C 
ENDBRANCH  31  33
ENDBRANCH  30  31
ENDBRANCH  28  30
BRANCH  28  34
ATOM     34  C   UNL     1       0.142  -7.321   4.480  0.00  0.00    -0.079 C 
BRANCH  34  35
ATOM     35  C   UNL     1      -1.140  -6.864   3.781  0.00  0.00    -0.019 C 
BRANCH  35  36
ATOM     36  C   UNL     1      -2.167  -6.431   4.830  0.00  0.00    -0.005 C 
ATOM     37  C   UNL     1      -3.448  -5.973   4.130  0.00  0.00    +0.004 C 
ENDBRANCH  35  36
ENDBRANCH  34  35
ENDBRANCH  28  34
ENDBRANCH  27  28
ENDBRANCH  26  27
ENDBRANCH  25  26
ENDBRANCH   1  25
TORSDOF 11
