REMARK  Name = ZINC36550972
REMARK  12 active torsions:
REMARK  status: ('A' for Active; 'I' for Inactive)
REMARK    1  A    between atoms: C_1  and  C_2
REMARK    2  A    between atoms: C_2  and  N_3
REMARK    3  A    between atoms: N_3  and  C_4
REMARK    4  A    between atoms: N_3  and  S_10
REMARK    5  A    between atoms: S_10  and  C_13
REMARK    6  A    between atoms: C_26  and  C_29
REMARK    7  A    between atoms: C_31  and  O_39
REMARK    8  A    between atoms: C_32  and  O_37
REMARK    9  A    between atoms: C_33  and  O_35
REMARK   10  A    between atoms: O_35  and  C_36
REMARK   11  A    between atoms: O_37  and  C_38
REMARK   12  A    between atoms: O_39  and  C_40
REMARK                            x       y       z     vdW  Elec       q    Type
REMARK                         _______ _______ _______ _____ _____    ______ ____
ROOT
ATOM      1  C   UNL     1      -0.077  -0.145  -3.740  0.00  0.00    +0.109 A 
ATOM      2  C   UNL     1      -1.052   0.793  -3.450  0.00  0.00    +0.030 A 
ATOM      3  C   UNL     1      -1.226   1.888  -4.272  0.00  0.00    +0.025 A 
ATOM      4  C   UNL     1      -0.424   2.058  -5.394  0.00  0.00    +0.031 A 
ATOM      5  C   UNL     1       0.568   1.111  -5.674  0.00  0.00    -0.018 A 
ATOM      6  C   UNL     1       0.732   0.020  -4.849  0.00  0.00    +0.034 A 
ATOM      7  C   UNL     1       1.425   1.350  -6.855  0.00  0.00    +0.049 C 
ATOM      8  C   UNL     1       2.071   0.235  -7.594  0.00  0.00    -0.023 C 
ATOM      9  C   UNL     1       2.179   0.580  -8.872  0.00  0.00    -0.030 C 
ATOM     10  C   UNL     1       1.569   1.965  -9.093  0.00  0.00    +0.033 C 
ATOM     11  C   UNL     1       0.547   2.019  -7.955  0.00  0.00    +0.029 C 
ATOM     12  C   UNL     1       0.207   3.398  -7.419  0.00  0.00    +0.105 C 
ATOM     13  N   UNL     1      -0.634   3.165  -6.225  0.00  0.00    -0.336 N 
ATOM     14  H   UNL     1      -1.345   3.791  -6.014  0.00  0.00    +0.147 HD
ENDROOT
BRANCH  12  15
ATOM     15  C   UNL     1       1.466   4.133  -7.037  0.00  0.00    -0.020 A 
ATOM     16  C   UNL     1       2.125   4.905  -7.975  0.00  0.00    +0.055 A 
ATOM     17  C   UNL     1       3.284   5.583  -7.628  0.00  0.00    +0.165 A 
ATOM     18  C   UNL     1       3.783   5.484  -6.334  0.00  0.00    +0.204 A 
ATOM     19  C   UNL     1       3.117   4.707  -5.394  0.00  0.00    +0.165 A 
ATOM     20  C   UNL     1       1.956   4.037  -5.748  0.00  0.00    +0.055 A 
BRANCH  19  21
ATOM     21  O   UNL     1       3.602   4.607  -4.127  0.00  0.00    -0.491 OA
ATOM     22  C   UNL     1       2.866   3.791  -3.213  0.00  0.00    +0.277 C 
ENDBRANCH  19  21
BRANCH  18  23
ATOM     23  O   UNL     1       4.920   6.147  -5.989  0.00  0.00    -0.488 OA
ATOM     24  C   UNL     1       4.769   7.474  -5.481  0.00  0.00    +0.277 C 
ENDBRANCH  18  23
BRANCH  17  25
ATOM     25  O   UNL     1       3.932   6.342  -8.551  0.00  0.00    -0.491 OA
ATOM     26  C   UNL     1       3.362   6.397  -9.861  0.00  0.00    +0.277 C 
ENDBRANCH  17  25
ENDBRANCH  12  15
BRANCH   1  27
ATOM     27  S   UNL     1       0.136  -1.546  -2.693  0.00  0.00    +0.075 S 
ATOM     28  O   UNL     1       0.887  -2.497  -3.435  0.00  0.00    -0.150 OA
ATOM     29  O   UNL     1      -1.141  -1.843  -2.146  0.00  0.00    -0.150 OA
BRANCH  27  30
ATOM     30  N   UNL     1       1.093  -1.070  -1.428  0.00  0.00    -0.203 N 
BRANCH  30  31
ATOM     31  C   UNL     1       2.482  -1.194  -1.518  0.00  0.00    +0.051 A 
ATOM     32  C   UNL     1       3.103  -1.184  -2.760  0.00  0.00    +0.025 A 
ATOM     33  C   UNL     1       4.476  -1.306  -2.845  0.00  0.00    +0.002 A 
ATOM     34  C   UNL     1       5.232  -1.440  -1.695  0.00  0.00    +0.000 A 
ATOM     35  C   UNL     1       4.617  -1.451  -0.456  0.00  0.00    +0.002 A 
ATOM     36  C   UNL     1       3.245  -1.323  -0.364  0.00  0.00    +0.025 A 
ENDBRANCH  30  31
BRANCH  30  38
ATOM     37  C   UNL     1       0.468   1.008  -0.301  0.00  0.00    +0.026 C 
ATOM     38  C   UNL     1       0.484  -0.519  -0.215  0.00  0.00    +0.128 C 
ENDBRANCH  30  38
ENDBRANCH  27  30
ENDBRANCH   1  27
TORSDOF 8
