REMARK  Name = ZINC62495525
REMARK  4 active torsions:
REMARK  status: ('A' for Active; 'I' for Inactive)
REMARK    1  A    between atoms: C_4  and  C_21
REMARK    2  A    between atoms: C_5  and  C_7
REMARK    3  A    between atoms: C_7  and  C_8
REMARK    4  A    between atoms: C_15  and  O_20
REMARK                            x       y       z     vdW  Elec       q    Type
REMARK                         _______ _______ _______ _____ _____    ______ ____
ROOT
ATOM      1  C   UNL     1       1.448  -2.735   1.291  0.00  0.00    +0.263 C 
ATOM      2  C   UNL     1       1.540  -4.238   1.228  0.00  0.00    +0.258 C 
ATOM      3  O   UNL     1       0.533  -4.913   1.290  0.00  0.00    -0.271 OA
ATOM      4  N   UNL     1       2.745  -4.830   1.101  0.00  0.00    -0.279 N 
ATOM      5  C   UNL     1       3.904  -4.043   1.157  0.00  0.00    +0.079 A 
ATOM      6  C   UNL     1       5.134  -4.575   0.807  0.00  0.00    +0.072 A 
ATOM      7  C   UNL     1       6.269  -3.779   0.855  0.00  0.00    +0.119 A 
ATOM      8  C   UNL     1       6.171  -2.454   1.253  0.00  0.00    +0.049 A 
ATOM      9  C   UNL     1       4.945  -1.923   1.609  0.00  0.00    +0.051 A 
ATOM     10  C   UNL     1       3.811  -2.715   1.567  0.00  0.00    +0.143 A 
ATOM     11  O   UNL     1       2.605  -2.210   1.945  0.00  0.00    -0.477 OA
ATOM     12  H   UNL     1       2.810  -5.790   0.973  0.00  0.00    +0.155 HD
ENDROOT
BRANCH   7  13
ATOM     13  O   UNL     1       7.478  -4.299   0.512  0.00  0.00    -0.507 OA
ATOM     14  H   UNL     1       7.693  -4.207  -0.426  0.00  0.00    +0.292 HD
ENDBRANCH   7  13
BRANCH   1  15
ATOM     15  C   UNL     1       1.364  -2.169  -0.129  0.00  0.00    +0.090 C 
BRANCH  15  20
ATOM     16  C   UNL     1       0.801   1.314   1.215  0.00  0.00    +0.000 A 
ATOM     17  C   UNL     1       0.822   2.064   0.054  0.00  0.00    +0.001 A 
ATOM     18  C   UNL     1       1.018   1.444  -1.166  0.00  0.00    +0.012 A 
ATOM     19  C   UNL     1       1.194   0.074  -1.225  0.00  0.00    +0.058 A 
ATOM     20  C   UNL     1       1.174  -0.676  -0.064  0.00  0.00    -0.032 A 
ATOM     21  C   UNL     1       0.977  -0.056   1.156  0.00  0.00    +0.004 A 
BRANCH  19  22
ATOM     22  C   UNL     1       1.406  -0.602  -2.555  0.00  0.00    +0.418 C 
ATOM     23  F   UNL     1       1.338   0.350  -3.578  0.00  0.00    -0.166 F 
ATOM     24  F   UNL     1       2.663  -1.215  -2.571  0.00  0.00    -0.166 F 
ATOM     25  F   UNL     1       0.414  -1.568  -2.751  0.00  0.00    -0.166 F 
ENDBRANCH  19  22
ENDBRANCH  15  20
ENDBRANCH   1  15
TORSDOF 4
