REMARK  Name = ZINC09047481
REMARK  10 active torsions:
REMARK  status: ('A' for Active; 'I' for Inactive)
REMARK    1  A    between atoms: C_1  and  C_2
REMARK    2  A    between atoms: C_5  and  C_32
REMARK    3  A    between atoms: C_9  and  C_10
REMARK    4  A    between atoms: C_9  and  N_60
REMARK    5  A    between atoms: C_11  and  O_31
REMARK    6  A    between atoms: C_18  and  C_19
REMARK    7  A    between atoms: C_22  and  O_27
REMARK    8  A    between atoms: C_23  and  O_25
REMARK    9  A    between atoms: O_25  and  C_26
REMARK   10  A    between atoms: O_27  and  C_28
REMARK                            x       y       z     vdW  Elec       q    Type
REMARK                         _______ _______ _______ _____ _____    ______ ____
ROOT
ATOM      1  C   UNL     1      -1.172  10.376   1.311  0.00  0.00    +0.020 A 
ATOM      2  C   UNL     1      -1.084  11.691   0.885  0.00  0.00    +0.122 A 
ATOM      3  C   UNL     1      -0.480  12.002  -0.331  0.00  0.00    +0.046 A 
ATOM      4  C   UNL     1       0.033  11.009  -1.116  0.00  0.00    +0.019 A 
ATOM      5  C   UNL     1      -0.049   9.680  -0.699  0.00  0.00    +0.068 A 
ATOM      6  C   UNL     1      -0.656   9.354   0.524  0.00  0.00    +0.144 A 
ATOM      7  O   UNL     1      -0.621   8.016   0.707  0.00  0.00    -0.451 OA
ATOM      8  C   UNL     1      -0.011   7.383  -0.322  0.00  0.00    +0.176 C 
ATOM      9  C   UNL     1       0.186   6.045  -0.437  0.00  0.00    +0.058 C 
ATOM     10  C   UNL     1       0.393   8.407  -1.296  0.00  0.00    +0.231 C 
ATOM     11  O   UNL     1       0.966   8.241  -2.359  0.00  0.00    -0.283 OA
ENDROOT
BRANCH   9  12
ATOM     12  C   UNL     1      -0.375   5.131   0.566  0.00  0.00    -0.018 A 
ATOM     13  C   UNL     1      -1.002   5.643   1.710  0.00  0.00    +0.012 A 
ATOM     14  C   UNL     1      -1.527   4.784   2.649  0.00  0.00    +0.050 A 
ATOM     15  C   UNL     1      -1.441   3.410   2.464  0.00  0.00    +0.162 A 
ATOM     16  C   UNL     1      -0.814   2.892   1.331  0.00  0.00    +0.162 A 
ATOM     17  C   UNL     1      -0.284   3.746   0.384  0.00  0.00    +0.057 A 
BRANCH  16  18
ATOM     18  O   UNL     1      -0.729   1.546   1.156  0.00  0.00    -0.491 OA
ATOM     19  C   UNL     1      -0.078   1.086  -0.030  0.00  0.00    +0.277 C 
ENDBRANCH  16  18
BRANCH  15  20
ATOM     20  O   UNL     1      -1.966   2.568   3.391  0.00  0.00    -0.491 OA
ATOM     21  C   UNL     1      -2.595   3.165   4.527  0.00  0.00    +0.277 C 
ENDBRANCH  15  20
ENDBRANCH   9  12
BRANCH   2  22
ATOM     22  O   UNL     1      -1.590  12.685   1.659  0.00  0.00    -0.506 OA
ATOM     23  H   UNL     1      -0.956  13.053   2.290  0.00  0.00    +0.292 HD
ENDBRANCH   2  22
BRANCH   1  24
ATOM     24  C   UNL     1      -1.828  10.054   2.629  0.00  0.00    -0.036 C 
BRANCH  24  32
ATOM     25  C   UNL     1      -1.029   9.823   7.477  0.00  0.00    +0.005 C 
ATOM     26  C   UNL     1      -0.371   9.878   6.097  0.00  0.00    -0.031 C 
ATOM     27  C   UNL     1       0.558  11.093   6.021  0.00  0.00    +0.003 C 
ATOM     28  C   UNL     1       1.166  11.174   4.618  0.00  0.00    -0.031 C 
ATOM     29  C   UNL     1       0.041  11.259   3.584  0.00  0.00    -0.075 C 
ATOM     30  C   UNL     1      -1.452  10.001   5.020  0.00  0.00    -0.075 C 
ATOM     31  C   UNL     1       2.049  12.419   4.516  0.00  0.00    +0.005 C 
ATOM     32  N   UNL     1      -0.802  10.050   3.692  0.00  0.00    +0.383 N 
ATOM     33  H   UNL     1      -0.209   9.220   3.581  0.00  0.00    -0.081 HD
ENDBRANCH  24  32
ENDBRANCH   1  24
TORSDOF 6
