REMARK  Name = ZINC38915575
REMARK  8 active torsions:
REMARK  status: ('A' for Active; 'I' for Inactive)
REMARK    1  A    between atoms: C_10  and  C_11
REMARK    2  A    between atoms: C_11  and  S_12
REMARK    3  A    between atoms: S_12  and  C_13
REMARK    4  A    between atoms: C_17  and  S_20
REMARK    5  A    between atoms: S_20  and  C_21
REMARK    6  A    between atoms: C_21  and  C_22
REMARK    7  A    between atoms: N_24  and  N_25
REMARK    8  A    between atoms: C_26  and  C_27
REMARK                            x       y       z     vdW  Elec       q    Type
REMARK                         _______ _______ _______ _____ _____    ______ ____
ROOT
ATOM      1  C   UNL     1       7.043   1.393   1.477  0.00  0.00    +0.187 C 
ATOM      2  N   UNL     1       6.831   2.630   0.674  0.00  0.00    -0.232 NA
ATOM      3  N   UNL     1       8.005   2.966  -0.123  0.00  0.00    -0.232 NA
ATOM      4  C   UNL     1       8.469   1.763  -0.883  0.00  0.00    +0.187 C 
ATOM      5  S   UNL     1       8.244   0.476   0.423  0.00  0.00    -0.099 S 
ATOM      6  H   UNL     1       6.010   2.548   0.093  0.00  0.00    +0.143 HD
ATOM      7  H   UNL     1       8.743   3.334   0.458  0.00  0.00    +0.143 HD
ENDROOT
BRANCH   1   8
ATOM      8  S   UNL     1       5.496   0.464   1.661  0.00  0.00    -0.125 S 
BRANCH   8   9
ATOM      9  C   UNL     1       4.960   0.161  -0.046  0.00  0.00    +0.107 C 
BRANCH   9  19
ATOM     10  C   UNL     1      -0.016   1.357   0.009  0.00  0.00    +0.001 A 
ATOM     11  C   UNL     1       1.169   2.091   0.002  0.00  0.00    +0.001 A 
ATOM     12  C   UNL     1       2.378   1.468  -0.013  0.00  0.00    +0.009 A 
ATOM     13  C   UNL     1       2.438   0.064  -0.021  0.00  0.00    -0.014 A 
ATOM     14  C   UNL     1       1.233  -0.683  -0.013  0.00  0.00    -0.018 A 
ATOM     15  C   UNL     1       0.002  -0.004   0.002  0.00  0.00    +0.008 A 
ATOM     16  C   UNL     1       1.292  -2.087  -0.021  0.00  0.00    +0.008 A 
ATOM     17  C   UNL     1       2.502  -2.709  -0.036  0.00  0.00    +0.001 A 
ATOM     18  C   UNL     1       3.687  -1.976  -0.043  0.00  0.00    +0.005 A 
ATOM     19  C   UNL     1       3.668  -0.615  -0.037  0.00  0.00    -0.030 A 
ENDBRANCH   9  19
ENDBRANCH   8   9
ENDBRANCH   1   8
BRANCH   4  20
ATOM     20  S   UNL     1      10.209   1.917  -1.370  0.00  0.00    -0.121 S 
BRANCH  20  21
ATOM     21  C   UNL     1      11.093   2.082   0.206  0.00  0.00    +0.169 C 
BRANCH  21  22
ATOM     22  C   UNL     1      12.570   2.220  -0.059  0.00  0.00    +0.242 C 
ATOM     23  O   UNL     1      12.986   2.208  -1.198  0.00  0.00    -0.273 OA
ATOM     24  N   UNL     1      13.429   2.357   0.971  0.00  0.00    -0.206 N 
ATOM     25  H   UNL     1      13.096   2.367   1.882  0.00  0.00    +0.177 HD
BRANCH  24  26
ATOM     26  N   UNL     1      14.802   2.486   0.725  0.00  0.00    -0.188 NA
ATOM     27  C   UNL     1      15.636   2.618   1.725  0.00  0.00    +0.136 C 
BRANCH  27  28
ATOM     28  C   UNL     1      17.011   2.747   1.479  0.00  0.00    +0.000 C 
ATOM     29  C   UNL     1      18.025   2.890   2.423  0.00  0.00    +0.004 A 
ATOM     30  C   UNL     1      18.015   2.949   3.834  0.00  0.00    +0.010 A 
ATOM     31  C   UNL     1      19.182   3.096   4.510  0.00  0.00    +0.001 A 
ATOM     32  C   UNL     1      20.408   3.192   3.844  0.00  0.00    +0.002 A 
ATOM     33  C   UNL     1      20.494   3.143   2.493  0.00  0.00    +0.026 A 
ATOM     34  C   UNL     1      19.314   2.990   1.716  0.00  0.00    +0.043 A 
ATOM     35  N   UNL     1      19.132   2.916   0.414  0.00  0.00    -0.380 N 
ATOM     36  C   UNL     1      17.703   2.753   0.134  0.00  0.00    +0.150 C 
ATOM     37  H   UNL     1      19.834   2.959  -0.254  0.00  0.00    +0.160 HD
ENDBRANCH  27  28
ENDBRANCH  24  26
ENDBRANCH  21  22
ENDBRANCH  20  21
ENDBRANCH   4  20
TORSDOF 8
