REMARK  Name = ZINC23461550
REMARK  9 active torsions:
REMARK  status: ('A' for Active; 'I' for Inactive)
REMARK    1  A    between atoms: C_1  and  C_2
REMARK    2  A    between atoms: C_6  and  C_8
REMARK    3  A    between atoms: C_8  and  O_9
REMARK    4  A    between atoms: O_9  and  C_10
REMARK    5  A    between atoms: C_10  and  C_12
REMARK    6  A    between atoms: C_10  and  C_31
REMARK    7  A    between atoms: C_12  and  N_13
REMARK    8  A    between atoms: C_19  and  C_21
REMARK    9  A    between atoms: C_22  and  C_30
REMARK                            x       y       z     vdW  Elec       q    Type
REMARK                         _______ _______ _______ _____ _____    ______ ____
ROOT
ATOM      1  N   UNL     1      -1.223  -0.036  -2.088  0.00  0.00    +0.384 N 
ATOM      2  C   UNL     1      -2.551  -0.407  -2.595  0.00  0.00    -0.059 C 
ATOM      3  C   UNL     1      -2.667   0.005  -4.066  0.00  0.00    +0.089 C 
ATOM      4  N   UNL     1      -1.536  -0.576  -4.804  0.00  0.00    -0.299 N 
ATOM      5  C   UNL     1      -0.179  -0.362  -4.279  0.00  0.00    +0.089 C 
ATOM      6  C   UNL     1      -0.161  -0.760  -2.800  0.00  0.00    -0.059 C 
ATOM      7  C   UNL     1      -1.737  -1.286  -5.933  0.00  0.00    +0.282 C 
ATOM      8  O   UNL     1      -2.852  -1.359  -6.414  0.00  0.00    -0.267 OA
ATOM      9  H   UNL     1      -1.081   1.038  -2.278  0.00  0.00    -0.082 HD
ENDROOT
BRANCH   7  10
ATOM     10  C   UNL     1      -0.610  -1.971  -6.581  0.00  0.00    +0.194 A 
ATOM     11  C   UNL     1      -0.657  -2.577  -7.795  0.00  0.00    +0.008 A 
ATOM     12  C   UNL     1       0.682  -3.115  -8.032  0.00  0.00    +0.024 A 
ATOM     13  C   UNL     1       1.273  -3.830  -9.076  0.00  0.00    +0.012 A 
ATOM     14  C   UNL     1       2.585  -4.199  -8.986  0.00  0.00    +0.001 A 
ATOM     15  C   UNL     1       3.334  -3.869  -7.865  0.00  0.00    +0.004 A 
ATOM     16  C   UNL     1       2.769  -3.164  -6.824  0.00  0.00    +0.047 A 
ATOM     17  C   UNL     1       1.436  -2.777  -6.893  0.00  0.00    +0.136 A 
ATOM     18  O   UNL     1       0.627  -2.098  -6.056  0.00  0.00    -0.450 OA
ATOM     19  C   UNL     1      -1.848  -2.674  -8.713  0.00  0.00    +0.048 C 
ENDBRANCH   7  10
BRANCH   1  20
ATOM     20  C   UNL     1      -1.132  -0.257  -0.639  0.00  0.00    -0.042 C 
BRANCH  20  21
ATOM     21  C   UNL     1       0.142   0.399  -0.103  0.00  0.00    +0.132 C 
BRANCH  21  22
ATOM     22  C   UNL     1       0.301   0.067   1.359  0.00  0.00    -0.021 A 
ATOM     23  C   UNL     1      -0.414   0.770   2.309  0.00  0.00    +0.007 A 
ATOM     24  C   UNL     1      -0.273   0.462   3.649  0.00  0.00    +0.020 A 
ATOM     25  C   UNL     1       0.594  -0.544   4.040  0.00  0.00    +0.041 A 
ATOM     26  C   UNL     1       1.314  -1.244   3.088  0.00  0.00    +0.020 A 
ATOM     27  C   UNL     1       1.167  -0.938   1.748  0.00  0.00    +0.007 A 
ATOM     28 CL   UNL     1       0.778  -0.926   5.723  0.00  0.00    -0.084 Cl
ENDBRANCH  21  22
BRANCH  21  29
ATOM     29  O   UNL     1       0.050   1.817  -0.261  0.00  0.00    -0.369 OA
BRANCH  29  30
ATOM     30  C   UNL     1       1.316   2.475  -0.346  0.00  0.00    +0.195 C 
BRANCH  30  36
ATOM     31  C   UNL     1       0.375   6.647  -2.945  0.00  0.00    +0.044 C 
ATOM     32  C   UNL     1       0.654   5.962  -1.631  0.00  0.00    -0.050 A 
ATOM     33  C   UNL     1       0.717   6.703  -0.466  0.00  0.00    +0.003 A 
ATOM     34  C   UNL     1       0.974   6.075   0.739  0.00  0.00    +0.001 A 
ATOM     35  C   UNL     1       1.167   4.707   0.778  0.00  0.00    +0.006 A 
ATOM     36  C   UNL     1       1.104   3.966  -0.388  0.00  0.00    -0.022 A 
ATOM     37  C   UNL     1       0.853   4.595  -1.593  0.00  0.00    +0.009 A 
ENDBRANCH  30  36
ENDBRANCH  29  30
ENDBRANCH  21  29
ENDBRANCH  20  21
ENDBRANCH   1  20
TORSDOF 7
