REMARK  Name = ZINC09957350
REMARK  8 active torsions:
REMARK  status: ('A' for Active; 'I' for Inactive)
REMARK    1  A    between atoms: C_1  and  C_2
REMARK    2  A    between atoms: C_3  and  C_15
REMARK    3  A    between atoms: N_5  and  C_7
REMARK    4  A    between atoms: C_7  and  C_8
REMARK    5  A    between atoms: C_16  and  C_17
REMARK    6  A    between atoms: N_19  and  C_20
REMARK    7  A    between atoms: C_24  and  S_26
REMARK    8  A    between atoms: S_26  and  N_29
REMARK                            x       y       z     vdW  Elec       q    Type
REMARK                         _______ _______ _______ _____ _____    ______ ____
ROOT
ATOM      1  C   UNL     1       1.119   2.119   0.003  0.00  0.00    +0.241 C 
ATOM      2  O   UNL     1       2.197   1.562  -0.101  0.00  0.00    -0.270 OA
ATOM      3  N   UNL     1      -0.017   1.394   0.010  0.00  0.00    -0.282 N 
ATOM      4  H   UNL     1      -0.878   1.841   0.021  0.00  0.00    +0.155 HD
ENDROOT
BRANCH   3   5
ATOM      5  C   UNL     1       0.045  -0.003  -0.006  0.00  0.00    +0.036 A 
ATOM      6  C   UNL     1      -0.898  -0.750   0.688  0.00  0.00    +0.023 A 
ATOM      7  C   UNL     1      -0.834  -2.129   0.670  0.00  0.00    +0.004 A 
ATOM      8  C   UNL     1       0.168  -2.767  -0.038  0.00  0.00    +0.029 A 
ATOM      9  C   UNL     1       1.108  -2.026  -0.731  0.00  0.00    +0.110 A 
ATOM     10  C   UNL     1       1.047  -0.647  -0.721  0.00  0.00    +0.052 A 
BRANCH   9  11
ATOM     11  S   UNL     1       2.382  -2.844  -1.633  0.00  0.00    +0.073 S 
ATOM     12  O   UNL     1       3.456  -1.921  -1.746  0.00  0.00    -0.150 OA
ATOM     13  O   UNL     1       2.539  -4.127  -1.041  0.00  0.00    -0.150 OA
BRANCH  11  14
ATOM     14  N   UNL     1       1.811  -3.098  -3.166  0.00  0.00    -0.205 N 
ATOM     15  C   UNL     1       1.538  -2.030  -3.981  0.00  0.00    +0.088 C 
ATOM     16  C   UNL     1       1.321   0.126  -4.721  0.00  0.00    +0.114 C 
ATOM     17  C   UNL     1       0.490  -0.722  -5.712  0.00  0.00    +0.028 C 
ATOM     18  C   UNL     1       1.020  -2.144  -5.397  0.00  0.00    +0.072 C 
ATOM     19  H   UNL     1       1.670  -4.002  -3.488  0.00  0.00    +0.175 HD
ATOM     20  N   UNL     1       1.699  -0.793  -3.626  0.00  0.00    -0.375 N 
ATOM     21  H   UNL     1       2.044  -0.491  -2.707  0.00  0.00    +0.161 HD
ENDBRANCH  11  14
ENDBRANCH   9  11
ENDBRANCH   3   5
BRANCH   1  23
ATOM     22  C   UNL     1       2.199   4.257   0.112  0.00  0.00    +0.018 C 
ATOM     23  C   UNL     1       1.060   3.530   0.119  0.00  0.00    +0.068 C 
BRANCH  22  26
ATOM     24  C   UNL     1       3.873   6.024   2.148  0.00  0.00    +0.068 C 
ATOM     25  C   UNL     1       2.876   6.522   1.133  0.00  0.00    +0.069 A 
ATOM     26  C   UNL     1       2.137   5.720   0.232  0.00  0.00    +0.034 A 
ATOM     27  C   UNL     1       1.340   6.574  -0.513  0.00  0.00    +0.135 A 
ATOM     28  N   UNL     1       1.588   7.825  -0.088  0.00  0.00    -0.248 N 
ATOM     29  N   UNL     1       2.546   7.767   0.931  0.00  0.00    -0.174 NA
ATOM     30 CL   UNL     1       0.228   6.114  -1.764  0.00  0.00    -0.062 Cl
BRANCH  28  31
ATOM     31  C   UNL     1       0.961   9.044  -0.604  0.00  0.00    +0.180 C 
BRANCH  31  32
ATOM     32  C   UNL     1      -0.289   9.339   0.184  0.00  0.00    -0.026 A 
ATOM     33  C   UNL     1      -1.504   8.824  -0.228  0.00  0.00    +0.005 A 
ATOM     34  C   UNL     1      -2.650   9.090   0.498  0.00  0.00    +0.000 A 
ATOM     35  C   UNL     1      -2.582   9.881   1.629  0.00  0.00    +0.000 A 
ATOM     36  C   UNL     1      -1.369  10.401   2.038  0.00  0.00    +0.000 A 
ATOM     37  C   UNL     1      -0.222  10.130   1.316  0.00  0.00    +0.005 A 
ENDBRANCH  31  32
ENDBRANCH  28  31
ENDBRANCH  22  26
ENDBRANCH   1  23
TORSDOF 7
