REMARK  Name = ZINC39977760
REMARK  6 active torsions:
REMARK  status: ('A' for Active; 'I' for Inactive)
REMARK    1  A    between atoms: C_4  and  S_7
REMARK    2  A    between atoms: S_7  and  N_10
REMARK    3  A    between atoms: N_10  and  C_11
REMARK    4  A    between atoms: C_14  and  C_18
REMARK    5  A    between atoms: C_18  and  C_19
REMARK    6  A    between atoms: C_19  and  N_21
REMARK                            x       y       z     vdW  Elec       q    Type
REMARK                         _______ _______ _______ _____ _____    ______ ____
ROOT
ATOM      1  C   UNL     1       3.517  -1.968   2.409  0.00  0.00    +0.203 C 
ATOM      2  N   UNL     1       4.353  -2.555   3.501  0.00  0.00    -0.288 NA
ATOM      3  C   UNL     1       3.492  -3.002   4.612  0.00  0.00    +0.074 C 
ATOM      4  C   UNL     1       2.494  -1.881   5.004  0.00  0.00    +0.091 C 
ATOM      5  S   UNL     1       2.313  -0.986   3.403  0.00  0.00    -0.124 S 
ATOM      6  H   UNL     1       4.918  -3.315   3.154  0.00  0.00    +0.125 HD
ENDROOT
BRANCH   1   7
ATOM      7  N   UNL     1       4.316  -1.103   1.537  0.00  0.00    -0.164 NA
ATOM      8  H   UNL     1       5.113  -0.671   1.881  0.00  0.00    +0.151 HD
BRANCH   7   9
ATOM      9  S   UNL     1       3.857  -0.864  -0.036  0.00  0.00    +0.060 S 
ATOM     10  O   UNL     1       3.600  -2.149  -0.584  0.00  0.00    -0.153 OA
ATOM     11  O   UNL     1       4.805   0.030  -0.603  0.00  0.00    -0.153 OA
BRANCH   9  15
ATOM     12  C   UNL     1      -0.104   1.326   0.041  0.00  0.00    +0.000 A 
ATOM     13  C   UNL     1       1.080   2.039   0.021  0.00  0.00    +0.002 A 
ATOM     14  C   UNL     1       2.290   1.371  -0.003  0.00  0.00    +0.028 A 
ATOM     15  C   UNL     1       2.316  -0.012  -0.005  0.00  0.00    +0.105 A 
ATOM     16  C   UNL     1       1.132  -0.725   0.016  0.00  0.00    +0.028 A 
ATOM     17  C   UNL     1      -0.078  -0.056   0.037  0.00  0.00    +0.002 A 
ENDBRANCH   9  15
ENDBRANCH   7   9
ENDBRANCH   1   7
BRANCH   3  18
ATOM     18  C   UNL     1       4.365  -3.346   5.821  0.00  0.00    +0.117 C 
BRANCH  18  19
ATOM     19  C   UNL     1       5.212  -4.551   5.502  0.00  0.00    +0.240 C 
ATOM     20  O   UNL     1       5.126  -5.084   4.413  0.00  0.00    -0.274 OA
BRANCH  19  21
ATOM     21  N   UNL     1       6.053  -5.031   6.412  0.00  0.00    -0.157 NA
ATOM     22  C   UNL     1       6.723  -6.155   6.171  0.00  0.00    +0.164 A 
ATOM     23  N   UNL     1       6.757  -6.874   5.020  0.00  0.00    -0.335 N 
ATOM     24  H   UNL     1       6.250  -6.579   4.248  0.00  0.00    +0.168 HD
ATOM     25  C   UNL     1       7.516  -8.026   4.951  0.00  0.00    +0.055 A 
ATOM     26  C   UNL     1       7.691  -8.908   3.876  0.00  0.00    +0.027 A 
ATOM     27  C   UNL     1       8.497 -10.016   4.002  0.00  0.00    +0.002 A 
ATOM     28  C   UNL     1       9.155 -10.292   5.189  0.00  0.00    +0.001 A 
ATOM     29  C   UNL     1       8.999  -9.437   6.266  0.00  0.00    +0.017 A 
ATOM     30  C   UNL     1       8.195  -8.329   6.140  0.00  0.00    +0.039 A 
ATOM     31  S   UNL     1       7.726  -7.003   7.220  0.00  0.00    -0.052 S 
ENDBRANCH  19  21
ENDBRANCH  18  19
ENDBRANCH   3  18
TORSDOF 6
