REMARK  Name = ZINC39452635
REMARK  7 active torsions:
REMARK  status: ('A' for Active; 'I' for Inactive)
REMARK    1  A    between atoms: C_1  and  C_2
REMARK    2  A    between atoms: C_2  and  O_3
REMARK    3  A    between atoms: O_3  and  C_4
REMARK    4  A    between atoms: N_16  and  O_19
REMARK    5  A    between atoms: O_19  and  C_20
REMARK    6  A    between atoms: C_24  and  C_27
REMARK    7  A    between atoms: C_32  and  O_33
REMARK                            x       y       z     vdW  Elec       q    Type
REMARK                         _______ _______ _______ _____ _____    ______ ____
ROOT
ATOM      1  C   UNL     1       1.242  -1.025   1.776  0.00  0.00    +0.130 A 
ATOM      2  C   UNL     1       0.675  -1.727   0.735  0.00  0.00    +0.046 A 
ATOM      3  C   UNL     1       0.680  -3.117   0.713  0.00  0.00    +0.006 A 
ATOM      4  C   UNL     1       1.242  -3.850   1.714  0.00  0.00    +0.028 A 
ATOM      5  C   UNL     1       1.839  -3.199   2.808  0.00  0.00    +0.075 A 
ATOM      6  C   UNL     1       1.844  -1.734   2.835  0.00  0.00    +0.043 A 
ATOM      7  C   UNL     1       2.444  -1.077   3.918  0.00  0.00    +0.029 A 
ATOM      8  C   UNL     1       3.011  -1.859   4.915  0.00  0.00    +0.070 A 
ATOM      9  C   UNL     1       2.974  -3.275   4.824  0.00  0.00    +0.100 A 
ATOM     10  N   UNL     1       2.397  -3.886   3.805  0.00  0.00    -0.244 NA
ATOM     11  C   UNL     1       3.586  -4.053   5.914  0.00  0.00    +0.085 A 
ATOM     12  C   UNL     1       4.176  -3.401   6.978  0.00  0.00    +0.149 A 
ATOM     13  N   UNL     1       4.199  -2.012   7.042  0.00  0.00    -0.139 N 
ATOM     14  C   UNL     1       3.657  -1.241   6.083  0.00  0.00    +0.293 A 
ATOM     15  O   UNL     1       3.703  -0.028   6.182  0.00  0.00    -0.264 OA
ATOM     16  C   UNL     1       4.772  -4.150   8.019  0.00  0.00    +0.187 C 
ATOM     17  O   UNL     1       5.247  -3.575   8.978  0.00  0.00    -0.290 OA
ATOM     18  C   UNL     1       4.822  -5.654   7.951  0.00  0.00    +0.108 C 
ATOM     19  C   UNL     1       3.620  -6.167   7.152  0.00  0.00    +0.112 C 
ATOM     20  N   UNL     1       3.568  -5.434   5.877  0.00  0.00    -0.333 N 
ATOM     21  H   UNL     1       3.522  -5.909   5.032  0.00  0.00    +0.147 HD
ENDROOT
BRANCH  19  22
ATOM     22  C   UNL     1       2.352  -5.925   7.929  0.00  0.00    +0.014 A 
ATOM     23  C   UNL     1       1.522  -4.874   7.589  0.00  0.00    +0.009 A 
ATOM     24  C   UNL     1       0.359  -4.651   8.302  0.00  0.00    +0.001 A 
ATOM     25  C   UNL     1       0.023  -5.479   9.358  0.00  0.00    +0.004 A 
ATOM     26  C   UNL     1       0.849  -6.531   9.702  0.00  0.00    +0.046 A 
ATOM     27  C   UNL     1       2.014  -6.760   8.984  0.00  0.00    +0.122 A 
BRANCH  27  28
ATOM     28  O   UNL     1       2.826  -7.798   9.317  0.00  0.00    -0.506 OA
ATOM     29  H   UNL     1       3.503  -7.574   9.970  0.00  0.00    +0.292 HD
ENDBRANCH  27  28
ENDBRANCH  19  22
BRANCH  13  30
ATOM     30  O   UNL     1       4.813  -1.388   8.155  0.00  0.00    -0.411 OA
ATOM     31  C   UNL     1       6.206  -1.122   7.977  0.00  0.00    +0.311 C 
ENDBRANCH  13  30
BRANCH   1  32
ATOM     32  O   UNL     1       1.227   0.332   1.778  0.00  0.00    -0.492 OA
BRANCH  32  34
ATOM     33  C   UNL     1       0.678   2.493   0.846  0.00  0.00    +0.048 C 
ATOM     34  C   UNL     1       0.598   0.976   0.668  0.00  0.00    +0.226 C 
ENDBRANCH  32  34
ENDBRANCH   1  32
TORSDOF 5
