REMARK  Name = ZINC12833124
REMARK  10 active torsions:
REMARK  status: ('A' for Active; 'I' for Inactive)
REMARK    1  A    between atoms: C_1  and  C_2
REMARK    2  A    between atoms: C_5  and  C_35
REMARK    3  A    between atoms: C_9  and  C_14
REMARK    4  A    between atoms: C_14  and  N_63
REMARK    5  A    between atoms: C_15  and  C_16
REMARK    6  A    between atoms: C_15  and  N_63
REMARK    7  A    between atoms: C_22  and  C_23
REMARK    8  A    between atoms: C_22  and  N_63
REMARK    9  A    between atoms: N_27  and  C_28
REMARK   10  A    between atoms: C_28  and  C_29
REMARK                            x       y       z     vdW  Elec       q    Type
REMARK                         _______ _______ _______ _____ _____    ______ ____
ROOT
ATOM      1  N   UNL     1       0.235  -1.037   1.301  0.00  0.00    +0.390 N 
ATOM      2  H   UNL     1       0.459  -0.048   1.138  0.00  0.00    -0.080 HD
ENDROOT
BRANCH   1   3
ATOM      3  C   UNL     1       1.129  -1.875   0.475  0.00  0.00    -0.036 C 
BRANCH   3  12
ATOM      4  C   UNL     1       4.432   1.477  -1.755  0.00  0.00    +0.044 C 
ATOM      5  C   UNL     1       3.401   1.108  -2.791  0.00  0.00    -0.041 A 
ATOM      6  C   UNL     1       3.466   1.647  -4.045  0.00  0.00    +0.004 A 
ATOM      7  C   UNL     1       2.521   1.313  -5.006  0.00  0.00    +0.005 A 
ATOM      8  C   UNL     1       1.501   0.433  -4.714  0.00  0.00    -0.026 A 
ATOM      9  C   UNL     1       1.415  -0.128  -3.444  0.00  0.00    +0.052 A 
ATOM     10  C   UNL     1       2.375   0.213  -2.472  0.00  0.00    +0.002 A 
ATOM     11  C   UNL     1       2.276  -0.383  -1.138  0.00  0.00    +0.017 A 
ATOM     12  C   UNL     1       1.259  -1.244  -0.887  0.00  0.00    +0.001 A 
ATOM     13  C   UNL     1       0.326  -1.556  -1.899  0.00  0.00    +0.251 A 
ATOM     14  O   UNL     1      -0.577  -2.337  -1.654  0.00  0.00    -0.268 OA
ATOM     15  N   UNL     1       0.406  -1.011  -3.125  0.00  0.00    -0.322 N 
ATOM     16  H   UNL     1      -0.254  -1.245  -3.796  0.00  0.00    +0.169 HD
ATOM     17  C   UNL     1       0.482   0.080  -5.767  0.00  0.00    +0.046 C 
ENDBRANCH   3  12
ENDBRANCH   1   3
BRANCH   1  18
ATOM     18  C   UNL     1       0.435  -1.344   2.733  0.00  0.00    -0.042 C 
BRANCH  18  19
ATOM     19  C   UNL     1       1.765  -0.784   3.167  0.00  0.00    -0.064 A 
ATOM     20  C   UNL     1       2.877  -1.603   3.214  0.00  0.00    +0.002 A 
ATOM     21  C   UNL     1       4.098  -1.088   3.608  0.00  0.00    +0.000 A 
ATOM     22  C   UNL     1       4.204   0.243   3.965  0.00  0.00    +0.000 A 
ATOM     23  C   UNL     1       3.090   1.061   3.924  0.00  0.00    +0.000 A 
ATOM     24  C   UNL     1       1.871   0.547   3.525  0.00  0.00    +0.002 A 
ENDBRANCH  18  19
ENDBRANCH   1  18
BRANCH   1  25
ATOM     25  C   UNL     1      -1.174  -1.278   0.925  0.00  0.00    +0.001 C 
BRANCH  25  26
ATOM     26  C   UNL     1      -2.049  -0.294   1.657  0.00  0.00    +0.135 A 
ATOM     27  N   UNL     1      -2.546  -0.434   2.862  0.00  0.00    -0.115 NA
ATOM     28  N   UNL     1      -3.243   0.617   3.129  0.00  0.00    -0.023 NA
ATOM     29  N   UNL     1      -3.198   1.425   2.129  0.00  0.00    -0.044 NA
ATOM     30  N   UNL     1      -2.469   0.901   1.202  0.00  0.00    -0.227 N 
BRANCH  30  31
ATOM     31  C   UNL     1      -2.162   1.493  -0.102  0.00  0.00    +0.182 C 
BRANCH  31  32
ATOM     32  C   UNL     1      -1.026   2.472   0.045  0.00  0.00    -0.026 A 
ATOM     33  C   UNL     1       0.282   2.024   0.017  0.00  0.00    +0.005 A 
ATOM     34  C   UNL     1       1.323   2.923   0.147  0.00  0.00    +0.000 A 
ATOM     35  C   UNL     1       1.058   4.270   0.310  0.00  0.00    +0.000 A 
ATOM     36  C   UNL     1      -0.249   4.717   0.344  0.00  0.00    +0.000 A 
ATOM     37  C   UNL     1      -1.291   3.818   0.214  0.00  0.00    +0.005 A 
ENDBRANCH  31  32
ENDBRANCH  30  31
ENDBRANCH  25  26
ENDBRANCH   1  25
TORSDOF 8
