REMARK  Name = ZINC03875241
REMARK  11 active torsions:
REMARK  status: ('A' for Active; 'I' for Inactive)
REMARK    1  A    between atoms: C_1  and  C_2
REMARK    2  A    between atoms: C_10  and  O_37
REMARK    3  A    between atoms: C_21  and  N_23
REMARK    4  A    between atoms: N_23  and  C_24
REMARK    5  A    between atoms: C_24  and  C_25
REMARK    6  A    between atoms: C_25  and  C_26
REMARK    7  A    between atoms: C_26  and  C_27
REMARK    8  A    between atoms: C_27  and  C_28
REMARK    9  A    between atoms: C_28  and  C_29
REMARK   10  A    between atoms: C_29  and  N_30
REMARK   11  A    between atoms: O_37  and  C_38
REMARK                            x       y       z     vdW  Elec       q    Type
REMARK                         _______ _______ _______ _____ _____    ______ ____
ROOT
ATOM      1  C   UNL     1      -0.019   1.522   0.010  0.00  0.00    +0.010 C 
ATOM      2  C   UNL     1       0.002  -0.004   0.002  0.00  0.00    -0.041 C 
ATOM      3  C   UNL     1      -1.403  -0.560   0.058  0.00  0.00    +0.006 C 
ATOM      4  C   UNL     1      -2.013  -0.234   1.427  0.00  0.00    +0.009 C 
ATOM      5  C   UNL     1      -1.183  -0.814   2.568  0.00  0.00    +0.023 C 
ATOM      6  C   UNL     1      -1.809  -0.443   3.887  0.00  0.00    -0.041 A 
ATOM      7  C   UNL     1      -3.034  -1.024   4.197  0.00  0.00    +0.008 A 
ATOM      8  C   UNL     1      -3.666  -0.738   5.388  0.00  0.00    +0.046 A 
ATOM      9  C   UNL     1      -3.076   0.139   6.287  0.00  0.00    +0.120 A 
ATOM     10  C   UNL     1      -1.857   0.718   5.979  0.00  0.00    +0.049 A 
ATOM     11  C   UNL     1      -1.222   0.426   4.780  0.00  0.00    -0.040 A 
ATOM     12  C   UNL     1       0.104   1.091   4.506  0.00  0.00    +0.036 C 
ATOM     13  C   UNL     1       0.366   1.097   2.994  0.00  0.00    +0.009 C 
ATOM     14  C   UNL     1       0.274  -0.343   2.509  0.00  0.00    +0.000 C 
ATOM     15  C   UNL     1       0.834  -0.608   1.151  0.00  0.00    -0.003 C 
ATOM     16  C   UNL     1       2.244  -0.116   0.814  0.00  0.00    +0.003 C 
ATOM     17  C   UNL     1       2.305  -0.312  -0.729  0.00  0.00    -0.015 C 
ATOM     18  C   UNL     1       0.839  -0.449  -1.213  0.00  0.00    -0.066 C 
ENDROOT
BRANCH  18  19
ATOM     19  N   UNL     1       0.585   0.444  -2.348  0.00  0.00    +0.381 N 
ATOM     20  H   UNL     1      -0.406   0.475  -2.536  0.00  0.00    -0.086 HD
ATOM     21  H   UNL     1       0.915   1.371  -2.126  0.00  0.00    -0.086 HD
BRANCH  19  22
ATOM     22  C   UNL     1       1.293  -0.058  -3.533  0.00  0.00    -0.082 C 
BRANCH  22  23
ATOM     23  C   UNL     1       1.028   0.874  -4.718  0.00  0.00    -0.019 C 
BRANCH  23  24
ATOM     24  C   UNL     1       1.766   0.352  -5.952  0.00  0.00    -0.002 C 
BRANCH  24  25
ATOM     25  C   UNL     1       1.501   1.283  -7.136  0.00  0.00    +0.001 C 
BRANCH  25  26
ATOM     26  C   UNL     1       2.239   0.761  -8.371  0.00  0.00    +0.019 C 
BRANCH  26  27
ATOM     27  C   UNL     1       1.974   1.693  -9.556  0.00  0.00    +0.117 C 
BRANCH  27  28
ATOM     28  N   UNL     1       2.680   1.193 -10.738  0.00  0.00    -0.235 N 
ATOM     29  C   UNL     1       3.937   1.521 -11.087  0.00  0.00    +0.246 C 
ATOM     30  O   UNL     1       4.668   2.276 -10.479  0.00  0.00    -0.270 OA
ATOM     31  C   UNL     1       4.276   0.807 -12.338  0.00  0.00    +0.073 C 
ATOM     32  C   UNL     1       3.197   0.082 -12.675  0.00  0.00    +0.073 C 
ATOM     33  C   UNL     1       2.173   0.330 -11.637  0.00  0.00    +0.246 C 
ATOM     34  O   UNL     1       1.063  -0.160 -11.603  0.00  0.00    -0.270 OA
ENDBRANCH  27  28
ENDBRANCH  26  27
ENDBRANCH  25  26
ENDBRANCH  24  25
ENDBRANCH  23  24
ENDBRANCH  22  23
ENDBRANCH  19  22
ENDBRANCH  18  19
BRANCH   9  35
ATOM     35  O   UNL     1      -3.692   0.427   7.463  0.00  0.00    -0.495 OA
ATOM     36  C   UNL     1      -4.947  -0.210   7.712  0.00  0.00    +0.277 C 
ENDBRANCH   9  35
TORSDOF 9
