REMARK  Name = ZINC50512907
REMARK  6 active torsions:
REMARK  status: ('A' for Active; 'I' for Inactive)
REMARK    1  A    between atoms: C_3  and  C_6
REMARK    2  A    between atoms: N_7  and  O_8
REMARK    3  A    between atoms: O_8  and  C_9
REMARK    4  A    between atoms: C_9  and  C_10
REMARK    5  A    between atoms: N_12  and  C_13
REMARK    6  A    between atoms: C_17  and  N_19
REMARK                            x       y       z     vdW  Elec       q    Type
REMARK                         _______ _______ _______ _____ _____    ______ ____
ROOT
ATOM      1  C   UNL     1       8.421   1.036  -0.076  0.00  0.00    +0.258 C 
ATOM      2  O   UNL     1       8.545   2.242  -0.079  0.00  0.00    -0.272 OA
ATOM      3  N   UNL     1       9.514   0.246  -0.088  0.00  0.00    -0.283 N 
ATOM      4  H   UNL     1       9.417  -0.716  -0.018  0.00  0.00    +0.155 HD
ENDROOT
BRANCH   3   5
ATOM      5  C   UNL     1      10.787   0.816  -0.204  0.00  0.00    +0.036 A 
ATOM      6  C   UNL     1      11.781   0.159  -0.918  0.00  0.00    +0.025 A 
ATOM      7  C   UNL     1      13.036   0.723  -1.030  0.00  0.00    +0.024 A 
ATOM      8  C   UNL     1      13.305   1.942  -0.432  0.00  0.00    +0.071 A 
ATOM      9  C   UNL     1      12.317   2.598   0.281  0.00  0.00    +0.146 A 
ATOM     10  C   UNL     1      11.058   2.041   0.391  0.00  0.00    +0.057 A 
ATOM     11 CL   UNL     1      14.884   2.647  -0.574  0.00  0.00    -0.081 Cl
BRANCH   9  12
ATOM     12  N   UNL     1      12.608   3.901   0.920  0.00  0.00    +0.058 N 
ATOM     13  O   UNL     1      11.745   4.475   1.542  0.00  0.00    -0.126 OA
ATOM     14  O   UNL     1      13.708   4.391   0.820  0.00  0.00    -0.126 OA
ENDBRANCH   9  12
ENDBRANCH   3   5
BRANCH   1  15
ATOM     15  C   UNL     1       7.046   0.419  -0.057  0.00  0.00    +0.358 C 
BRANCH  15  16
ATOM     16  O   UNL     1       6.061   1.453  -0.046  0.00  0.00    -0.383 OA
BRANCH  16  18
ATOM     17  C   UNL     1       3.733   1.823  -0.016  0.00  0.00    +0.169 C 
ATOM     18  N   UNL     1       4.727   0.978  -0.028  0.00  0.00    -0.068 NA
ATOM     19  N   UNL     1       3.983   3.186  -0.021  0.00  0.00    -0.340 N 
ATOM     20  H   UNL     1       3.244   3.814  -0.013  0.00  0.00    +0.144 HD
ATOM     21  H   UNL     1       4.897   3.512  -0.034  0.00  0.00    +0.144 HD
BRANCH  17  24
ATOM     22  C   UNL     1      -0.016   1.354   0.033  0.00  0.00    +0.008 A 
ATOM     23  C   UNL     1       1.175   2.041   0.017  0.00  0.00    +0.019 A 
ATOM     24  C   UNL     1       2.347   1.328   0.003  0.00  0.00    +0.055 A 
ATOM     25  S   UNL     1       1.753  -0.356   0.013  0.00  0.00    -0.094 S 
ATOM     26  C   UNL     1       0.003  -0.005   0.035  0.00  0.00    +0.046 A 
ENDBRANCH  17  24
ENDBRANCH  16  18
ENDBRANCH  15  16
ENDBRANCH   1  15
TORSDOF 6
