REMARK  Name = ZINC34906514
REMARK  4 active torsions:
REMARK  status: ('A' for Active; 'I' for Inactive)
REMARK    1  A    between atoms: N_9  and  C_10
REMARK    2  A    between atoms: C_10  and  C_11
REMARK    3  A    between atoms: C_20  and  C_23
REMARK    4  A    between atoms: N_28  and  C_31
REMARK                            x       y       z     vdW  Elec       q    Type
REMARK                         _______ _______ _______ _____ _____    ______ ____
ROOT
ATOM      1  C   UNL     1       0.606   1.820   0.372  0.00  0.00    +0.002 A 
ATOM      2  C   UNL     1       0.684   1.743  -1.011  0.00  0.00    +0.002 A 
ATOM      3  C   UNL     1       1.312   0.675  -1.617  0.00  0.00    +0.028 A 
ATOM      4  C   UNL     1       1.869  -0.330  -0.840  0.00  0.00    +0.068 A 
ATOM      5  C   UNL     1       1.792  -0.258   0.560  0.00  0.00    +0.065 A 
ATOM      6  C   UNL     1       1.153   0.831   1.158  0.00  0.00    +0.028 A 
ATOM      7  N   UNL     1       2.413  -1.362   1.052  0.00  0.00    -0.327 N 
ATOM      8  C   UNL     1       2.858  -2.094   0.062  0.00  0.00    +0.177 A 
ATOM      9  N   UNL     1       2.549  -1.502  -1.129  0.00  0.00    -0.313 N 
ATOM     10  N   UNL     1       3.538  -3.286   0.201  0.00  0.00    -0.302 N 
ATOM     11  C   UNL     1       5.007  -3.313   0.204  0.00  0.00    +0.108 C 
ATOM     12  C   UNL     1       5.484  -4.042   1.465  0.00  0.00    +0.032 C 
ATOM     13  C   UNL     1       4.829  -5.423   1.530  0.00  0.00    +0.078 C 
ATOM     14  C   UNL     1       3.309  -5.266   1.608  0.00  0.00    +0.032 C 
ATOM     15  C   UNL     1       2.808  -4.551   0.355  0.00  0.00    +0.108 C 
ATOM     16  H   UNL     1       2.512  -1.575   1.994  0.00  0.00    +0.169 HD
ENDROOT
BRANCH  13  17
ATOM     17  C   UNL     1       5.322  -6.156   2.751  0.00  0.00    +0.219 C 
ATOM     18  O   UNL     1       4.676  -6.129   3.776  0.00  0.00    -0.275 OA
ATOM     19  N   UNL     1       6.482  -6.842   2.703  0.00  0.00    -0.298 N 
ATOM     20  C   UNL     1       7.228  -6.963   1.443  0.00  0.00    +0.126 C 
ATOM     21  C   UNL     1       8.657  -6.454   1.668  0.00  0.00    +0.124 C 
ATOM     22  N   UNL     1       9.198  -7.093   2.876  0.00  0.00    -0.325 N 
ATOM     23  C   UNL     1       8.452  -6.972   4.136  0.00  0.00    +0.124 C 
ATOM     24  C   UNL     1       7.026  -7.476   3.912  0.00  0.00    +0.126 C 
BRANCH  22  25
ATOM     25  C   UNL     1      10.401  -7.804   2.826  0.00  0.00    +0.065 A 
ATOM     26  C   UNL     1      11.604  -7.155   3.068  0.00  0.00    +0.026 A 
ATOM     27  C   UNL     1      12.791  -7.860   3.019  0.00  0.00    +0.002 A 
ATOM     28  C   UNL     1      12.783  -9.212   2.729  0.00  0.00    +0.003 A 
ATOM     29  C   UNL     1      11.587  -9.864   2.486  0.00  0.00    +0.040 A 
ATOM     30  C   UNL     1      10.395  -9.165   2.540  0.00  0.00    +0.144 A 
ATOM     31  F   UNL     1       9.226  -9.803   2.309  0.00  0.00    -0.204 F 
ENDBRANCH  22  25
ENDBRANCH  13  17
BRANCH   9  32
ATOM     32  C   UNL     1       2.874  -2.012  -2.463  0.00  0.00    +0.128 C 
BRANCH  32  33
ATOM     33  C   UNL     1       4.291  -1.580  -2.843  0.00  0.00    +0.009 C 
ATOM     34  C   UNL     1       4.343  -0.056  -2.969  0.00  0.00    +0.005 C 
ATOM     35  C   UNL     1       5.761   0.377  -3.349  0.00  0.00    +0.000 C 
ATOM     36  C   UNL     1       6.146  -0.258  -4.686  0.00  0.00    +0.000 C 
ATOM     37  C   UNL     1       6.095  -1.782  -4.560  0.00  0.00    +0.000 C 
ATOM     38  C   UNL     1       4.677  -2.215  -4.180  0.00  0.00    +0.005 C 
ENDBRANCH  32  33
ENDBRANCH   9  32
TORSDOF 4
