REMARK  Name = ZINC39324865
REMARK  10 active torsions:
REMARK  status: ('A' for Active; 'I' for Inactive)
REMARK    1  A    between atoms: C_1  and  O_2
REMARK    2  A    between atoms: O_2  and  C_3
REMARK    3  A    between atoms: C_7  and  C_17
REMARK    4  A    between atoms: C_14  and  O_15
REMARK    5  A    between atoms: O_15  and  C_16
REMARK    6  A    between atoms: C_17  and  N_18
REMARK    7  A    between atoms: N_18  and  C_19
REMARK    8  A    between atoms: N_18  and  S_25
REMARK    9  A    between atoms: C_19  and  C_20
REMARK   10  A    between atoms: S_25  and  C_28
REMARK                            x       y       z     vdW  Elec       q    Type
REMARK                         _______ _______ _______ _____ _____    ______ ____
ROOT
ATOM      1  C   UNL     1      -6.905  -0.232   1.359  0.00  0.00    +0.126 C 
ENDROOT
BRANCH   1   6
ATOM      2  C   UNL     1      -1.190  -0.837   0.344  0.00  0.00    +0.162 A 
ATOM      3  C   UNL     1      -2.281  -0.031   0.386  0.00  0.00    +0.059 A 
ATOM      4  C   UNL     1      -3.611  -0.626   0.241  0.00  0.00    -0.003 A 
ATOM      5  C   UNL     1      -4.727   0.151   0.278  0.00  0.00    -0.003 C 
ATOM      6  C   UNL     1      -6.066  -0.543   0.119  0.00  0.00    +0.114 C 
ATOM      7  C   UNL     1      -6.054  -2.044  -0.068  0.00  0.00    +0.225 C 
ATOM      8  O   UNL     1      -7.099  -2.651  -0.200  0.00  0.00    -0.275 OA
ATOM      9  N   UNL     1      -4.902  -2.692  -0.086  0.00  0.00    -0.284 N 
ATOM     10  C   UNL     1      -3.722  -2.085   0.053  0.00  0.00    +0.044 A 
ATOM     11  C   UNL     1      -2.541  -2.841   0.022  0.00  0.00    +0.073 A 
ATOM     12  C   UNL     1      -1.317  -2.227   0.158  0.00  0.00    +0.163 A 
ATOM     13  H   UNL     1      -4.916  -3.655  -0.207  0.00  0.00    +0.155 HD
BRANCH   2  15
ATOM     14  C   UNL     1       0.118   1.123   0.665  0.00  0.00    +0.277 C 
ATOM     15  O   UNL     1       0.049  -0.292   0.479  0.00  0.00    -0.491 OA
ENDBRANCH   2  15
BRANCH  12  16
ATOM     16  O   UNL     1      -0.196  -2.987   0.118  0.00  0.00    -0.491 OA
ATOM     17  C   UNL     1      -0.372  -4.393  -0.073  0.00  0.00    +0.277 C 
ENDBRANCH  12  16
ENDBRANCH   1   6
BRANCH   1  18
ATOM     18  N   UNL     1      -8.237  -0.826   1.209  0.00  0.00    -0.168 NA
BRANCH  18  19
ATOM     19  S   UNL     1      -9.425   0.001   0.405  0.00  0.00    +0.061 S 
ATOM     20  O   UNL     1     -10.665  -0.504   0.882  0.00  0.00    -0.153 OA
ATOM     21  O   UNL     1      -9.084   1.378   0.479  0.00  0.00    -0.153 OA
BRANCH  19  22
ATOM     22  C   UNL     1      -9.318  -0.454  -1.294  0.00  0.00    +0.106 A 
ATOM     23  C   UNL     1      -8.511   0.269  -2.153  0.00  0.00    +0.030 A 
ATOM     24  C   UNL     1      -8.426  -0.087  -3.486  0.00  0.00    +0.022 A 
ATOM     25  C   UNL     1      -9.149  -1.168  -3.960  0.00  0.00    +0.041 A 
ATOM     26  C   UNL     1      -9.956  -1.891  -3.100  0.00  0.00    +0.022 A 
ATOM     27  C   UNL     1     -10.035  -1.537  -1.766  0.00  0.00    +0.030 A 
ATOM     28 CL   UNL     1      -9.043  -1.615  -5.634  0.00  0.00    -0.084 Cl
ENDBRANCH  19  22
ENDBRANCH  18  19
BRANCH  18  29
ATOM     29  C   UNL     1      -8.516  -2.150   1.770  0.00  0.00    +0.183 C 
BRANCH  29  30
ATOM     30  C   UNL     1      -8.930  -2.007   3.212  0.00  0.00    +0.120 A 
ATOM     31  C   UNL     1     -10.189  -1.848   3.657  0.00  0.00    +0.046 A 
ATOM     32  C   UNL     1     -10.118  -1.757   5.066  0.00  0.00    +0.041 A 
ATOM     33  C   UNL     1      -8.819  -1.865   5.398  0.00  0.00    +0.195 A 
ATOM     34  O   UNL     1      -8.104  -2.022   4.271  0.00  0.00    -0.466 OA
ENDBRANCH  29  30
ENDBRANCH  18  29
ENDBRANCH   1  18
TORSDOF 8
