REMARK  Name = ZINC06289048
REMARK  8 active torsions:
REMARK  status: ('A' for Active; 'I' for Inactive)
REMARK    1  A    between atoms: C_1  and  O_2
REMARK    2  A    between atoms: O_2  and  C_3
REMARK    3  A    between atoms: C_5  and  C_13
REMARK    4  A    between atoms: C_7  and  O_11
REMARK    5  A    between atoms: C_8  and  O_9
REMARK    6  A    between atoms: O_9  and  C_10
REMARK    7  A    between atoms: O_11  and  C_12
REMARK    8  A    between atoms: C_16  and  C_27
REMARK                            x       y       z     vdW  Elec       q    Type
REMARK                         _______ _______ _______ _____ _____    ______ ____
ROOT
ATOM      1  C   UNL     1       2.402   0.386  -4.230  0.00  0.00    +0.127 C 
ATOM      2  C   UNL     1       1.738   0.056  -5.572  0.00  0.00    +0.086 C 
ATOM      3  C   UNL     1       2.237  -1.254  -6.113  0.00  0.00    +0.054 C 
ATOM      4  N   UNL     1       3.463  -1.666  -5.936  0.00  0.00    -0.218 NA
ATOM      5  C   UNL     1       4.307  -0.918  -5.174  0.00  0.00    +0.210 A 
ATOM      6  N   UNL     1       3.832   0.082  -4.342  0.00  0.00    -0.302 N 
ATOM      7  C   UNL     1       4.906   0.644  -3.725  0.00  0.00    +0.069 A 
ATOM      8  C   UNL     1       5.040   1.684  -2.811  0.00  0.00    +0.028 A 
ATOM      9  C   UNL     1       6.323   1.990  -2.390  0.00  0.00    +0.002 A 
ATOM     10  C   UNL     1       7.432   1.301  -2.850  0.00  0.00    +0.002 A 
ATOM     11  C   UNL     1       7.330   0.272  -3.752  0.00  0.00    +0.028 A 
ATOM     12  C   UNL     1       6.045  -0.062  -4.197  0.00  0.00    +0.066 A 
ATOM     13  N   UNL     1       5.610  -0.999  -5.062  0.00  0.00    -0.324 N 
ATOM     14  H   UNL     1       6.173  -1.635  -5.529  0.00  0.00    +0.169 HD
ENDROOT
BRANCH   3  15
ATOM     15  C   UNL     1       1.308  -2.105  -6.870  0.00  0.00    -0.003 A 
ATOM     16  C   UNL     1      -0.012  -1.690  -7.082  0.00  0.00    +0.011 A 
ATOM     17  C   UNL     1      -0.877  -2.494  -7.794  0.00  0.00    +0.016 A 
ATOM     18  C   UNL     1      -0.443  -3.709  -8.299  0.00  0.00    +0.018 A 
ATOM     19  C   UNL     1       0.862  -4.126  -8.092  0.00  0.00    +0.016 A 
ATOM     20  C   UNL     1       1.740  -3.331  -7.388  0.00  0.00    +0.011 A 
ATOM     21 BR   UNL     1      -1.638  -4.803  -9.273  0.00  0.00    -0.050 Br
ENDBRANCH   3  15
BRANCH   1  24
ATOM     22  C   UNL     1       0.606  -0.608  -1.056  0.00  0.00    +0.165 A 
ATOM     23  C   UNL     1       1.173   0.160  -2.063  0.00  0.00    +0.055 A 
ATOM     24  C   UNL     1       1.787  -0.452  -3.139  0.00  0.00    -0.017 A 
ATOM     25  C   UNL     1       1.839  -1.831  -3.217  0.00  0.00    +0.055 A 
ATOM     26  C   UNL     1       1.275  -2.606  -2.215  0.00  0.00    +0.165 A 
ATOM     27  C   UNL     1       0.661  -1.994  -1.128  0.00  0.00    +0.204 A 
BRANCH  22  29
ATOM     28  C   UNL     1      -0.017   1.425   0.010  0.00  0.00    +0.277 C 
ATOM     29  O   UNL     1       0.002  -0.004   0.002  0.00  0.00    -0.491 OA
ENDBRANCH  22  29
BRANCH  27  30
ATOM     30  O   UNL     1       0.111  -2.751  -0.140  0.00  0.00    -0.488 OA
ATOM     31  C   UNL     1      -1.260  -3.124  -0.295  0.00  0.00    +0.277 C 
ENDBRANCH  27  30
BRANCH  26  32
ATOM     32  O   UNL     1       1.326  -3.963  -2.293  0.00  0.00    -0.491 OA
ATOM     33  C   UNL     1       1.977  -4.523  -3.435  0.00  0.00    +0.277 C 
ENDBRANCH  26  32
ENDBRANCH   1  24
TORSDOF 5
