REMARK  Name = ZINC08441483
REMARK  14 active torsions:
REMARK  status: ('A' for Active; 'I' for Inactive)
REMARK    1  A    between atoms: C_1  and  C_2
REMARK    2  A    between atoms: C_7  and  C_12
REMARK    3  A    between atoms: C_12  and  C_13
REMARK    4  A    between atoms: C_14  and  C_28
REMARK    5  A    between atoms: N_16  and  C_21
REMARK    6  A    between atoms: C_21  and  C_22
REMARK    7  A    between atoms: C_31  and  O_36
REMARK    8  A    between atoms: C_32  and  O_34
REMARK    9  A    between atoms: O_34  and  C_35
REMARK   10  A    between atoms: O_36  and  C_37
REMARK   11  A    between atoms: C_37  and  C_38
REMARK   12  A    between atoms: C_38  and  C_39
REMARK   13  A    between atoms: C_39  and  C_40
REMARK   14  A    between atoms: C_39  and  C_41
REMARK                            x       y       z     vdW  Elec       q    Type
REMARK                         _______ _______ _______ _____ _____    ______ ____
ROOT
ATOM      1  C   UNL     1      -2.413  -6.315   3.096  0.00  0.00    +0.076 C 
ATOM      2  C   UNL     1      -1.118  -6.671   3.788  0.00  0.00    +0.145 C 
ATOM      3  N   UNL     1      -1.340  -7.974   4.427  0.00  0.00    -0.281 N 
ATOM      4  C   UNL     1      -2.602  -8.357   4.158  0.00  0.00    +0.288 C 
ATOM      5  O   UNL     1      -3.112  -9.391   4.538  0.00  0.00    -0.266 OA
ATOM      6  C   UNL     1      -3.276  -7.329   3.337  0.00  0.00    +0.249 C 
ATOM      7  O   UNL     1      -4.553  -7.394   2.894  0.00  0.00    -0.282 OA
ENDROOT
BRANCH   2   8
ATOM      8  C   UNL     1      -0.784  -5.634   4.830  0.00  0.00    -0.019 A 
ATOM      9  C   UNL     1      -1.506  -5.583   6.008  0.00  0.00    +0.009 A 
ATOM     10  C   UNL     1      -1.204  -4.634   6.966  0.00  0.00    +0.050 A 
ATOM     11  C   UNL     1      -0.176  -3.730   6.747  0.00  0.00    +0.162 A 
ATOM     12  C   UNL     1       0.550  -3.782   5.561  0.00  0.00    +0.162 A 
ATOM     13  C   UNL     1       0.245  -4.739   4.606  0.00  0.00    +0.055 A 
BRANCH  12  14
ATOM     14  O   UNL     1       1.560  -2.897   5.341  0.00  0.00    -0.491 OA
ATOM     15  C   UNL     1       2.192  -2.940   4.060  0.00  0.00    +0.277 C 
ENDBRANCH  12  14
BRANCH  11  16
ATOM     16  O   UNL     1       0.122  -2.795   7.688  0.00  0.00    -0.488 OA
BRANCH  16  17
ATOM     17  C   UNL     1      -0.665  -2.801   8.881  0.00  0.00    +0.229 C 
BRANCH  17  18
ATOM     18  C   UNL     1      -0.186  -1.687   9.814  0.00  0.00    +0.044 C 
BRANCH  18  19
ATOM     19  C   UNL     1      -1.029  -1.694  11.091  0.00  0.00    -0.014 C 
ATOM     20  C   UNL     1      -0.785  -2.996  11.856  0.00  0.00    +0.007 C 
ATOM     21  C   UNL     1      -0.635  -0.504  11.968  0.00  0.00    +0.007 C 
ENDBRANCH  18  19
ENDBRANCH  17  18
ENDBRANCH  16  17
ENDBRANCH  11  16
ENDBRANCH   2   8
BRANCH   1  22
ATOM     22  C   UNL     1      -2.684  -5.102   2.319  0.00  0.00    +0.195 C 
ATOM     23  O   UNL     1      -3.490  -4.286   2.726  0.00  0.00    -0.287 OA
BRANCH  22  29
ATOM     24  C   UNL     1      -0.134  -1.990  -3.898  0.00  0.00    +0.052 C 
ATOM     25  C   UNL     1      -0.956  -3.035  -3.141  0.00  0.00    +0.175 C 
ATOM     26  C   UNL     1      -1.661  -2.398  -1.920  0.00  0.00    +0.083 C 
ATOM     27  C   UNL     1      -1.586  -3.515  -0.897  0.00  0.00    -0.002 A 
ATOM     28  C   UNL     1      -2.247  -3.722   0.288  0.00  0.00    +0.019 A 
ATOM     29  C   UNL     1      -1.980  -4.870   1.043  0.00  0.00    +0.023 A 
ATOM     30  C   UNL     1      -1.040  -5.795   0.578  0.00  0.00    +0.015 A 
ATOM     31  C   UNL     1      -0.382  -5.575  -0.608  0.00  0.00    +0.046 A 
ATOM     32  C   UNL     1      -0.644  -4.429  -1.361  0.00  0.00    +0.124 A 
ATOM     33  O   UNL     1      -0.098  -4.020  -2.540  0.00  0.00    -0.488 OA
ENDBRANCH  22  29
ENDBRANCH   1  22
BRANCH   3  34
ATOM     34  C   UNL     1      -0.361  -8.725   5.217  0.00  0.00    +0.140 C 
BRANCH  34  35
ATOM     35  C   UNL     1      -0.500  -8.347   6.693  0.00  0.00    +0.136 C 
ATOM     36  C   UNL     1       0.489  -9.175   7.541  0.00  0.00    +0.035 C 
ATOM     37  C   UNL     1      -0.350  -9.496   8.808  0.00  0.00    +0.031 C 
ATOM     38  C   UNL     1      -1.766  -9.639   8.194  0.00  0.00    +0.160 C 
ATOM     39  O   UNL     1      -1.824  -8.651   7.150  0.00  0.00    -0.375 OA
ENDBRANCH  34  35
ENDBRANCH   3  34
TORSDOF 10
