REMARK  Name = ZINC13499080
REMARK  14 active torsions:
REMARK  status: ('A' for Active; 'I' for Inactive)
REMARK    1  A    between atoms: C_1  and  C_2
REMARK    2  A    between atoms: C_4  and  C_35
REMARK    3  A    between atoms: C_7  and  C_14
REMARK    4  A    between atoms: C_14  and  N_66
REMARK    5  A    between atoms: C_15  and  C_16
REMARK    6  A    between atoms: C_15  and  N_66
REMARK    7  A    between atoms: C_16  and  O_17
REMARK    8  A    between atoms: C_18  and  C_20
REMARK    9  A    between atoms: C_18  and  C_32
REMARK   10  A    between atoms: C_18  and  N_66
REMARK   11  A    between atoms: N_24  and  C_25
REMARK   12  A    between atoms: C_25  and  C_26
REMARK   13  A    between atoms: C_32  and  C_33
REMARK   14  A    between atoms: C_32  and  C_34
REMARK                            x       y       z     vdW  Elec       q    Type
REMARK                         _______ _______ _______ _____ _____    ______ ____
ROOT
ATOM      1  N   UNL     1       5.485   1.769  -0.536  0.00  0.00    +0.391 N 
ATOM      2  H   UNL     1       5.817   2.315   0.267  0.00  0.00    -0.080 HD
ENDROOT
BRANCH   1   3
ATOM      3  C   UNL     1       6.230   0.494  -0.592  0.00  0.00    -0.036 C 
BRANCH   3  10
ATOM      4  C   UNL     1      13.354   1.532   2.844  0.00  0.00    +0.044 C 
ATOM      5  C   UNL     1      11.934   1.275   2.408  0.00  0.00    -0.048 A 
ATOM      6  C   UNL     1      10.994   0.859   3.341  0.00  0.00    +0.007 A 
ATOM      7  C   UNL     1       9.702   0.621   2.967  0.00  0.00    -0.041 A 
ATOM      8  C   UNL     1       9.322   0.798   1.632  0.00  0.00    +0.002 A 
ATOM      9  C   UNL     1       7.947   0.551   1.197  0.00  0.00    +0.017 A 
ATOM     10  C   UNL     1       7.637   0.739  -0.110  0.00  0.00    +0.001 A 
ATOM     11  C   UNL     1       8.630   1.157  -1.022  0.00  0.00    +0.251 A 
ATOM     12  O   UNL     1       8.331   1.315  -2.194  0.00  0.00    -0.268 OA
ATOM     13  N   UNL     1       9.894   1.391  -0.631  0.00  0.00    -0.322 N 
ATOM     14  H   UNL     1      10.551   1.682  -1.283  0.00  0.00    +0.169 HD
ATOM     15  C   UNL     1      10.273   1.220   0.684  0.00  0.00    +0.050 A 
ATOM     16  C   UNL     1      11.583   1.456   1.088  0.00  0.00    +0.029 A 
ATOM     17  C   UNL     1       8.689   0.169   3.988  0.00  0.00    +0.044 C 
ENDBRANCH   3  10
ENDBRANCH   1   3
BRANCH   1  18
ATOM     18  C   UNL     1       5.718   2.544  -1.773  0.00  0.00    -0.049 C 
BRANCH  18  19
ATOM     19  C   UNL     1       5.318   3.999  -1.522  0.00  0.00    +0.137 C 
BRANCH  19  20
ATOM     20  O   UNL     1       6.098   4.529  -0.447  0.00  0.00    -0.397 OA
ATOM     21  H   UNL     1       5.952   5.471  -0.283  0.00  0.00    +0.209 HD
ENDBRANCH  19  20
ENDBRANCH  18  19
ENDBRANCH   1  18
BRANCH   1  22
ATOM     22  C   UNL     1       4.040   1.502  -0.372  0.00  0.00    +0.006 C 
BRANCH  22  23
ATOM     23  C   UNL     1       3.391   2.722   0.230  0.00  0.00    +0.139 A 
ATOM     24  N   UNL     1       2.413   3.424  -0.288  0.00  0.00    -0.115 NA
ATOM     25  N   UNL     1       2.142   4.388   0.523  0.00  0.00    -0.023 NA
ATOM     26  N   UNL     1       2.918   4.315   1.548  0.00  0.00    -0.044 NA
ATOM     27  N   UNL     1       3.700   3.299   1.406  0.00  0.00    -0.226 N 
BRANCH  27  28
ATOM     28  C   UNL     1       4.735   2.860   2.345  0.00  0.00    +0.182 C 
BRANCH  28  29
ATOM     29  C   UNL     1       4.132   1.913   3.351  0.00  0.00    -0.026 A 
ATOM     30  C   UNL     1       4.108   0.555   3.095  0.00  0.00    +0.005 A 
ATOM     31  C   UNL     1       3.555  -0.313   4.017  0.00  0.00    +0.000 A 
ATOM     32  C   UNL     1       3.020   0.178   5.194  0.00  0.00    +0.000 A 
ATOM     33  C   UNL     1       3.049   1.535   5.453  0.00  0.00    +0.000 A 
ATOM     34  C   UNL     1       3.603   2.403   4.530  0.00  0.00    +0.005 A 
ENDBRANCH  28  29
ENDBRANCH  27  28
ENDBRANCH  22  23
BRANCH  22  35
ATOM     35  C   UNL     1       3.395   1.197  -1.725  0.00  0.00    -0.024 C 
ATOM     36  C   UNL     1       4.008  -0.079  -2.306  0.00  0.00    +0.006 C 
ATOM     37  C   UNL     1       1.889   1.001  -1.540  0.00  0.00    +0.006 C 
ENDBRANCH  22  35
ENDBRANCH   1  22
TORSDOF 10
