REMARK  Name = ZINC08790992
REMARK  6 active torsions:
REMARK  status: ('A' for Active; 'I' for Inactive)
REMARK    1  A    between atoms: C_4  and  C_7
REMARK    2  A    between atoms: C_7  and  C_8
REMARK    3  A    between atoms: C_8  and  N_9
REMARK    4  A    between atoms: C_14  and  C_31
REMARK    5  A    between atoms: C_31  and  C_32
REMARK    6  A    between atoms: C_32  and  C_33
REMARK                            x       y       z     vdW  Elec       q    Type
REMARK                         _______ _______ _______ _____ _____    ______ ____
ROOT
ATOM      1  N   UNL     1       1.302  -5.150  -1.350  0.00  0.00    -0.241 N 
ATOM      2  C   UNL     1       2.534  -4.962  -0.862  0.00  0.00    +0.224 C 
ATOM      3  O   UNL     1       3.309  -5.843  -0.558  0.00  0.00    -0.275 OA
ATOM      4  C   UNL     1       2.807  -3.479  -0.748  0.00  0.00    +0.073 C 
ATOM      5  C   UNL     1       2.896  -3.091   0.743  0.00  0.00    -0.057 C 
ATOM      6  C   UNL     1       0.907  -2.129  -0.018  0.00  0.00    +0.050 C 
ATOM      7  C   UNL     1       1.488  -2.831  -1.252  0.00  0.00    +0.088 C 
ATOM      8  C   UNL     1       0.628  -4.024  -1.607  0.00  0.00    +0.225 C 
ATOM      9  O   UNL     1      -0.497  -3.968  -2.056  0.00  0.00    -0.275 OA
ATOM     10  C   UNL     1       1.228  -0.662  -0.014  0.00  0.00    -0.026 A 
ATOM     11  C   UNL     1       2.407   0.051  -0.022  0.00  0.00    +0.024 A 
ATOM     12  C   UNL     1       2.380   1.435  -0.013  0.00  0.00    +0.041 A 
ATOM     13  C   UNL     1       1.165   2.099   0.002  0.00  0.00    +0.022 A 
ATOM     14  C   UNL     1      -0.017   1.389   0.010  0.00  0.00    +0.025 A 
ATOM     15  C   UNL     1       0.002  -0.004   0.002  0.00  0.00    +0.036 A 
ATOM     16  N   UNL     1      -1.043  -0.931   0.008  0.00  0.00    -0.286 N 
ATOM     17  C   UNL     1      -0.595  -2.201  -0.002  0.00  0.00    +0.211 C 
ATOM     18  O   UNL     1      -1.272  -3.208   0.003  0.00  0.00    -0.277 OA
ATOM     19 CL   UNL     1       3.864   2.335  -0.022  0.00  0.00    -0.084 Cl
ATOM     20  H   UNL     1      -1.982  -0.688   0.017  0.00  0.00    +0.155 HD
ATOM     21  N   UNL     1       1.509  -2.806   1.118  0.00  0.00    +0.394 N 
ATOM     22  H   UNL     1       1.482  -2.201   1.947  0.00  0.00    -0.083 HD
ATOM     23  H   UNL     1       1.008  -3.680   1.316  0.00  0.00    -0.083 HD
ENDROOT
BRANCH   1  24
ATOM     24  C   UNL     1       0.738  -6.482  -1.582  0.00  0.00    +0.121 C 
BRANCH  24  25
ATOM     25  C   UNL     1       0.012  -6.955  -0.321  0.00  0.00    +0.054 C 
BRANCH  25  29
ATOM     26  C   UNL     1      -1.635 -10.838  -0.999  0.00  0.00    +0.000 A 
ATOM     27  C   UNL     1      -0.354 -10.709  -0.494  0.00  0.00    +0.000 A 
ATOM     28  C   UNL     1       0.178  -9.453  -0.274  0.00  0.00    +0.004 A 
ATOM     29  C   UNL     1      -0.569  -8.325  -0.561  0.00  0.00    -0.046 A 
ATOM     30  C   UNL     1      -1.851  -8.455  -1.061  0.00  0.00    +0.004 A 
ATOM     31  C   UNL     1      -2.382  -9.711  -1.284  0.00  0.00    +0.000 A 
ENDBRANCH  25  29
ENDBRANCH  24  25
ENDBRANCH   1  24
BRANCH   5  32
ATOM     32  C   UNL     1       3.470  -4.247   1.564  0.00  0.00    -0.006 C 
BRANCH  32  33
ATOM     33  C   UNL     1       3.594  -3.821   3.028  0.00  0.00    +0.094 C 
BRANCH  33  34
ATOM     34  C   UNL     1       4.159  -4.960   3.837  0.00  0.00    +0.210 C 
ATOM     35  O   UNL     1       4.436  -6.009   3.296  0.00  0.00    -0.276 OA
ATOM     36  N   UNL     1       4.357  -4.812   5.162  0.00  0.00    -0.329 N 
ATOM     37  H   UNL     1       4.136  -3.973   5.595  0.00  0.00    +0.145 HD
ATOM     38  H   UNL     1       4.721  -5.545   5.683  0.00  0.00    +0.145 HD
ENDBRANCH  33  34
ENDBRANCH  32  33
ENDBRANCH   5  32
TORSDOF 6
