REMARK  Name = ZINC35747293
REMARK  16 active torsions:
REMARK  status: ('A' for Active; 'I' for Inactive)
REMARK    1  A    between atoms: C_1  and  O_2
REMARK    2  A    between atoms: O_2  and  C_3
REMARK    3  A    between atoms: C_6  and  C_11
REMARK    4  A    between atoms: C_8  and  O_9
REMARK    5  A    between atoms: O_9  and  C_10
REMARK    6  A    between atoms: C_20  and  C_22
REMARK    7  A    between atoms: C_22  and  N_23
REMARK    8  A    between atoms: N_23  and  C_24
REMARK    9  A    between atoms: N_23  and  C_31
REMARK   10  A    between atoms: C_24  and  C_25
REMARK   11  A    between atoms: C_31  and  C_32
REMARK   12  A    between atoms: C_32  and  C_34
REMARK   13  A    between atoms: C_32  and  O_39
REMARK   14  A    between atoms: C_34  and  O_35
REMARK   15  A    between atoms: O_35  and  C_36
REMARK   16  A    between atoms: C_36  and  C_37
REMARK                            x       y       z     vdW  Elec       q    Type
REMARK                         _______ _______ _______ _____ _____    ______ ____
ROOT
ATOM      1  C   UNL     1       1.872  -4.231  -4.580  0.00  0.00    +0.004 A 
ATOM      2  C   UNL     1       2.821  -5.197  -4.551  0.00  0.00    +0.056 A 
ATOM      3  S   UNL     1       3.482  -5.177  -6.206  0.00  0.00    -0.076 S 
ATOM      4  C   UNL     1       2.478  -3.884  -6.892  0.00  0.00    +0.116 A 
ATOM      5  C   UNL     1       1.650  -3.503  -5.823  0.00  0.00    +0.080 A 
ATOM      6  C   UNL     1       0.716  -2.456  -6.105  0.00  0.00    +0.260 A 
ATOM      7  O   UNL     1      -0.042  -2.053  -5.240  0.00  0.00    -0.267 OA
ATOM      8  N   UNL     1       0.688  -1.922  -7.341  0.00  0.00    -0.312 N 
ATOM      9  H   UNL     1       0.057  -1.212  -7.538  0.00  0.00    +0.170 HD
ATOM     10  C   UNL     1       1.525  -2.358  -8.317  0.00  0.00    +0.094 A 
ATOM     11  N   UNL     1       2.395  -3.305  -8.087  0.00  0.00    -0.229 NA
ENDROOT
BRANCH   1  15
ATOM     12  C   UNL     1      -0.433  -3.346  -1.113  0.00  0.00    +0.162 A 
ATOM     13  C   UNL     1       0.183  -2.322  -1.816  0.00  0.00    +0.050 A 
ATOM     14  C   UNL     1       0.931  -2.607  -2.940  0.00  0.00    +0.012 A 
ATOM     15  C   UNL     1       1.069  -3.925  -3.372  0.00  0.00    -0.013 A 
ATOM     16  C   UNL     1       0.449  -4.955  -2.666  0.00  0.00    +0.058 A 
ATOM     17  C   UNL     1      -0.296  -4.666  -1.536  0.00  0.00    +0.162 A 
BRANCH  12  19
ATOM     18  C   UNL     1      -1.269  -1.687   0.372  0.00  0.00    +0.277 C 
ATOM     19  O   UNL     1      -1.170  -3.062  -0.006  0.00  0.00    -0.491 OA
ENDBRANCH  12  19
BRANCH  17  20
ATOM     20  O   UNL     1      -0.897  -5.669  -0.842  0.00  0.00    -0.491 OA
ATOM     21  C   UNL     1      -0.713  -6.998  -1.333  0.00  0.00    +0.277 C 
ENDBRANCH  17  20
ENDBRANCH   1  15
BRANCH  10  22
ATOM     22  C   UNL     1       1.458  -1.730  -9.685  0.00  0.00    -0.003 C 
BRANCH  22  23
ATOM     23  N   UNL     1       2.549  -2.254 -10.518  0.00  0.00    +0.389 N 
ATOM     24  H   UNL     1       2.524  -3.263 -10.509  0.00  0.00    -0.081 HD
BRANCH  23  25
ATOM     25  C   UNL     1       3.837  -1.791  -9.986  0.00  0.00    -0.042 C 
BRANCH  25  26
ATOM     26  C   UNL     1       3.807  -0.293  -9.830  0.00  0.00    -0.064 A 
ATOM     27  C   UNL     1       4.106   0.521 -10.907  0.00  0.00    +0.002 A 
ATOM     28  C   UNL     1       4.078   1.895 -10.763  0.00  0.00    +0.000 A 
ATOM     29  C   UNL     1       3.750   2.457  -9.543  0.00  0.00    +0.000 A 
ATOM     30  C   UNL     1       3.450   1.643  -8.467  0.00  0.00    +0.000 A 
ATOM     31  C   UNL     1       3.474   0.269  -8.611  0.00  0.00    +0.002 A 
ENDBRANCH  25  26
ENDBRANCH  23  25
BRANCH  23  32
ATOM     32  C   UNL     1       2.386  -1.773 -11.896  0.00  0.00    -0.044 C 
BRANCH  32  33
ATOM     33  C   UNL     1       3.123  -2.711 -12.854  0.00  0.00    +0.124 C 
BRANCH  33  34
ATOM     34  O   UNL     1       4.514  -2.729 -12.528  0.00  0.00    -0.391 OA
ATOM     35  H   UNL     1       4.942  -1.863 -12.581  0.00  0.00    +0.210 HD
ENDBRANCH  33  34
BRANCH  33  36
ATOM     36  C   UNL     1       2.942  -2.218 -14.291  0.00  0.00    +0.189 C 
BRANCH  36  37
ATOM     37  O   UNL     1       3.531  -3.156 -15.195  0.00  0.00    -0.373 OA
BRANCH  37  38
ATOM     38  C   UNL     1       3.416  -2.788 -16.571  0.00  0.00    +0.186 C 
BRANCH  38  39
ATOM     39  C   UNL     1       4.067  -3.842 -17.429  0.00  0.00    -0.007 C 
ATOM     40  C   UNL     1       3.461  -4.275 -18.506  0.00  0.00    +0.006 C 
ENDBRANCH  38  39
ENDBRANCH  37  38
ENDBRANCH  36  37
ENDBRANCH  33  36
ENDBRANCH  32  33
ENDBRANCH  23  32
ENDBRANCH  22  23
ENDBRANCH  10  22
TORSDOF 14
