REMARK  Name = ZINC20795146
REMARK  7 active torsions:
REMARK  status: ('A' for Active; 'I' for Inactive)
REMARK    1  A    between atoms: C_1  and  C_2
REMARK    2  A    between atoms: C_2  and  C_26
REMARK    3  A    between atoms: N_5  and  C_9
REMARK    4  A    between atoms: C_9  and  C_10
REMARK    5  A    between atoms: N_12  and  C_13
REMARK    6  A    between atoms: C_18  and  O_19
REMARK    7  A    between atoms: O_19  and  C_20
REMARK                            x       y       z     vdW  Elec       q    Type
REMARK                         _______ _______ _______ _____ _____    ______ ____
ROOT
ATOM      1  C   UNL     1       3.880  -0.929  -1.957  0.00  0.00    +0.235 C 
ATOM      2  O   UNL     1       3.582   0.246  -2.000  0.00  0.00    -0.274 OA
ATOM      3  N   UNL     1       5.107  -1.327  -2.344  0.00  0.00    -0.281 N 
ATOM      4  H   UNL     1       5.353  -2.264  -2.289  0.00  0.00    +0.155 HD
ENDROOT
BRANCH   3   5
ATOM      5  C   UNL     1       6.029  -0.389  -2.827  0.00  0.00    +0.076 A 
ATOM      6  C   UNL     1       5.890   0.953  -2.502  0.00  0.00    +0.027 A 
ATOM      7  C   UNL     1       6.800   1.877  -2.979  0.00  0.00    +0.002 A 
ATOM      8  C   UNL     1       7.850   1.468  -3.780  0.00  0.00    +0.004 A 
ATOM      9  C   UNL     1       7.996   0.133  -4.108  0.00  0.00    +0.048 A 
ATOM     10  C   UNL     1       7.091  -0.801  -3.629  0.00  0.00    +0.150 A 
BRANCH  10  11
ATOM     11  O   UNL     1       7.236  -2.115  -3.946  0.00  0.00    -0.454 OA
BRANCH  11  12
ATOM     12  C   UNL     1       8.340  -2.485  -4.645  0.00  0.00    +0.129 A 
ATOM     13  C   UNL     1       9.574  -2.550  -4.013  0.00  0.00    +0.046 A 
ATOM     14  C   UNL     1      10.695  -2.926  -4.726  0.00  0.00    +0.004 A 
ATOM     15  C   UNL     1      10.589  -3.238  -6.069  0.00  0.00    +0.000 A 
ATOM     16  C   UNL     1       9.361  -3.173  -6.702  0.00  0.00    +0.004 A 
ATOM     17  C   UNL     1       8.236  -2.803  -5.992  0.00  0.00    +0.046 A 
ENDBRANCH  11  12
ENDBRANCH  10  11
ENDBRANCH   3   5
BRANCH   1  18
ATOM     18  C   UNL     1       2.877  -1.943  -1.471  0.00  0.00    +0.214 C 
BRANCH  18  23
ATOM     19  C   UNL     1      -0.721   1.065  -1.758  0.00  0.00    +0.047 C 
ATOM     20  C   UNL     1      -0.451  -0.321  -1.168  0.00  0.00    +0.135 C 
ATOM     21  C   UNL     1       0.613  -1.044  -1.970  0.00  0.00    +0.251 C 
ATOM     22  O   UNL     1       0.561  -1.360  -3.139  0.00  0.00    -0.272 OA
ATOM     23  N   UNL     1       1.629  -1.263  -1.112  0.00  0.00    -0.215 N 
ATOM     24  C   UNL     1       1.358  -0.784   0.107  0.00  0.00    +0.310 C 
ATOM     25  O   UNL     1       2.122  -0.863   1.049  0.00  0.00    -0.252 OA
ATOM     26  N   UNL     1       0.145  -0.206   0.174  0.00  0.00    -0.281 N 
ATOM     27  H   UNL     1      -0.258   0.207   0.954  0.00  0.00    +0.152 HD
BRANCH  20  28
ATOM     28  C   UNL     1      -1.722  -1.130  -1.116  0.00  0.00    -0.016 A 
ATOM     29  C   UNL     1      -2.070  -1.940  -2.181  0.00  0.00    +0.006 A 
ATOM     30  C   UNL     1      -3.235  -2.682  -2.133  0.00  0.00    +0.000 A 
ATOM     31  C   UNL     1      -4.052  -2.614  -1.020  0.00  0.00    +0.000 A 
ATOM     32  C   UNL     1      -3.704  -1.805   0.045  0.00  0.00    +0.000 A 
ATOM     33  C   UNL     1      -2.536  -1.066  -0.001  0.00  0.00    +0.006 A 
ENDBRANCH  20  28
ENDBRANCH  18  23
ENDBRANCH   1  18
TORSDOF 6
