REMARK  Name = ZINC67240795
REMARK  5 active torsions:
REMARK  status: ('A' for Active; 'I' for Inactive)
REMARK    1  A    between atoms: C_1  and  C_2
REMARK    2  A    between atoms: C_7  and  C_12
REMARK    3  A    between atoms: N_14  and  C_15
REMARK    4  A    between atoms: C_18  and  C_21
REMARK    5  A    between atoms: C_21  and  N_22
REMARK                            x       y       z     vdW  Elec       q    Type
REMARK                         _______ _______ _______ _____ _____    ______ ____
ROOT
ATOM      1  C   UNL     1       1.209  -5.002  -1.103  0.00  0.00    +0.249 C 
ATOM      2  O   UNL     1       0.894  -4.582  -2.200  0.00  0.00    -0.270 OA
ATOM      3  N   UNL     1       1.512  -6.305  -0.942  0.00  0.00    -0.281 N 
ATOM      4  H   UNL     1       1.828  -6.627  -0.083  0.00  0.00    +0.155 HD
ENDROOT
BRANCH   1  10
ATOM      5  C   UNL     1      -0.015   1.526   0.011  0.00  0.00    +0.008 C 
ATOM      6  C   UNL     1       0.006  -0.004   0.005  0.00  0.00    -0.009 C 
ATOM      7  C   UNL     1       0.719  -0.501  -1.256  0.00  0.00    +0.008 C 
ATOM      8  C   UNL     1       0.531  -2.013  -1.399  0.00  0.00    +0.037 C 
ATOM      9  C   UNL     1       0.940  -2.680  -0.094  0.00  0.00    -0.025 A 
ATOM     10  C   UNL     1       1.260  -4.087   0.049  0.00  0.00    +0.047 A 
ATOM     11  C   UNL     1       1.613  -4.535   1.301  0.00  0.00    +0.058 A 
ATOM     12  S   UNL     1       1.530  -3.163   2.267  0.00  0.00    -0.101 S 
ATOM     13  C   UNL     1       1.032  -1.974   1.056  0.00  0.00    -0.006 A 
ATOM     14  C   UNL     1       0.763  -0.513   1.241  0.00  0.00    +0.046 C 
ENDBRANCH   1  10
BRANCH   3  15
ATOM     15  C   UNL     1       1.371  -7.194  -2.013  0.00  0.00    +0.034 A 
ATOM     16  C   UNL     1       0.956  -8.499  -1.784  0.00  0.00    +0.023 A 
ATOM     17  C   UNL     1       0.817  -9.374  -2.844  0.00  0.00    +0.007 A 
ATOM     18  C   UNL     1       1.090  -8.951  -4.131  0.00  0.00    -0.030 A 
ATOM     19  C   UNL     1       1.504  -7.652  -4.363  0.00  0.00    +0.007 A 
ATOM     20  C   UNL     1       1.639  -6.771  -3.308  0.00  0.00    +0.023 A 
BRANCH  18  21
ATOM     21  C   UNL     1       0.938  -9.908  -5.285  0.00  0.00    +0.141 C 
BRANCH  21  22
ATOM     22  N   UNL     1      -0.428  -9.827  -5.810  0.00  0.00    -0.295 N 
ATOM     23  C   UNL     1      -0.796 -10.599  -6.852  0.00  0.00    +0.297 C 
ATOM     24  O   UNL     1       0.004 -11.362  -7.356  0.00  0.00    -0.253 OA
ATOM     25  N   UNL     1      -2.052 -10.524  -7.335  0.00  0.00    -0.313 N 
ATOM     26  H   UNL     1      -1.066  -9.218  -5.408  0.00  0.00    +0.151 HD
ATOM     27  H   UNL     1      -2.691  -9.915  -6.932  0.00  0.00    +0.146 HD
ATOM     28  H   UNL     1      -2.318 -11.079  -8.084  0.00  0.00    +0.146 HD
ENDBRANCH  21  22
ENDBRANCH  18  21
ENDBRANCH   3  15
TORSDOF 4
