REMARK  Name = ZINC19354095
REMARK  3 active torsions:
REMARK  status: ('A' for Active; 'I' for Inactive)
REMARK    1  A    between atoms: C_4  and  N_7
REMARK    2  A    between atoms: C_9  and  C_18
REMARK    3  A    between atoms: C_10  and  C_12
REMARK                            x       y       z     vdW  Elec       q    Type
REMARK                         _______ _______ _______ _____ _____    ______ ____
ROOT
ATOM      1  C   UNL     1       5.237  -3.798  -0.218  0.00  0.00    +0.212 C 
ATOM      2  N   UNL     1       4.098  -4.557  -0.767  0.00  0.00    -0.293 N 
ATOM      3  C   UNL     1       3.075  -4.944   0.057  0.00  0.00    +0.183 C 
ATOM      4  N   UNL     1       3.279  -5.196   1.338  0.00  0.00    -0.183 NA
ATOM      5  C   UNL     1       4.521  -5.002   1.843  0.00  0.00    +0.236 A 
ATOM      6  N   UNL     1       5.498  -4.338   1.121  0.00  0.00    -0.285 N 
ATOM      7  C   UNL     1       6.641  -4.311   1.884  0.00  0.00    +0.076 A 
ATOM      8  C   UNL     1       7.923  -3.810   1.694  0.00  0.00    +0.077 A 
ATOM      9  C   UNL     1       8.870  -3.948   2.689  0.00  0.00    +0.164 A 
ATOM     10  C   UNL     1       8.552  -4.587   3.884  0.00  0.00    +0.164 A 
ATOM     11  C   UNL     1       7.285  -5.092   4.090  0.00  0.00    +0.079 A 
ATOM     12  C   UNL     1       6.315  -4.958   3.091  0.00  0.00    +0.095 A 
ATOM     13  N   UNL     1       5.006  -5.347   3.006  0.00  0.00    -0.210 NA
ATOM     14  O   UNL     1       9.503  -4.712   4.856  0.00  0.00    -0.488 OA
ATOM     15  C   UNL     1      10.592  -5.587   4.556  0.00  0.00    +0.232 C 
ATOM     16  C   UNL     1      11.664  -4.860   3.760  0.00  0.00    +0.082 C 
ATOM     17  C   UNL     1      11.172  -4.426   2.388  0.00  0.00    +0.232 C 
ATOM     18  O   UNL     1      10.131  -3.454   2.506  0.00  0.00    -0.488 OA
ATOM     19  N   UNL     1       1.813  -5.071  -0.458  0.00  0.00    -0.331 N 
ATOM     20  H   UNL     1       4.075  -4.783  -1.710  0.00  0.00    +0.151 HD
ATOM     21  H   UNL     1       1.651  -4.889  -1.397  0.00  0.00    +0.145 HD
ATOM     22  H   UNL     1       1.080  -5.344   0.116  0.00  0.00    +0.145 HD
ENDROOT
BRANCH   1  25
ATOM     23  N   UNL     1       4.300  -0.377   0.664  0.00  0.00    -0.239 N 
ATOM     24  C   UNL     1       4.541  -1.671   1.001  0.00  0.00    +0.122 A 
ATOM     25  C   UNL     1       4.884  -2.336  -0.124  0.00  0.00    +0.039 A 
ATOM     26  C   UNL     1       4.854  -1.420  -1.194  0.00  0.00    +0.101 A 
ATOM     27  N   UNL     1       4.497  -0.246  -0.717  0.00  0.00    -0.166 NA
BRANCH  23  31
ATOM     28  C   UNL     1       3.156   2.663   3.276  0.00  0.00    +0.000 A 
ATOM     29  C   UNL     1       3.316   2.934   1.929  0.00  0.00    +0.002 A 
ATOM     30  C   UNL     1       3.695   1.929   1.061  0.00  0.00    +0.028 A 
ATOM     31  C   UNL     1       3.916   0.645   1.542  0.00  0.00    +0.065 A 
ATOM     32  C   UNL     1       3.755   0.376   2.894  0.00  0.00    +0.028 A 
ATOM     33  C   UNL     1       3.375   1.385   3.757  0.00  0.00    +0.002 A 
ENDBRANCH  23  31
BRANCH  26  34
ATOM     34  C   UNL     1       5.164  -1.726  -2.612  0.00  0.00    +0.021 A 
ATOM     35  C   UNL     1       4.374  -1.205  -3.641  0.00  0.00    +0.013 A 
ATOM     36  C   UNL     1       4.705  -1.520  -4.947  0.00  0.00    +0.020 A 
ATOM     37  C   UNL     1       5.797  -2.333  -5.191  0.00  0.00    +0.111 A 
ATOM     38  N   UNL     1       6.524  -2.811  -4.200  0.00  0.00    -0.263 NA
ATOM     39  C   UNL     1       6.250  -2.534  -2.941  0.00  0.00    +0.120 A 
ENDBRANCH  26  34
ENDBRANCH   1  25
TORSDOF 3
