REMARK  Name = ZINC21247722
REMARK  10 active torsions:
REMARK  status: ('A' for Active; 'I' for Inactive)
REMARK    1  A    between atoms: C_1  and  C_2
REMARK    2  A    between atoms: C_7  and  C_8
REMARK    3  A    between atoms: C_8  and  C_9
REMARK    4  A    between atoms: C_8  and  C_10
REMARK    5  A    between atoms: C_11  and  C_16
REMARK    6  A    between atoms: C_16  and  S_17
REMARK    7  A    between atoms: S_17  and  C_18
REMARK    8  A    between atoms: C_21  and  C_24
REMARK    9  A    between atoms: N_22  and  N_23
REMARK   10  A    between atoms: C_28  and  C_29
REMARK                            x       y       z     vdW  Elec       q    Type
REMARK                         _______ _______ _______ _____ _____    ______ ____
ROOT
ATOM      1  C   UNL     1      -4.523   1.925  -0.410  0.00  0.00    +0.113 C 
ENDROOT
BRANCH   1   9
ATOM      2  C   UNL     1      -9.164  -2.618   1.051  0.00  0.00    +0.044 C 
ATOM      3  C   UNL     1      -8.278  -1.411   0.880  0.00  0.00    -0.044 A 
ATOM      4  C   UNL     1      -8.621  -0.221   1.488  0.00  0.00    +0.050 A 
ATOM      5  C   UNL     1      -7.812   0.896   1.331  0.00  0.00    +0.140 A 
ATOM      6  C   UNL     1      -6.641   0.799   0.558  0.00  0.00    +0.022 A 
ATOM      7  C   UNL     1      -6.301  -0.417  -0.043  0.00  0.00    +0.016 A 
ATOM      8  C   UNL     1      -7.120  -1.510   0.122  0.00  0.00    -0.041 A 
ATOM      9  C   UNL     1      -5.791   1.983   0.403  0.00  0.00    -0.020 A 
ATOM     10  C   UNL     1      -6.179   3.135   1.007  0.00  0.00    +0.097 A 
ATOM     11  C   UNL     1      -7.371   3.163   1.764  0.00  0.00    +0.338 A 
ATOM     12  O   UNL     1      -7.708   4.202   2.301  0.00  0.00    -0.245 OA
ATOM     13  O   UNL     1      -8.141   2.073   1.906  0.00  0.00    -0.422 OA
BRANCH   8  14
ATOM     14  C   UNL     1      -6.758  -2.823  -0.523  0.00  0.00    +0.013 C 
ATOM     15  C   UNL     1      -6.822  -2.678  -2.045  0.00  0.00    +0.012 C 
ATOM     16  C   UNL     1      -5.340  -3.221  -0.108  0.00  0.00    +0.012 C 
ENDBRANCH   8  14
ENDBRANCH   1   9
BRANCH   1  17
ATOM     17  S   UNL     1      -3.139   1.464   0.662  0.00  0.00    -0.080 S 
BRANCH  17  18
ATOM     18  C   UNL     1      -1.827   1.471  -0.514  0.00  0.00    +0.209 A 
ATOM     19  N   UNL     1      -1.928   1.749  -1.793  0.00  0.00    -0.121 NA
ATOM     20  N   UNL     1      -0.776   1.661  -2.357  0.00  0.00    -0.127 NA
ATOM     21  C   UNL     1       0.132   1.327  -1.470  0.00  0.00    +0.185 A 
ATOM     22  N   UNL     1      -0.512   1.189  -0.264  0.00  0.00    -0.224 N 
BRANCH  21  23
ATOM     23  C   UNL     1       1.577   1.132  -1.723  0.00  0.00    +0.061 A 
ATOM     24  C   UNL     1       2.605   0.755  -0.745  0.00  0.00    +0.053 A 
ATOM     25  C   UNL     1       3.761   0.697  -1.426  0.00  0.00    +0.196 A 
ATOM     26  O   UNL     1       3.528   1.001  -2.712  0.00  0.00    -0.467 OA
ATOM     27  C   UNL     1       2.227   1.260  -2.911  0.00  0.00    +0.112 A 
ATOM     28  C   UNL     1       1.594   1.631  -4.227  0.00  0.00    +0.087 C 
ENDBRANCH  21  23
BRANCH  22  29
ATOM     29  N   UNL     1       0.045   0.848   0.936  0.00  0.00    -0.295 N 
ATOM     30  H   UNL     1       1.124   0.644   1.003  0.00  0.00    +0.163 HD
ATOM     31  H   UNL     1      -0.585   0.776   1.835  0.00  0.00    +0.163 HD
ENDBRANCH  22  29
ENDBRANCH  17  18
ENDBRANCH   1  17
TORSDOF 6
