REMARK  Name = ZINC12377783
REMARK  5 active torsions:
REMARK  status: ('A' for Active; 'I' for Inactive)
REMARK    1  A    between atoms: C_1  and  C_2
REMARK    2  A    between atoms: N_7  and  C_8
REMARK    3  A    between atoms: C_8  and  C_10
REMARK    4  A    between atoms: C_8  and  C_19
REMARK    5  A    between atoms: C_20  and  C_29
REMARK                            x       y       z     vdW  Elec       q    Type
REMARK                         _______ _______ _______ _____ _____    ______ ____
ROOT
ATOM      1  C   UNL     1       1.281   2.153  -0.035  0.00  0.00    +0.135 C 
ENDROOT
BRANCH   1   2
ATOM      2  C   UNL     1       1.884   2.300   1.339  0.00  0.00    +0.005 A 
ATOM      3  C   UNL     1       3.122   1.937   1.710  0.00  0.00    +0.019 A 
ATOM      4  N   UNL     1       3.316   2.228   3.033  0.00  0.00    -0.358 N 
ATOM      5  H   UNL     1       4.133   2.059   3.527  0.00  0.00    +0.166 HD
ATOM      6  C   UNL     1       2.175   2.791   3.561  0.00  0.00    +0.047 A 
ATOM      7  C   UNL     1       1.228   2.861   2.523  0.00  0.00    +0.005 A 
ATOM      8  C   UNL     1      -0.038   3.394   2.770  0.00  0.00    +0.010 A 
ATOM      9  C   UNL     1      -0.351   3.846   4.021  0.00  0.00    +0.001 A 
ATOM     10  C   UNL     1       0.579   3.779   5.049  0.00  0.00    +0.002 A 
ATOM     11  C   UNL     1       1.835   3.256   4.827  0.00  0.00    +0.026 A 
ATOM     12  C   UNL     1       4.147   1.306   0.804  0.00  0.00    +0.063 C 
ENDBRANCH   1   2
BRANCH   1  19
ATOM     13  C   UNL     1       1.670  -2.948   0.258  0.00  0.00    +0.044 C 
ATOM     14  C   UNL     1       0.529  -1.963   0.269  0.00  0.00    -0.046 A 
ATOM     15  C   UNL     1      -0.784  -2.400   0.380  0.00  0.00    +0.021 A 
ATOM     16  C   UNL     1      -1.806  -1.472   0.388  0.00  0.00    +0.084 A 
ATOM     17  C   UNL     1      -0.311   0.274   0.184  0.00  0.00    +0.097 A 
ATOM     18  C   UNL     1       0.767  -0.605   0.170  0.00  0.00    +0.045 A 
ATOM     19  N   UNL     1      -0.087   1.642   0.085  0.00  0.00    -0.320 N 
ATOM     20  H   UNL     1      -0.836   2.258   0.091  0.00  0.00    +0.148 HD
ATOM     21  N   UNL     1      -1.609  -0.130   0.298  0.00  0.00    -0.350 N 
ATOM     22  H   UNL     1      -2.389   0.538   0.316  0.00  0.00    +0.166 HD
ENDBRANCH   1  19
BRANCH   1  23
ATOM     23  C   UNL     1       1.258   3.496  -0.719  0.00  0.00    -0.019 A 
ATOM     24  C   UNL     1       0.256   4.402  -0.426  0.00  0.00    +0.009 A 
ATOM     25  C   UNL     1       0.233   5.637  -1.048  0.00  0.00    +0.050 A 
ATOM     26  C   UNL     1       1.209   5.964  -1.975  0.00  0.00    +0.166 A 
ATOM     27  C   UNL     1       2.215   5.049  -2.275  0.00  0.00    +0.167 A 
ATOM     28  C   UNL     1       2.235   3.815  -1.643  0.00  0.00    +0.055 A 
ATOM     29  O   UNL     1       3.044   5.601  -3.207  0.00  0.00    -0.453 OA
ATOM     30  C   UNL     1       2.773   7.015  -3.174  0.00  0.00    +0.466 C 
ATOM     31  O   UNL     1       1.408   7.090  -2.720  0.00  0.00    -0.453 OA
ENDBRANCH   1  23
TORSDOF 3
