REMARK  Name = ZINC17045099
REMARK  5 active torsions:
REMARK  status: ('A' for Active; 'I' for Inactive)
REMARK    1  A    between atoms: C_1  and  N_50
REMARK    2  A    between atoms: C_3  and  C_24
REMARK    3  A    between atoms: C_5  and  C_17
REMARK    4  A    between atoms: C_17  and  C_19
REMARK    5  A    between atoms: C_27  and  N_30
REMARK                            x       y       z     vdW  Elec       q    Type
REMARK                         _______ _______ _______ _____ _____    ______ ____
ROOT
ATOM      1  C   UNL     1      -2.257   9.085  -0.317  0.00  0.00    -0.094 C 
ATOM      2  C   UNL     1      -1.066   7.755   1.340  0.00  0.00    -0.068 C 
ATOM      3  C   UNL     1      -0.726   6.250   1.487  0.00  0.00    +0.013 C 
ATOM      4  C   UNL     1      -0.865   5.720   0.039  0.00  0.00    +0.071 C 
ATOM      5  C   UNL     1      -1.770   6.737  -0.666  0.00  0.00    +0.051 C 
ATOM      6  C   UNL     1      -1.076   7.348  -1.853  0.00  0.00    -0.027 A 
ATOM      7  C   UNL     1       0.079   8.085  -1.996  0.00  0.00    +0.004 A 
ATOM      8  C   UNL     1       0.470   8.521  -3.249  0.00  0.00    +0.000 A 
ATOM      9  C   UNL     1      -0.301   8.216  -4.356  0.00  0.00    +0.002 A 
ATOM     10  C   UNL     1      -1.458   7.478  -4.217  0.00  0.00    +0.023 A 
ATOM     11  C   UNL     1      -1.859   7.034  -2.959  0.00  0.00    +0.036 A 
ATOM     12  N   UNL     1      -2.970   6.284  -2.567  0.00  0.00    -0.286 N 
ATOM     13  C   UNL     1      -2.992   6.065  -1.239  0.00  0.00    +0.212 C 
ATOM     14  O   UNL     1      -3.832   5.445  -0.622  0.00  0.00    -0.277 OA
ATOM     15  H   UNL     1      -3.647   5.959  -3.181  0.00  0.00    +0.155 HD
ATOM     16  N   UNL     1      -2.129   7.743   0.328  0.00  0.00    +0.391 N 
ATOM     17  H   UNL     1      -3.023   7.494   0.768  0.00  0.00    -0.080 HD
ENDROOT
BRANCH   3  18
ATOM     18  C   UNL     1       0.683   6.067   1.988  0.00  0.00    -0.045 A 
ATOM     19  C   UNL     1       1.736   6.670   1.325  0.00  0.00    +0.006 A 
ATOM     20  C   UNL     1       3.028   6.506   1.788  0.00  0.00    +0.033 A 
ATOM     21  C   UNL     1       3.269   5.733   2.909  0.00  0.00    +0.126 A 
ATOM     22  C   UNL     1       2.216   5.127   3.569  0.00  0.00    +0.033 A 
ATOM     23  C   UNL     1       0.923   5.293   3.108  0.00  0.00    +0.006 A 
BRANCH  21  24
ATOM     24  N   UNL     1       4.653   5.554   3.402  0.00  0.00    +0.056 N 
ATOM     25  O   UNL     1       4.864   4.873   4.389  0.00  0.00    -0.126 OA
ATOM     26  O   UNL     1       5.580   6.089   2.821  0.00  0.00    -0.126 OA
ENDBRANCH  21  24
ENDBRANCH   3  18
BRANCH   4  27
ATOM     27  C   UNL     1      -1.506   4.357   0.038  0.00  0.00    +0.201 C 
ATOM     28  O   UNL     1      -2.201   4.012   0.973  0.00  0.00    -0.289 OA
BRANCH  27  29
ATOM     29  C   UNL     1      -1.300   3.479  -1.050  0.00  0.00    +0.170 A 
ATOM     30  C   UNL     1      -1.828   2.210  -1.184  0.00  0.00    +0.053 A 
ATOM     31  C   UNL     1      -1.359   1.711  -2.406  0.00  0.00    +0.042 A 
ATOM     32  C   UNL     1      -0.588   2.673  -2.963  0.00  0.00    +0.196 A 
ATOM     33  O   UNL     1      -0.555   3.733  -2.147  0.00  0.00    -0.460 OA
ENDBRANCH  27  29
ENDBRANCH   4  27
TORSDOF 4
