REMARK  Name = ZINC39530365
REMARK  8 active torsions:
REMARK  status: ('A' for Active; 'I' for Inactive)
REMARK    1  A    between atoms: C_4  and  C_7
REMARK    2  A    between atoms: C_7  and  C_8
REMARK    3  A    between atoms: C_11  and  N_24
REMARK    4  A    between atoms: C_12  and  S_14
REMARK    5  A    between atoms: S_14  and  O_17
REMARK    6  A    between atoms: O_17  and  C_18
REMARK    7  A    between atoms: C_28  and  C_31
REMARK    8  A    between atoms: C_31  and  C_32
REMARK                            x       y       z     vdW  Elec       q    Type
REMARK                         _______ _______ _______ _____ _____    ______ ____
ROOT
ATOM      1  C   UNL     1       4.588  -1.110   1.458  0.00  0.00    -0.041 A 
ATOM      2  C   UNL     1       4.702  -0.025   2.308  0.00  0.00    +0.006 A 
ATOM      3  C   UNL     1       4.665  -0.210   3.675  0.00  0.00    +0.025 A 
ATOM      4  C   UNL     1       4.513  -1.489   4.198  0.00  0.00    +0.058 A 
ATOM      5  C   UNL     1       4.400  -2.576   3.341  0.00  0.00    +0.149 A 
ATOM      6  C   UNL     1       4.432  -2.383   1.974  0.00  0.00    +0.036 A 
ENDROOT
BRANCH   4   7
ATOM      7  N   UNL     1       4.476  -1.680   5.581  0.00  0.00    -0.332 N 
ATOM      8  C   UNL     1       5.643  -2.211   6.303  0.00  0.00    +0.086 C 
ATOM      9  C   UNL     1       5.180  -3.376   7.184  0.00  0.00    -0.063 C 
ATOM     10  N   UNL     1       4.084  -2.927   8.051  0.00  0.00    +0.383 N 
ATOM     11  C   UNL     1       2.919  -2.562   7.235  0.00  0.00    -0.050 C 
ATOM     12  C   UNL     1       3.271  -1.351   6.358  0.00  0.00    +0.089 C 
ATOM     13  H   UNL     1       3.830  -3.672   8.683  0.00  0.00    -0.085 HD
ATOM     14  H   UNL     1       4.385  -2.125   8.584  0.00  0.00    -0.085 HD
BRANCH  11  15
ATOM     15  C   UNL     1       1.747  -2.202   8.151  0.00  0.00    +0.021 C 
BRANCH  15  16
ATOM     16  C   UNL     1       1.323  -3.423   8.928  0.00  0.00    -0.049 A 
ATOM     17  C   UNL     1       0.364  -4.272   8.410  0.00  0.00    +0.003 A 
ATOM     18  C   UNL     1      -0.025  -5.392   9.122  0.00  0.00    +0.000 A 
ATOM     19  C   UNL     1       0.547  -5.662  10.351  0.00  0.00    +0.000 A 
ATOM     20  C   UNL     1       1.507  -4.812  10.869  0.00  0.00    +0.000 A 
ATOM     21  C   UNL     1       1.898  -3.695  10.155  0.00  0.00    +0.003 A 
ENDBRANCH  15  16
ENDBRANCH  11  15
ENDBRANCH   4   7
BRANCH   5  22
ATOM     22  S   UNL     1       4.208  -4.200   3.998  0.00  0.00    +0.153 S 
ATOM     23  O   UNL     1       3.174  -4.125   4.970  0.00  0.00    -0.131 OA
ATOM     24  O   UNL     1       4.146  -5.083   2.887  0.00  0.00    -0.131 OA
BRANCH  22  25
ATOM     25  O   UNL     1       5.488  -4.535   4.750  0.00  0.00    -0.342 OA
BRANCH  25  26
ATOM     26  C   UNL     1       6.532  -4.866   3.944  0.00  0.00    +0.157 A 
ATOM     27  C   UNL     1       6.730  -6.187   3.571  0.00  0.00    +0.048 A 
ATOM     28  C   UNL     1       7.791  -6.520   2.752  0.00  0.00    +0.004 A 
ATOM     29  C   UNL     1       8.656  -5.538   2.304  0.00  0.00    +0.000 A 
ATOM     30  C   UNL     1       8.461  -4.221   2.676  0.00  0.00    +0.004 A 
ATOM     31  C   UNL     1       7.397  -3.882   3.490  0.00  0.00    +0.048 A 
ENDBRANCH  25  26
ENDBRANCH  22  25
ENDBRANCH   5  22
BRANCH   1  32
ATOM     32  C   UNL     1       4.629  -0.903  -0.035  0.00  0.00    +0.070 C 
BRANCH  32  36
ATOM     33  C   UNL     1       0.669  -0.234  -1.490  0.00  0.00    +0.000 A 
ATOM     34  C   UNL     1       1.447   0.835  -1.087  0.00  0.00    +0.000 A 
ATOM     35  C   UNL     1       2.729   0.618  -0.616  0.00  0.00    +0.004 A 
ATOM     36  C   UNL     1       3.232  -0.667  -0.547  0.00  0.00    -0.043 A 
ATOM     37  C   UNL     1       2.453  -1.737  -0.950  0.00  0.00    +0.004 A 
ATOM     38  C   UNL     1       1.173  -1.520  -1.422  0.00  0.00    +0.000 A 
ENDBRANCH  32  36
ENDBRANCH   1  32
TORSDOF 8
