REMARK  Name = ZINC39541364
REMARK  5 active torsions:
REMARK  status: ('A' for Active; 'I' for Inactive)
REMARK    1  A    between atoms: C_1  and  C_2
REMARK    2  A    between atoms: C_2  and  C_3
REMARK    3  A    between atoms: C_3  and  N_4
REMARK    4  A    between atoms: C_17  and  C_27
REMARK    5  A    between atoms: C_32  and  O_33
REMARK                            x       y       z     vdW  Elec       q    Type
REMARK                         _______ _______ _______ _____ _____    ______ ____
ROOT
ATOM      1  N   UNL     1       0.738  -1.962  -1.265  0.00  0.00    -0.337 N 
ATOM      2  C   UNL     1       1.712  -2.752  -0.718  0.00  0.00    +0.050 A 
ATOM      3  C   UNL     1       2.888  -2.432  -0.042  0.00  0.00    +0.026 A 
ATOM      4  C   UNL     1       3.671  -3.487   0.392  0.00  0.00    +0.002 A 
ATOM      5  C   UNL     1       3.315  -4.808   0.172  0.00  0.00    +0.001 A 
ATOM      6  C   UNL     1       2.166  -5.155  -0.490  0.00  0.00    +0.010 A 
ATOM      7  C   UNL     1       1.348  -4.109  -0.944  0.00  0.00    +0.004 A 
ATOM      8  C   UNL     1       0.140  -4.090  -1.633  0.00  0.00    -0.010 A 
ATOM      9  C   UNL     1      -0.219  -2.773  -1.816  0.00  0.00    +0.089 A 
ATOM     10  C   UNL     1      -1.470  -2.439  -2.521  0.00  0.00    +0.161 A 
ATOM     11  N   UNL     1      -1.656  -1.237  -3.005  0.00  0.00    -0.227 NA
ATOM     12  C   UNL     1      -2.771  -0.907  -3.686  0.00  0.00    +0.079 A 
ATOM     13  C   UNL     1      -2.966   0.382  -4.184  0.00  0.00    +0.038 A 
ATOM     14  C   UNL     1      -4.125   0.674  -4.890  0.00  0.00    +0.002 A 
ATOM     15  C   UNL     1      -5.096  -0.314  -5.103  0.00  0.00    +0.027 A 
ATOM     16  C   UNL     1      -4.919  -1.578  -4.617  0.00  0.00    +0.031 A 
ATOM     17  C   UNL     1      -3.763  -1.892  -3.902  0.00  0.00    +0.066 A 
ATOM     18  C   UNL     1      -3.540  -3.235  -3.348  0.00  0.00    +0.262 A 
ATOM     19  O   UNL     1      -4.349  -4.128  -3.520  0.00  0.00    -0.267 OA
ATOM     20  N   UNL     1      -2.407  -3.445  -2.640  0.00  0.00    -0.291 N 
ATOM     21  C   UNL     1      -2.203  -4.737  -1.976  0.00  0.00    +0.131 C 
ATOM     22  C   UNL     1      -0.743  -5.202  -2.148  0.00  0.00    +0.059 C 
ATOM     23 BR   UNL     1      -6.665   0.107  -6.071  0.00  0.00    -0.050 Br
ENDROOT
BRANCH  14  24
ATOM     24  C   UNL     1      -4.339   2.041  -5.421  0.00  0.00    +0.025 A 
ATOM     25  C   UNL     1      -3.501   2.545  -6.413  0.00  0.00    +0.012 A 
ATOM     26  C   UNL     1      -3.704   3.818  -6.904  0.00  0.00    +0.001 A 
ATOM     27  C   UNL     1      -4.738   4.598  -6.415  0.00  0.00    +0.004 A 
ATOM     28  C   UNL     1      -5.575   4.108  -5.431  0.00  0.00    +0.046 A 
ATOM     29  C   UNL     1      -5.386   2.829  -4.932  0.00  0.00    +0.125 A 
BRANCH  29  30
ATOM     30  O   UNL     1      -6.212   2.344  -3.969  0.00  0.00    -0.506 OA
ATOM     31  H   UNL     1      -5.916   2.529  -3.067  0.00  0.00    +0.292 HD
ENDBRANCH  29  30
ENDBRANCH  14  24
BRANCH   1  32
ATOM     32  C   UNL     1       0.718  -0.497  -1.257  0.00  0.00    +0.122 C 
BRANCH  32  34
ATOM     33  C   UNL     1      -0.019   1.526   0.010  0.00  0.00    +0.005 C 
ATOM     34  C   UNL     1       0.002  -0.004   0.002  0.00  0.00    +0.018 C 
ENDBRANCH  32  34
ENDBRANCH   1  32
TORSDOF 4
