REMARK  Name = ZINC08730154
REMARK  1 active torsions:
REMARK  status: ('A' for Active; 'I' for Inactive)
REMARK    1  A    between atoms: N_12  and  N_13
REMARK                            x       y       z     vdW  Elec       q    Type
REMARK                         _______ _______ _______ _____ _____    ______ ____
ROOT
ATOM      1  C   UNL     1       2.402   0.033  -0.021  0.00  0.00    +0.017 A 
ATOM      2  C   UNL     1       2.400   1.413  -0.014  0.00  0.00    +0.029 A 
ATOM      3  C   UNL     1       1.196   2.101   0.002  0.00  0.00    +0.068 A 
ATOM      4  C   UNL     1      -0.017   1.393   0.010  0.00  0.00    +0.092 A 
ATOM      5  C   UNL     1       0.002  -0.004   0.002  0.00  0.00    +0.045 A 
ATOM      6  C   UNL     1       1.207  -0.672  -0.013  0.00  0.00    +0.020 A 
ATOM      7 BR   UNL     1       1.233  -2.563  -0.024  0.00  0.00    -0.050 Br
ATOM      8  N   UNL     1      -1.017   2.313   0.019  0.00  0.00    -0.214 NA
ATOM      9  C   UNL     1      -0.506   3.518   0.026  0.00  0.00    +0.208 A 
ATOM     10  N   UNL     1       0.858   3.444   0.012  0.00  0.00    -0.325 N 
ATOM     11  H   UNL     1       1.494   4.216   0.011  0.00  0.00    +0.169 HD
ATOM     12  N   UNL     1      -1.235   4.688   0.039  0.00  0.00    -0.253 N 
ATOM     13  H   UNL     1      -0.779   5.544   0.039  0.00  0.00    +0.169 HD
ENDROOT
BRANCH  12  14
ATOM     14  N   UNL     1      -2.601   4.642   0.051  0.00  0.00    -0.254 NA
ATOM     15  H   UNL     1      -2.937   4.099   0.833  0.00  0.00    +0.140 HD
ATOM     16  H   UNL     1      -2.994   5.571   0.060  0.00  0.00    +0.140 HD
ENDBRANCH  12  14
TORSDOF 1
