REMARK  Name = ZINC13691023
REMARK  5 active torsions:
REMARK  status: ('A' for Active; 'I' for Inactive)
REMARK    1  A    between atoms: C_7  and  O_28
REMARK    2  A    between atoms: C_9  and  C_22
REMARK    3  A    between atoms: N_11  and  C_15
REMARK    4  A    between atoms: C_15  and  C_16
REMARK    5  A    between atoms: C_22  and  C_23
REMARK                            x       y       z     vdW  Elec       q    Type
REMARK                         _______ _______ _______ _____ _____    ______ ____
ROOT
ATOM      1  C   UNL     1      -1.229   3.130   0.029  0.00  0.00    +0.000 A 
ATOM      2  C   UNL     1      -1.220   1.747   0.017  0.00  0.00    +0.002 A 
ATOM      3  C   UNL     1      -0.013   1.076   0.008  0.00  0.00    +0.029 A 
ATOM      4  C   UNL     1       1.178   1.781   0.000  0.00  0.00    +0.111 A 
ATOM      5  C   UNL     1       1.179   3.159  -0.013  0.00  0.00    +0.009 A 
ATOM      6  C   UNL     1      -0.041   3.829   0.012  0.00  0.00    +0.008 A 
ATOM      7  C   UNL     1       2.424   3.994  -0.066  0.00  0.00    +0.165 C 
ATOM      8  C   UNL     1       3.647   3.318   0.531  0.00  0.00    +0.118 C 
ATOM      9  N   UNL     1       3.883   2.040  -0.168  0.00  0.00    -0.166 NA
ATOM     10  S   UNL     1       2.700   0.883   0.037  0.00  0.00    +0.062 S 
ATOM     11  O   UNL     1       2.847   0.368   1.353  0.00  0.00    -0.153 OA
ATOM     12  O   UNL     1       2.723   0.057  -1.120  0.00  0.00    -0.153 OA
ENDROOT
BRANCH   7  13
ATOM     13  O   UNL     1       2.700   4.313  -1.431  0.00  0.00    -0.385 OA
ATOM     14  H   UNL     1       1.996   4.809  -1.870  0.00  0.00    +0.210 HD
ENDBRANCH   7  13
BRANCH   9  15
ATOM     15  C   UNL     1       5.075   1.804  -0.986  0.00  0.00    +0.145 C 
BRANCH  15  16
ATOM     16  C   UNL     1       6.206   1.342  -0.103  0.00  0.00    -0.029 A 
ATOM     17  C   UNL     1       7.078   2.255   0.470  0.00  0.00    +0.024 A 
ATOM     18  C   UNL     1       8.100   1.794   1.278  0.00  0.00    +0.111 A 
ATOM     19  N   UNL     1       8.257   0.503   1.497  0.00  0.00    -0.263 NA
ATOM     20  C   UNL     1       7.451  -0.394   0.964  0.00  0.00    +0.111 A 
ATOM     21  C   UNL     1       6.403  -0.007   0.150  0.00  0.00    +0.024 A 
ENDBRANCH  15  16
ENDBRANCH   9  15
BRANCH   8  22
ATOM     22  C   UNL     1       3.409   3.052   2.018  0.00  0.00    +0.066 C 
BRANCH  22  23
ATOM     23  C   UNL     1       4.665   2.494   2.636  0.00  0.00    -0.009 A 
ATOM     24  C   UNL     1       5.699   3.155   3.213  0.00  0.00    +0.011 A 
ATOM     25  C   UNL     1       6.760   2.428   3.720  0.00  0.00    +0.008 A 
ATOM     26  C   UNL     1       6.735   1.076   3.625  0.00  0.00    +0.045 A 
ATOM     27  S   UNL     1       5.175   0.791   2.806  0.00  0.00    -0.102 S 
ENDBRANCH  22  23
ENDBRANCH   8  22
TORSDOF 5
