REMARK  Name = ZINC35886264
REMARK  6 active torsions:
REMARK  status: ('A' for Active; 'I' for Inactive)
REMARK    1  A    between atoms: C_4  and  C_7
REMARK    2  A    between atoms: C_7  and  C_8
REMARK    3  A    between atoms: N_11  and  C_14
REMARK    4  A    between atoms: C_14  and  C_15
REMARK    5  A    between atoms: C_20  and  C_22
REMARK    6  A    between atoms: C_29  and  C_31
REMARK                            x       y       z     vdW  Elec       q    Type
REMARK                         _______ _______ _______ _____ _____    ______ ____
ROOT
ATOM      1  C   UNL     1       8.177  -1.632   4.629  0.00  0.00    -0.001 C 
ATOM      2  C   UNL     1       9.232  -0.711   3.977  0.00  0.00    +0.110 C 
ATOM      3  N   UNL     1       9.913  -0.056   5.118  0.00  0.00    -0.297 N 
ATOM      4  C   UNL     1      10.044  -1.129   6.131  0.00  0.00    +0.116 C 
ATOM      5  C   UNL     1       8.712  -1.909   6.050  0.00  0.00    +0.039 C 
ATOM      6  C   UNL     1      10.321   1.225   5.213  0.00  0.00    +0.247 C 
ATOM      7  O   UNL     1      10.198   1.973   4.262  0.00  0.00    -0.270 OA
ENDROOT
BRANCH   5   8
ATOM      8  C   UNL     1       8.954  -3.385   6.239  0.00  0.00    -0.040 A 
ATOM      9  C   UNL     1       9.856  -4.047   5.426  0.00  0.00    +0.004 A 
ATOM     10  C   UNL     1      10.080  -5.400   5.599  0.00  0.00    +0.003 A 
ATOM     11  C   UNL     1       9.401  -6.093   6.584  0.00  0.00    +0.038 A 
ATOM     12  C   UNL     1       8.498  -5.431   7.398  0.00  0.00    +0.124 A 
ATOM     13  C   UNL     1       8.279  -4.074   7.228  0.00  0.00    +0.042 A 
ATOM     14  F   UNL     1       7.834  -6.108   8.360  0.00  0.00    -0.205 F 
ENDBRANCH   5   8
BRANCH   6  15
ATOM     15  C   UNL     1      10.917   1.720   6.472  0.00  0.00    +0.037 A 
ATOM     16  C   UNL     1      11.701   0.873   7.256  0.00  0.00    +0.013 A 
ATOM     17  C   UNL     1      12.255   1.342   8.430  0.00  0.00    +0.001 A 
ATOM     18  C   UNL     1      12.034   2.647   8.830  0.00  0.00    +0.000 A 
ATOM     19  C   UNL     1      11.256   3.492   8.057  0.00  0.00    +0.001 A 
ATOM     20  C   UNL     1      10.702   3.038   6.878  0.00  0.00    +0.013 A 
ENDBRANCH   6  15
BRANCH   1  21
ATOM     21  C   UNL     1       6.823  -0.923   4.699  0.00  0.00    -0.073 C 
BRANCH  21  25
ATOM     22  C   UNL     1       4.267  -1.040   1.292  0.00  0.00    -0.010 C 
ATOM     23  C   UNL     1       4.541   0.299   1.982  0.00  0.00    -0.015 C 
ATOM     24  C   UNL     1       5.054   0.041   3.400  0.00  0.00    -0.079 C 
ATOM     25  N   UNL     1       6.293  -0.744   3.341  0.00  0.00    +0.380 N 
ATOM     26  C   UNL     1       6.023  -2.058   2.745  0.00  0.00    -0.079 C 
ATOM     27  C   UNL     1       5.548  -1.880   1.302  0.00  0.00    -0.015 C 
ATOM     28  H   UNL     1       6.973  -0.254   2.779  0.00  0.00    -0.082 HD
BRANCH  22  29
ATOM     29  C   UNL     1       3.830  -0.791  -0.153  0.00  0.00    +0.038 C 
BRANCH  29  33
ATOM     30  C   UNL     1       0.078   1.251  -0.176  0.00  0.00    +0.000 A 
ATOM     31  C   UNL     1       1.257   1.972  -0.163  0.00  0.00    +0.000 A 
ATOM     32  C   UNL     1       2.471   1.311  -0.155  0.00  0.00    +0.003 A 
ATOM     33  C   UNL     1       2.506  -0.070  -0.160  0.00  0.00    -0.047 A 
ATOM     34  C   UNL     1       1.327  -0.792  -0.172  0.00  0.00    +0.003 A 
ATOM     35  C   UNL     1       0.113  -0.131  -0.181  0.00  0.00    +0.000 A 
ENDBRANCH  29  33
ENDBRANCH  22  29
ENDBRANCH  21  25
ENDBRANCH   1  21
TORSDOF 6
