REMARK  Name = ZINC42955375
REMARK  9 active torsions:
REMARK  status: ('A' for Active; 'I' for Inactive)
REMARK    1  A    between atoms: C_1  and  C_2
REMARK    2  A    between atoms: C_2  and  C_4
REMARK    3  A    between atoms: C_2  and  N_22
REMARK    4  A    between atoms: C_4  and  C_6
REMARK    5  A    between atoms: C_4  and  N_13
REMARK    6  A    between atoms: N_13  and  C_14
REMARK    7  A    between atoms: N_13  and  C_17
REMARK    8  A    between atoms: C_14  and  C_15
REMARK    9  A    between atoms: C_15  and  O_16
REMARK                            x       y       z     vdW  Elec       q    Type
REMARK                         _______ _______ _______ _____ _____    ______ ____
ROOT
ATOM      1  C   UNL     1       0.658  -0.596  -1.285  0.00  0.00    -0.052 C 
ENDROOT
BRANCH   1   2
ATOM      2  C   UNL     1      -0.287  -0.393  -2.441  0.00  0.00    -0.062 A 
ATOM      3  C   UNL     1       0.136  -0.646  -3.733  0.00  0.00    +0.003 A 
ATOM      4  C   UNL     1      -0.732  -0.461  -4.793  0.00  0.00    +0.015 A 
ATOM      5  C   UNL     1      -2.023  -0.022  -4.561  0.00  0.00    +0.018 A 
ATOM      6  C   UNL     1      -2.446   0.231  -3.269  0.00  0.00    +0.015 A 
ATOM      7  C   UNL     1      -1.579   0.040  -2.209  0.00  0.00    +0.003 A 
ATOM      8 BR   UNL     1      -3.210   0.233  -6.011  0.00  0.00    -0.050 Br
ENDBRANCH   1   2
BRANCH   1  10
ATOM      9  C   UNL     1       1.794  -2.314   0.129  0.00  0.00    -0.016 C 
ATOM     10  C   UNL     1       0.983  -2.085  -1.147  0.00  0.00    -0.088 C 
BRANCH  10  11
ATOM     11  N   UNL     1       1.765  -2.526  -2.310  0.00  0.00    +0.379 N 
ATOM     12  H   UNL     1       1.833  -3.532  -2.308  0.00  0.00    -0.090 HD
ATOM     13  H   UNL     1       1.308  -2.221  -3.157  0.00  0.00    -0.090 HD
ATOM     14  H   UNL     1       2.690  -2.126  -2.265  0.00  0.00    -0.090 HD
ENDBRANCH  10  11
ENDBRANCH   1  10
BRANCH   1  15
ATOM     15  N   UNL     1       1.897   0.155  -1.529  0.00  0.00    +0.387 N 
ATOM     16  H   UNL     1       2.622  -0.184  -0.914  0.00  0.00    -0.081 HD
BRANCH  15  17
ATOM     17  C   UNL     1       1.664   1.582  -1.271  0.00  0.00    -0.068 C 
ATOM     18  C   UNL     1       2.993   2.360  -1.364  0.00  0.00    -0.015 C 
ATOM     19  C   UNL     1       2.883   3.433  -0.253  0.00  0.00    -0.002 C 
ATOM     20  C   UNL     1       2.166   2.671   0.889  0.00  0.00    -0.002 C 
ATOM     21  C   UNL     1       1.138   1.779   0.162  0.00  0.00    -0.015 C 
ENDBRANCH  15  17
BRANCH  15  22
ATOM     22  C   UNL     1       2.314  -0.029  -2.926  0.00  0.00    -0.049 C 
BRANCH  22  23
ATOM     23  C   UNL     1       3.723   0.538  -3.116  0.00  0.00    +0.137 C 
BRANCH  23  24
ATOM     24  O   UNL     1       4.653  -0.230  -2.349  0.00  0.00    -0.397 OA
ATOM     25  H   UNL     1       5.568   0.074  -2.422  0.00  0.00    +0.209 HD
ENDBRANCH  23  24
ENDBRANCH  22  23
ENDBRANCH  15  22
ENDBRANCH   1  15
TORSDOF 8
