REMARK  Name = ZINC02291509
REMARK  11 active torsions:
REMARK  status: ('A' for Active; 'I' for Inactive)
REMARK    1  A    between atoms: C_1  and  C_2
REMARK    2  A    between atoms: C_2  and  O_3
REMARK    3  A    between atoms: O_3  and  C_4
REMARK    4  A    between atoms: C_7  and  S_26
REMARK    5  A    between atoms: C_9  and  C_10
REMARK    6  A    between atoms: C_18  and  C_22
REMARK    7  A    between atoms: N_20  and  C_21
REMARK    8  A    between atoms: C_22  and  C_23
REMARK    9  A    between atoms: C_22  and  C_24
REMARK   10  A    between atoms: C_22  and  C_25
REMARK   11  A    between atoms: S_26  and  N_29
REMARK                            x       y       z     vdW  Elec       q    Type
REMARK                         _______ _______ _______ _____ _____    ______ ____
ROOT
ATOM      1  C   UNL     1      -1.498  -1.847   0.006  0.00  0.00    +0.131 A 
ATOM      2  C   UNL     1      -0.389  -2.679  -0.003  0.00  0.00    +0.048 A 
ATOM      3  C   UNL     1      -0.553  -4.050  -0.009  0.00  0.00    +0.032 A 
ATOM      4  C   UNL     1      -1.823  -4.604  -0.006  0.00  0.00    +0.106 A 
ATOM      5  C   UNL     1      -2.936  -3.791   0.003  0.00  0.00    +0.043 A 
ATOM      6  C   UNL     1      -2.784  -2.403   0.016  0.00  0.00    +0.061 A 
ENDROOT
BRANCH   6   7
ATOM      7  C   UNL     1      -3.972  -1.526   0.032  0.00  0.00    +0.145 A 
ATOM      8  N   UNL     1      -5.216  -2.095   0.047  0.00  0.00    -0.305 N 
ATOM      9  H   UNL     1      -5.306  -3.061   0.046  0.00  0.00    +0.170 HD
ATOM     10  C   UNL     1      -6.322  -1.317   0.063  0.00  0.00    +0.278 A 
ATOM     11  O   UNL     1      -7.434  -1.815   0.077  0.00  0.00    -0.265 OA
ATOM     12  C   UNL     1      -6.156   0.087   0.064  0.00  0.00    +0.151 A 
ATOM     13  C   UNL     1      -4.858   0.613   0.048  0.00  0.00    +0.120 A 
ATOM     14  N   UNL     1      -3.803  -0.226   0.038  0.00  0.00    -0.225 NA
ATOM     15  C   UNL     1      -4.983   2.016   0.053  0.00  0.00    +0.094 A 
ATOM     16  N   UNL     1      -6.252   2.323   0.070  0.00  0.00    -0.173 NA
ATOM     17  N   UNL     1      -7.016   1.149   0.077  0.00  0.00    -0.260 N 
ATOM     18  C   UNL     1      -8.479   1.073   0.096  0.00  0.00    +0.173 C 
BRANCH  15  19
ATOM     19  C   UNL     1      -3.842   3.000   0.041  0.00  0.00    +0.008 C 
ATOM     20  C   UNL     1      -3.001   2.789  -1.220  0.00  0.00    +0.017 C 
ATOM     21  C   UNL     1      -4.397   4.426   0.050  0.00  0.00    +0.017 C 
ATOM     22  C   UNL     1      -2.969   2.784   1.278  0.00  0.00    +0.017 C 
ENDBRANCH  15  19
ENDBRANCH   6   7
BRANCH   4  23
ATOM     23  S   UNL     1      -2.016  -6.355  -0.014  0.00  0.00    +0.061 S 
ATOM     24  O   UNL     1      -3.301  -6.620  -0.560  0.00  0.00    -0.153 OA
ATOM     25  O   UNL     1      -0.825  -6.893  -0.574  0.00  0.00    -0.153 OA
BRANCH  23  26
ATOM     26  N   UNL     1      -2.062  -6.850   1.566  0.00  0.00    -0.177 NA
ATOM     27  C   UNL     1      -0.825  -7.207   2.275  0.00  0.00    +0.109 C 
ATOM     28  C   UNL     1      -0.748  -6.394   3.571  0.00  0.00    +0.017 C 
ATOM     29  C   UNL     1      -2.026  -6.617   4.384  0.00  0.00    +0.003 C 
ATOM     30  C   UNL     1      -3.235  -6.132   3.581  0.00  0.00    +0.017 C 
ATOM     31  C   UNL     1      -3.339  -6.935   2.287  0.00  0.00    +0.109 C 
ENDBRANCH  23  26
ENDBRANCH   4  23
BRANCH   1  32
ATOM     32  O   UNL     1      -1.339  -0.499   0.012  0.00  0.00    -0.492 OA
BRANCH  32  34
ATOM     33  C   UNL     1      -0.019   1.526   0.010  0.00  0.00    +0.048 C 
ATOM     34  C   UNL     1       0.002  -0.004   0.002  0.00  0.00    +0.226 C 
ENDBRANCH  32  34
ENDBRANCH   1  32
TORSDOF 6
