REMARK  Name = ZINC15774694
REMARK  5 active torsions:
REMARK  status: ('A' for Active; 'I' for Inactive)
REMARK    1  A    between atoms: C_4  and  N_7
REMARK    2  A    between atoms: C_8  and  C_10
REMARK    3  A    between atoms: C_10  and  N_11
REMARK    4  A    between atoms: N_19  and  N_20
REMARK    5  A    between atoms: N_20  and  C_21
REMARK                            x       y       z     vdW  Elec       q    Type
REMARK                         _______ _______ _______ _____ _____    ______ ____
ROOT
ATOM      1  N   UNL     1       5.171  -4.275   0.279  0.00  0.00    -0.257 N 
ATOM      2  C   UNL     1       5.173  -5.021   1.452  0.00  0.00    +0.047 A 
ATOM      3  C   UNL     1       5.451  -4.672   2.769  0.00  0.00    +0.025 A 
ATOM      4  C   UNL     1       5.381  -5.622   3.767  0.00  0.00    +0.017 A 
ATOM      5  C   UNL     1       5.034  -6.931   3.472  0.00  0.00    +0.019 A 
ATOM      6  C   UNL     1       4.754  -7.295   2.170  0.00  0.00    +0.027 A 
ATOM      7  C   UNL     1       4.822  -6.345   1.158  0.00  0.00    +0.029 A 
ATOM      8  C   UNL     1       4.591  -6.400  -0.304  0.00  0.00    +0.153 C 
ATOM      9  N   UNL     1       4.241  -7.446  -1.020  0.00  0.00    -0.177 NA
ATOM     10  C   UNL     1       4.832  -5.028  -0.781  0.00  0.00    +0.272 C 
ATOM     11  O   UNL     1       4.742  -4.644  -1.933  0.00  0.00    -0.268 OA
ATOM     12 BR   UNL     1       4.944  -8.219   4.854  0.00  0.00    -0.050 Br
ENDROOT
BRANCH   9  13
ATOM     13  N   UNL     1       3.930  -8.553  -0.434  0.00  0.00    -0.237 N 
ATOM     14  H   UNL     1       3.874  -8.591   0.533  0.00  0.00    +0.174 HD
BRANCH  13  15
ATOM     15  C   UNL     1       3.673  -9.695  -1.194  0.00  0.00    +0.048 A 
ATOM     16  C   UNL     1       3.758  -9.644  -2.580  0.00  0.00    +0.025 A 
ATOM     17  C   UNL     1       3.504 -10.776  -3.328  0.00  0.00    +0.002 A 
ATOM     18  C   UNL     1       3.165 -11.961  -2.699  0.00  0.00    +0.000 A 
ATOM     19  C   UNL     1       3.079 -12.015  -1.320  0.00  0.00    +0.002 A 
ATOM     20  C   UNL     1       3.338 -10.888  -0.565  0.00  0.00    +0.025 A 
ENDBRANCH  13  15
ENDBRANCH   9  13
BRANCH   1  21
ATOM     21  C   UNL     1       5.492  -2.847   0.208  0.00  0.00    +0.210 C 
BRANCH  21  23
ATOM     22  N   UNL     1       4.286  -0.693   0.367  0.00  0.00    -0.284 N 
ATOM     23  C   UNL     1       4.233  -2.040   0.395  0.00  0.00    +0.235 C 
ATOM     24  O   UNL     1       3.172  -2.602   0.570  0.00  0.00    -0.274 OA
ATOM     25  H   UNL     1       5.119  -0.245   0.152  0.00  0.00    +0.155 HD
BRANCH  22  29
ATOM     26  C   UNL     1       0.873   1.544   1.208  0.00  0.00    +0.000 A 
ATOM     27  C   UNL     1       1.087   0.341   1.857  0.00  0.00    +0.002 A 
ATOM     28  C   UNL     1       2.218  -0.403   1.581  0.00  0.00    +0.023 A 
ATOM     29  C   UNL     1       3.139   0.058   0.649  0.00  0.00    +0.033 A 
ATOM     30  C   UNL     1       2.921   1.265  -0.001  0.00  0.00    +0.023 A 
ATOM     31  C   UNL     1       1.789   2.005   0.281  0.00  0.00    +0.002 A 
ENDBRANCH  22  29
ENDBRANCH  21  23
ENDBRANCH   1  21
TORSDOF 5
