REMARK  Name = ZINC01444631
REMARK  7 active torsions:
REMARK  status: ('A' for Active; 'I' for Inactive)
REMARK    1  A    between atoms: C_1  and  C_2
REMARK    2  A    between atoms: C_2  and  C_3
REMARK    3  A    between atoms: C_6  and  N_9
REMARK    4  A    between atoms: N_17  and  C_20
REMARK    5  A    between atoms: C_20  and  N_64
REMARK    6  A    between atoms: C_23  and  C_26
REMARK    7  A    between atoms: C_26  and  C_27
REMARK                            x       y       z     vdW  Elec       q    Type
REMARK                         _______ _______ _______ _____ _____    ______ ____
ROOT
ATOM      1  N   UNL     1       2.983   4.884  -0.001  0.00  0.00    -0.242 NA
ATOM      2  C   UNL     1       2.577   3.655  -0.209  0.00  0.00    +0.135 C 
ATOM      3  C   UNL     1       1.247   3.213  -0.682  0.00  0.00    +0.027 A 
ATOM      4  C   UNL     1       0.086   3.896  -1.033  0.00  0.00    +0.012 A 
ATOM      5  C   UNL     1      -1.025   3.190  -1.448  0.00  0.00    +0.001 A 
ATOM      6  C   UNL     1      -0.981   1.807  -1.519  0.00  0.00    +0.002 A 
ATOM      7  C   UNL     1       0.164   1.120  -1.169  0.00  0.00    +0.024 A 
ATOM      8  C   UNL     1       1.294   1.814  -0.749  0.00  0.00    +0.044 A 
ATOM      9  N   UNL     1       2.552   1.373  -0.352  0.00  0.00    -0.282 N 
ATOM     10  C   UNL     1       3.352   2.402  -0.023  0.00  0.00    +0.268 C 
ATOM     11  O   UNL     1       4.503   2.321   0.360  0.00  0.00    -0.268 OA
ENDROOT
BRANCH   1  15
ATOM     12  C   UNL     1       0.306   8.018  -0.270  0.00  0.00    -0.047 A 
ATOM     13  C   UNL     1       0.158   7.070   0.729  0.00  0.00    +0.006 A 
ATOM     14  C   UNL     1       1.047   6.021   0.826  0.00  0.00    +0.028 A 
ATOM     15  C   UNL     1       2.102   5.915  -0.089  0.00  0.00    +0.065 A 
ATOM     16  C   UNL     1       2.247   6.882  -1.093  0.00  0.00    +0.028 A 
ATOM     17  C   UNL     1       1.346   7.921  -1.179  0.00  0.00    +0.006 A 
BRANCH  12  19
ATOM     18  C   UNL     1      -0.167  10.337   0.470  0.00  0.00    +0.009 C 
ATOM     19  C   UNL     1      -0.671   9.161  -0.368  0.00  0.00    +0.032 C 
ENDBRANCH  12  19
ENDBRANCH   1  15
BRANCH   9  20
ATOM     20  C   UNL     1       2.955  -0.035  -0.299  0.00  0.00    +0.039 C 
BRANCH  20  26
ATOM     21  C   UNL     1       2.474  -0.734  -2.566  0.00  0.00    -0.076 C 
ATOM     22  C   UNL     1       3.103  -0.997  -3.937  0.00  0.00    -0.015 C 
ATOM     23  C   UNL     1       4.079  -2.172  -3.827  0.00  0.00    -0.010 C 
ATOM     24  C   UNL     1       5.140  -1.849  -2.772  0.00  0.00    -0.015 C 
ATOM     25  C   UNL     1       4.452  -1.561  -1.436  0.00  0.00    -0.076 C 
ATOM     26  N   UNL     1       3.545  -0.405  -1.602  0.00  0.00    +0.390 N 
ATOM     27  H   UNL     1       4.084   0.392  -1.962  0.00  0.00    -0.080 HD
BRANCH  23  28
ATOM     28  C   UNL     1       4.756  -2.402  -5.180  0.00  0.00    +0.038 C 
BRANCH  28  29
ATOM     29  C   UNL     1       3.727  -2.840  -6.189  0.00  0.00    -0.047 A 
ATOM     30  C   UNL     1       3.458  -4.185  -6.363  0.00  0.00    +0.003 A 
ATOM     31  C   UNL     1       2.511  -4.587  -7.286  0.00  0.00    +0.000 A 
ATOM     32  C   UNL     1       1.839  -3.644  -8.043  0.00  0.00    +0.000 A 
ATOM     33  C   UNL     1       2.112  -2.300  -7.872  0.00  0.00    +0.000 A 
ATOM     34  C   UNL     1       3.056  -1.897  -6.946  0.00  0.00    +0.003 A 
ENDBRANCH  28  29
ENDBRANCH  23  28
ENDBRANCH  20  26
ENDBRANCH   9  20
TORSDOF 6
