REMARK  Name = ZINC63373188
REMARK  7 active torsions:
REMARK  status: ('A' for Active; 'I' for Inactive)
REMARK    1  A    between atoms: C_1  and  C_2
REMARK    2  A    between atoms: C_2  and  C_3
REMARK    3  A    between atoms: C_6  and  C_9
REMARK    4  A    between atoms: N_15  and  C_30
REMARK    5  A    between atoms: C_18  and  C_29
REMARK    6  A    between atoms: C_33  and  S_36
REMARK    7  A    between atoms: S_36  and  C_37
REMARK                            x       y       z     vdW  Elec       q    Type
REMARK                         _______ _______ _______ _____ _____    ______ ____
ROOT
ATOM      1  C   UNL     1      -5.132  -2.034  -0.094  0.00  0.00    +0.065 C 
ATOM      2  C   UNL     1      -6.137  -0.990  -0.621  0.00  0.00    +0.123 C 
ATOM      3  N   UNL     1      -6.918  -1.616  -1.691  0.00  0.00    -0.268 N 
ATOM      4  C   UNL     1      -8.249  -1.755  -1.770  0.00  0.00    +0.317 C 
ATOM      5  O   UNL     1      -9.032  -1.226  -1.007  0.00  0.00    -0.252 OA
ATOM      6  N   UNL     1      -8.616  -2.544  -2.789  0.00  0.00    -0.192 N 
ATOM      7  C   UNL     1      -7.553  -2.933  -3.524  0.00  0.00    +0.253 C 
ATOM      8  O   UNL     1      -7.558  -3.672  -4.486  0.00  0.00    -0.272 OA
ATOM      9  C   UNL     1      -6.355  -2.254  -2.900  0.00  0.00    +0.137 C 
ATOM     10  C   UNL     1      -5.324  -3.285  -2.445  0.00  0.00    +0.139 C 
ATOM     11  C   UNL     1      -5.319  -3.282  -0.921  0.00  0.00    -0.027 C 
ATOM     12  C   UNL     1      -5.521  -4.542  -0.545  0.00  0.00    -0.000 A 
ATOM     13  C   UNL     1      -5.532  -5.176   0.782  0.00  0.00    +0.010 A 
ATOM     14  C   UNL     1      -5.795  -6.509   0.807  0.00  0.00    +0.001 A 
ATOM     15  C   UNL     1      -6.047  -7.265  -0.342  0.00  0.00    +0.002 A 
ATOM     16  C   UNL     1      -6.048  -6.766  -1.604  0.00  0.00    +0.026 A 
ATOM     17  C   UNL     1      -5.775  -5.376  -1.759  0.00  0.00    +0.043 A 
ATOM     18  N   UNL     1      -5.686  -4.643  -2.852  0.00  0.00    -0.375 N 
ATOM     19  C   UNL     1      -5.747  -1.217  -3.846  0.00  0.00    +0.044 C 
ATOM     20  H   UNL     1      -5.834  -4.943  -3.763  0.00  0.00    +0.160 HD
ENDROOT
BRANCH   1  24
ATOM     21  C   UNL     1      -1.144  -0.571  -0.539  0.00  0.00    -0.048 A 
ATOM     22  C   UNL     1      -1.916  -0.822  -1.657  0.00  0.00    +0.004 A 
ATOM     23  C   UNL     1      -3.207  -1.296  -1.513  0.00  0.00    +0.004 A 
ATOM     24  C   UNL     1      -3.725  -1.519  -0.251  0.00  0.00    -0.039 A 
ATOM     25  C   UNL     1      -2.952  -1.268   0.868  0.00  0.00    +0.004 A 
ATOM     26  C   UNL     1      -1.659  -0.798   0.724  0.00  0.00    +0.004 A 
BRANCH  21  28
ATOM     27  C   UNL     1       1.232  -1.234  -0.792  0.00  0.00    +0.009 C 
ATOM     28  C   UNL     1       0.263  -0.054  -0.696  0.00  0.00    +0.032 C 
ENDBRANCH  21  28
ENDBRANCH   1  24
BRANCH   6  29
ATOM     29  C   UNL     1      -9.941  -2.920  -3.058  0.00  0.00    +0.046 A 
ATOM     30  C   UNL     1     -10.981  -2.375  -2.317  0.00  0.00    +0.025 A 
ATOM     31  C   UNL     1     -12.284  -2.744  -2.581  0.00  0.00    +0.016 A 
ATOM     32  C   UNL     1     -12.556  -3.662  -3.588  0.00  0.00    +0.008 A 
ATOM     33  C   UNL     1     -11.515  -4.208  -4.330  0.00  0.00    +0.016 A 
ATOM     34  C   UNL     1     -10.212  -3.833  -4.068  0.00  0.00    +0.025 A 
BRANCH  32  35
ATOM     35  S   UNL     1     -14.220  -4.135  -3.925  0.00  0.00    -0.129 S 
ATOM     36  C   UNL     1     -14.071  -5.323  -5.288  0.00  0.00    +0.090 C 
ENDBRANCH  32  35
ENDBRANCH   6  29
TORSDOF 4
