REMARK  Name = ZINC39481126
REMARK  7 active torsions:
REMARK  status: ('A' for Active; 'I' for Inactive)
REMARK    1  A    between atoms: C_1  and  C_2
REMARK    2  A    between atoms: C_2  and  C_3
REMARK    3  A    between atoms: C_6  and  N_17
REMARK    4  A    between atoms: C_7  and  N_9
REMARK    5  A    between atoms: N_17  and  S_18
REMARK    6  A    between atoms: S_18  and  C_21
REMARK    7  A    between atoms: C_26  and  O_27
REMARK                            x       y       z     vdW  Elec       q    Type
REMARK                         _______ _______ _______ _____ _____    ______ ____
ROOT
ATOM      1  C   UNL     1      -2.147   0.493  -0.226  0.00  0.00    -0.046 A 
ATOM      2  C   UNL     1      -2.571   0.063   1.017  0.00  0.00    +0.005 A 
ATOM      3  C   UNL     1      -3.716  -0.703   1.134  0.00  0.00    +0.026 A 
ATOM      4  C   UNL     1      -4.443  -1.041   0.003  0.00  0.00    +0.069 A 
ATOM      5  C   UNL     1      -4.015  -0.606  -1.252  0.00  0.00    +0.053 A 
ATOM      6  C   UNL     1      -2.868   0.165  -1.359  0.00  0.00    +0.028 A 
ENDROOT
BRANCH   5   7
ATOM      7  N   UNL     1      -4.744  -0.945  -2.398  0.00  0.00    -0.330 N 
ATOM      8  C   UNL     1      -5.822  -0.075  -2.893  0.00  0.00    +0.086 C 
ATOM      9  C   UNL     1      -5.595   0.179  -4.386  0.00  0.00    -0.060 C 
ATOM     10  N   UNL     1      -5.482  -1.106  -5.089  0.00  0.00    +0.400 N 
ATOM     11  C   UNL     1      -4.290  -1.826  -4.625  0.00  0.00    +0.119 C 
ATOM     12  C   UNL     1      -4.449  -2.177  -3.146  0.00  0.00    +0.120 C 
ATOM     13  O   UNL     1      -4.131  -3.025  -5.386  0.00  0.00    -0.250 OA
ATOM     14  H   UNL     1      -6.303  -1.662  -4.904  0.00  0.00    -0.082 HD
ATOM     15  H   UNL     1      -5.408  -0.940  -6.081  0.00  0.00    -0.082 HD
ENDBRANCH   5   7
BRANCH   1  17
ATOM     16  C   UNL     1      -1.261   2.810  -0.234  0.00  0.00    +0.009 C 
ATOM     17  C   UNL     1      -0.897   1.328  -0.346  0.00  0.00    +0.032 C 
ENDBRANCH   1  17
BRANCH   4  18
ATOM     18  N   UNL     1      -5.603  -1.817   0.119  0.00  0.00    -0.214 N 
ATOM     19  H   UNL     1      -5.826  -2.462  -0.570  0.00  0.00    +0.174 HD
BRANCH  18  20
ATOM     20  S   UNL     1      -6.593  -1.633   1.433  0.00  0.00    +0.076 S 
ATOM     21  O   UNL     1      -6.769  -0.235   1.618  0.00  0.00    -0.150 OA
ATOM     22  O   UNL     1      -7.687  -2.521   1.244  0.00  0.00    -0.150 OA
BRANCH  20  23
ATOM     23  C   UNL     1      -5.707  -2.219   2.839  0.00  0.00    +0.150 A 
ATOM     24  C   UNL     1      -5.383  -1.351   3.864  0.00  0.00    +0.032 A 
ATOM     25  C   UNL     1      -4.688  -1.809   4.967  0.00  0.00    +0.002 A 
ATOM     26  C   UNL     1      -4.314  -3.138   5.048  0.00  0.00    +0.004 A 
ATOM     27  C   UNL     1      -4.636  -4.011   4.027  0.00  0.00    +0.047 A 
ATOM     28  C   UNL     1      -5.338  -3.554   2.921  0.00  0.00    +0.143 A 
BRANCH  28  29
ATOM     29  O   UNL     1      -5.661  -4.412   1.917  0.00  0.00    -0.505 OA
ATOM     30  H   UNL     1      -4.984  -4.486   1.231  0.00  0.00    +0.292 HD
ENDBRANCH  28  29
ENDBRANCH  20  23
ENDBRANCH  18  20
ENDBRANCH   4  18
TORSDOF 6
