REMARK  Name = ZINC20348671
REMARK  10 active torsions:
REMARK  status: ('A' for Active; 'I' for Inactive)
REMARK    1  A    between atoms: C_1  and  C_2
REMARK    2  A    between atoms: C_7  and  N_8
REMARK    3  A    between atoms: C_9  and  C_11
REMARK    4  A    between atoms: C_11  and  S_12
REMARK    5  A    between atoms: S_12  and  C_13
REMARK    6  A    between atoms: C_14  and  C_37
REMARK    7  A    between atoms: C_15  and  C_30
REMARK    8  A    between atoms: C_17  and  C_21
REMARK    9  A    between atoms: C_18  and  C_20
REMARK   10  A    between atoms: N_23  and  C_24
REMARK                            x       y       z     vdW  Elec       q    Type
REMARK                         _______ _______ _______ _____ _____    ______ ____
ROOT
ATOM      1  C   UNL     1       6.984  -0.459  -0.261  0.00  0.00    +0.080 C 
ATOM      2  C   UNL     1       5.834  -1.183  -0.327  0.00  0.00    +0.069 C 
ATOM      3  C   UNL     1       4.511  -0.580   0.051  0.00  0.00    +0.101 C 
ATOM      4  C   UNL     1       4.601   0.918   0.100  0.00  0.00    +0.044 C 
ATOM      5  C   UNL     1       5.782   1.554   0.144  0.00  0.00    +0.014 C 
ATOM      6  N   UNL     1       6.959   0.856   0.148  0.00  0.00    -0.312 N 
ATOM      7  C   UNL     1       5.813   3.060   0.195  0.00  0.00    +0.061 C 
ATOM      8  H   UNL     1       7.886   1.347   0.480  0.00  0.00    +0.152 HD
ENDROOT
BRANCH   3   9
ATOM      9  C   UNL     1       4.100  -1.096   1.406  0.00  0.00    +0.000 A 
ATOM     10  C   UNL     1       4.892  -0.845   2.511  0.00  0.00    +0.007 A 
ATOM     11  C   UNL     1       4.513  -1.314   3.755  0.00  0.00    +0.000 A 
ATOM     12  C   UNL     1       3.346  -2.043   3.893  0.00  0.00    +0.003 A 
ATOM     13  C   UNL     1       2.556  -2.300   2.790  0.00  0.00    +0.038 A 
ATOM     14  C   UNL     1       2.932  -1.826   1.544  0.00  0.00    +0.127 A 
ATOM     15  F   UNL     1       2.160  -2.076   0.464  0.00  0.00    -0.205 F 
ENDBRANCH   3   9
BRANCH   4  16
ATOM     16  C   UNL     1       3.408   1.681   0.093  0.00  0.00    +0.247 C 
ATOM     17  O   UNL     1       2.727   1.738  -0.914  0.00  0.00    -0.270 OA
ATOM     18  N   UNL     1       3.026   2.344   1.203  0.00  0.00    -0.282 N 
ATOM     19  H   UNL     1       3.679   2.356   2.088  0.00  0.00    +0.155 HD
BRANCH  18  20
ATOM     20  C   UNL     1       1.800   3.016   1.229  0.00  0.00    +0.034 A 
ATOM     21  C   UNL     1       1.322   3.636   0.081  0.00  0.00    +0.023 A 
ATOM     22  C   UNL     1       0.113   4.303   0.112  0.00  0.00    +0.002 A 
ATOM     23  C   UNL     1      -0.627   4.345   1.279  0.00  0.00    +0.000 A 
ATOM     24  C   UNL     1      -0.154   3.728   2.423  0.00  0.00    +0.002 A 
ATOM     25  C   UNL     1       1.057   3.064   2.401  0.00  0.00    +0.023 A 
ENDBRANCH  18  20
ENDBRANCH   4  16
BRANCH   2  26
ATOM     26  C   UNL     1       5.886  -2.545  -0.764  0.00  0.00    +0.098 C 
ATOM     27  N   UNL     1       5.928  -3.626  -1.111  0.00  0.00    -0.191 NA
ENDBRANCH   2  26
BRANCH   1  28
ATOM     28  S   UNL     1       8.516  -1.208  -0.703  0.00  0.00    -0.100 S 
BRANCH  28  29
ATOM     29  C   UNL     1       9.639   0.185  -0.427  0.00  0.00    +0.171 C 
BRANCH  29  31
ATOM     30  N   UNL     1      12.061   0.644  -0.618  0.00  0.00    -0.285 N 
ATOM     31  C   UNL     1      11.049  -0.235  -0.751  0.00  0.00    +0.227 C 
ATOM     32  O   UNL     1      11.273  -1.365  -1.131  0.00  0.00    -0.275 OA
ATOM     33  H   UNL     1      11.849   1.693  -0.364  0.00  0.00    +0.155 HD
BRANCH  30  40
ATOM     34  C   UNL     1      13.997   2.588  -1.374  0.00  0.00    +0.045 C 
ATOM     35  C   UNL     1      14.359   1.139  -1.173  0.00  0.00    -0.029 A 
ATOM     36  C   UNL     1      15.663   0.721  -1.356  0.00  0.00    +0.005 A 
ATOM     37  C   UNL     1      15.996  -0.608  -1.171  0.00  0.00    +0.000 A 
ATOM     38  C   UNL     1      15.026  -1.523  -0.803  0.00  0.00    +0.002 A 
ATOM     39  C   UNL     1      13.722  -1.110  -0.614  0.00  0.00    +0.023 A 
ATOM     40  C   UNL     1      13.383   0.224  -0.804  0.00  0.00    +0.036 A 
ENDBRANCH  30  40
ENDBRANCH  29  31
ENDBRANCH  28  29
ENDBRANCH   1  28
TORSDOF 8
