REMARK  Name = ZINC03840837
REMARK  12 active torsions:
REMARK  status: ('A' for Active; 'I' for Inactive)
REMARK    1  A    between atoms: C_1  and  C_2
REMARK    2  A    between atoms: C_5  and  S_8
REMARK    3  A    between atoms: S_8  and  N_11
REMARK    4  A    between atoms: C_18  and  C_41
REMARK    5  A    between atoms: C_21  and  C_31
REMARK    6  A    between atoms: C_23  and  O_30
REMARK    7  A    between atoms: C_27  and  C_29
REMARK    8  A    between atoms: C_31  and  C_33
REMARK    9  A    between atoms: C_31  and  C_34
REMARK   10  A    between atoms: N_36  and  C_37
REMARK   11  A    between atoms: N_36  and  C_38
REMARK   12  A    between atoms: C_38  and  C_39
REMARK                            x       y       z     vdW  Elec       q    Type
REMARK                         _______ _______ _______ _____ _____    ______ ____
ROOT
ATOM      1  N   UNL     1      -5.642  -6.612  -7.661  0.00  0.00    -0.194 N 
ATOM      2  C   UNL     1      -4.682  -5.642  -7.421  0.00  0.00    +0.178 A 
ATOM      3  N   UNL     1      -4.390  -5.027  -6.293  0.00  0.00    -0.228 NA
ATOM      4  C   UNL     1      -3.431  -4.105  -6.216  0.00  0.00    +0.057 A 
ATOM      5  C   UNL     1      -2.769  -3.837  -7.370  0.00  0.00    +0.015 A 
ATOM      6  S   UNL     1      -3.554  -4.922  -8.531  0.00  0.00    -0.056 S 
ATOM      7  C   UNL     1      -1.660  -2.867  -7.578  0.00  0.00    +0.051 C 
ATOM      8  C   UNL     1      -1.586  -1.920  -6.364  0.00  0.00    -0.022 C 
ATOM      9  C   UNL     1      -0.239  -1.194  -6.439  0.00  0.00    +0.008 C 
ATOM     10  C   UNL     1      -0.050  -0.297  -5.217  0.00  0.00    +0.007 C 
ATOM     11  C   UNL     1      -0.072  -1.169  -3.958  0.00  0.00    +0.029 C 
ATOM     12  C   UNL     1      -1.431  -1.859  -3.857  0.00  0.00    +0.123 C 
ATOM     13  C   UNL     1      -1.668  -2.750  -5.081  0.00  0.00    +0.033 C 
ATOM     14  C   UNL     1      -3.067  -3.366  -4.938  0.00  0.00    +0.042 C 
ATOM     15  C   UNL     1      -3.074  -4.346  -3.763  0.00  0.00    +0.014 C 
ATOM     16  C   UNL     1      -2.730  -0.906  -6.420  0.00  0.00    +0.012 C 
ATOM     17  H   UNL     1      -6.208  -6.923  -6.938  0.00  0.00    +0.176 HD
ENDROOT
BRANCH   1  18
ATOM     18  S   UNL     1      -5.821  -7.242  -9.182  0.00  0.00    +0.074 S 
ATOM     19  O   UNL     1      -6.850  -8.218  -9.099  0.00  0.00    -0.150 OA
ATOM     20  O   UNL     1      -5.888  -6.137 -10.073  0.00  0.00    -0.150 OA
BRANCH  18  25
ATOM     21  C   UNL     1      -0.733 -10.207 -10.496  0.00  0.00    +0.044 C 
ATOM     22  C   UNL     1      -2.004  -9.467 -10.168  0.00  0.00    -0.050 A 
ATOM     23  C   UNL     1      -3.049 -10.127  -9.550  0.00  0.00    +0.005 A 
ATOM     24  C   UNL     1      -4.215  -9.448  -9.248  0.00  0.00    +0.029 A 
ATOM     25  C   UNL     1      -4.335  -8.108  -9.566  0.00  0.00    +0.109 A 
ATOM     26  C   UNL     1      -3.292  -7.449 -10.190  0.00  0.00    +0.029 A 
ATOM     27  C   UNL     1      -2.125  -8.127 -10.486  0.00  0.00    +0.005 A 
ENDBRANCH  18  25
ENDBRANCH   1  18
BRANCH  12  28
ATOM     28  O   UNL     1      -1.469  -2.658  -2.673  0.00  0.00    -0.391 OA
ATOM     29  H   UNL     1      -1.294  -2.164  -1.860  0.00  0.00    +0.210 HD
ENDBRANCH  12  28
BRANCH  11  30
ATOM     30  C   UNL     1       0.151  -0.294  -2.723  0.00  0.00    +0.078 C 
ATOM     31  C   UNL     1      -0.876   0.839  -2.709  0.00  0.00    +0.017 C 
BRANCH  30  32
ATOM     32  C   UNL     1       1.541   0.289  -2.765  0.00  0.00    +0.219 C 
ATOM     33  O   UNL     1       2.223   0.160  -3.760  0.00  0.00    -0.275 OA
ATOM     34  N   UNL     1       2.026   0.953  -1.697  0.00  0.00    -0.301 N 
ATOM     35  C   UNL     1       1.202   1.109  -0.496  0.00  0.00    +0.132 C 
BRANCH  34  36
ATOM     36  C   UNL     1       3.376   1.519  -1.738  0.00  0.00    +0.134 C 
BRANCH  36  37
ATOM     37  C   UNL     1       4.364   0.498  -1.235  0.00  0.00    -0.016 C 
ATOM     38  C   UNL     1       5.388   0.156  -1.977  0.00  0.00    +0.005 C 
ENDBRANCH  36  37
ENDBRANCH  34  36
ENDBRANCH  30  32
ENDBRANCH  11  30
TORSDOF 7
