REMARK  Name = ZINC38545956
REMARK  7 active torsions:
REMARK  status: ('A' for Active; 'I' for Inactive)
REMARK    1  A    between atoms: C_1  and  O_2
REMARK    2  A    between atoms: O_2  and  C_3
REMARK    3  A    between atoms: C_7  and  C_9
REMARK    4  A    between atoms: C_9  and  C_11
REMARK    5  A    between atoms: C_9  and  N_28
REMARK    6  A    between atoms: C_15  and  N_16
REMARK    7  A    between atoms: C_17  and  C_19
REMARK                            x       y       z     vdW  Elec       q    Type
REMARK                         _______ _______ _______ _____ _____    ______ ____
ROOT
ATOM      1  C   UNL     1       2.335  -4.779  -1.788  0.00  0.00    -0.025 A 
ATOM      2  C   UNL     1       2.474  -5.281  -0.493  0.00  0.00    -0.033 A 
ATOM      3  C   UNL     1       3.706  -5.742  -0.147  0.00  0.00    -0.005 A 
ATOM      4  S   UNL     1       4.681  -5.487  -1.606  0.00  0.00    -0.078 S 
ATOM      5  C   UNL     1       3.403  -4.775  -2.630  0.00  0.00    +0.074 A 
ATOM      6  C   UNL     1       4.125  -6.324   1.163  0.00  0.00    +0.043 C 
ATOM      7  C   UNL     1       3.046  -5.995   2.206  0.00  0.00    +0.005 C 
ATOM      8  C   UNL     1       1.674  -6.326   1.613  0.00  0.00    +0.005 C 
ATOM      9  C   UNL     1       1.325  -5.327   0.510  0.00  0.00    +0.036 C 
ENDROOT
BRANCH   5  10
ATOM     10  N   UNL     1       3.480  -4.329  -3.951  0.00  0.00    -0.273 N 
ATOM     11  C   UNL     1       4.647  -4.403  -4.621  0.00  0.00    +0.284 C 
ATOM     12  O   UNL     1       5.634  -4.859  -4.074  0.00  0.00    -0.266 OA
ATOM     13  H   UNL     1       2.693  -3.966  -4.387  0.00  0.00    +0.156 HD
BRANCH  11  14
ATOM     14  C   UNL     1       4.728  -3.935  -6.008  0.00  0.00    +0.189 A 
ATOM     15  C   UNL     1       5.841  -3.958  -6.799  0.00  0.00    +0.054 A 
ATOM     16  C   UNL     1       5.466  -3.419  -8.039  0.00  0.00    +0.042 A 
ATOM     17  C   UNL     1       4.157  -3.094  -7.952  0.00  0.00    +0.196 A 
ATOM     18  O   UNL     1       3.715  -3.412  -6.728  0.00  0.00    -0.458 OA
ENDBRANCH  11  14
ENDBRANCH   5  10
BRANCH   1  19
ATOM     19  C   UNL     1       1.004  -4.248  -2.253  0.00  0.00    -0.004 C 
BRANCH  19  20
ATOM     20  N   UNL     1       0.661  -4.853  -3.547  0.00  0.00    +0.387 N 
ATOM     21  C   UNL     1      -0.697  -4.446  -3.931  0.00  0.00    -0.078 C 
ATOM     22  C   UNL     1      -1.029  -5.007  -5.315  0.00  0.00    -0.019 C 
ATOM     23  C   UNL     1      -0.944  -6.536  -5.274  0.00  0.00    -0.004 C 
ATOM     24  C   UNL     1       0.453  -6.947  -4.802  0.00  0.00    -0.019 C 
ATOM     25  C   UNL     1       0.731  -6.314  -3.436  0.00  0.00    -0.078 C 
ATOM     26  H   UNL     1       1.315  -4.538  -4.248  0.00  0.00    -0.080 HD
ENDBRANCH  19  20
BRANCH  19  31
ATOM     27  C   UNL     1       1.042  -0.559  -1.434  0.00  0.00    +0.120 A 
ATOM     28  C   UNL     1       1.236  -0.001  -2.689  0.00  0.00    +0.045 A 
ATOM     29  C   UNL     1       1.353  -0.818  -3.796  0.00  0.00    +0.004 A 
ATOM     30  C   UNL     1       1.278  -2.192  -3.654  0.00  0.00    +0.002 A 
ATOM     31  C   UNL     1       1.085  -2.750  -2.405  0.00  0.00    -0.053 A 
ATOM     32  C   UNL     1       0.973  -1.937  -1.293  0.00  0.00    +0.048 A 
BRANCH  27  34
ATOM     33  C   UNL     1       1.008   1.653  -0.563  0.00  0.00    +0.277 C 
ATOM     34  O   UNL     1       0.927   0.243  -0.343  0.00  0.00    -0.495 OA
ENDBRANCH  27  34
ENDBRANCH  19  31
ENDBRANCH   1  19
TORSDOF 6
