REMARK  Name = ZINC59248118
REMARK  6 active torsions:
REMARK  status: ('A' for Active; 'I' for Inactive)
REMARK    1  A    between atoms: C_1  and  C_2
REMARK    2  A    between atoms: C_5  and  N_29
REMARK    3  A    between atoms: C_7  and  O_8
REMARK    4  A    between atoms: O_8  and  C_9
REMARK    5  A    between atoms: C_9  and  C_10
REMARK    6  A    between atoms: C_23  and  C_25
REMARK                            x       y       z     vdW  Elec       q    Type
REMARK                         _______ _______ _______ _____ _____    ______ ____
ROOT
ATOM      1  C   UNL     1       0.045   0.090   4.775  0.00  0.00    +0.258 C 
ATOM      2  O   UNL     1       0.027   1.294   4.625  0.00  0.00    -0.271 OA
ATOM      3  N   UNL     1       0.064  -0.433   6.017  0.00  0.00    -0.255 N 
ATOM      4  C   UNL     1       0.091  -1.822   6.205  0.00  0.00    +0.058 A 
ATOM      5  C   UNL     1       1.235  -2.551   5.927  0.00  0.00    +0.025 A 
ATOM      6  C   UNL     1       1.250  -3.917   6.141  0.00  0.00    +0.002 A 
ATOM      7  C   UNL     1       0.128  -4.558   6.633  0.00  0.00    +0.002 A 
ATOM      8  C   UNL     1      -1.021  -3.839   6.905  0.00  0.00    +0.025 A 
ATOM      9  C   UNL     1      -1.048  -2.472   6.683  0.00  0.00    +0.055 A 
ATOM     10  N   UNL     1      -2.216  -1.732   6.898  0.00  0.00    -0.284 N 
ATOM     11  C   UNL     1      -2.178  -0.579   7.600  0.00  0.00    +0.219 C 
ATOM     12  O   UNL     1      -3.181   0.094   7.708  0.00  0.00    -0.275 OA
ATOM     13  C   UNL     1      -0.898  -0.123   8.249  0.00  0.00    +0.128 C 
ATOM     14  C   UNL     1       0.063   0.438   7.193  0.00  0.00    +0.194 C 
ATOM     15  H   UNL     1      -3.060  -2.050   6.541  0.00  0.00    +0.155 HD
ENDROOT
BRANCH  14  16
ATOM     16  C   UNL     1       1.477   0.512   7.773  0.00  0.00    +0.409 C 
ATOM     17  F   UNL     1       2.349   1.029   6.810  0.00  0.00    -0.169 F 
ATOM     18  F   UNL     1       1.477   1.344   8.897  0.00  0.00    -0.169 F 
ATOM     19  F   UNL     1       1.897  -0.771   8.142  0.00  0.00    -0.169 F 
ENDBRANCH  14  16
BRANCH   1  20
ATOM     20  C   UNL     1       0.047  -0.820   3.574  0.00  0.00    +0.325 C 
BRANCH  20  21
ATOM     21  O   UNL     1       0.025  -0.033   2.381  0.00  0.00    -0.482 OA
BRANCH  21  28
ATOM     22  C   UNL     1      -0.018   1.503   0.010  0.00  0.00    +0.047 C 
ATOM     23  C   UNL     1       0.002  -0.004   0.002  0.00  0.00    -0.009 A 
ATOM     24  C   UNL     1       0.006  -0.689  -1.198  0.00  0.00    +0.009 A 
ATOM     25  C   UNL     1       0.025  -2.071  -1.206  0.00  0.00    +0.033 A 
ATOM     26  C   UNL     1       0.040  -2.772  -0.014  0.00  0.00    +0.130 A 
ATOM     27  C   UNL     1       0.036  -2.092   1.188  0.00  0.00    +0.078 A 
ATOM     28  C   UNL     1       0.023  -0.705   1.199  0.00  0.00    +0.126 A 
BRANCH  26  29
ATOM     29  N   UNL     1       0.059  -4.252  -0.027  0.00  0.00    +0.057 N 
ATOM     30  O   UNL     1       0.062  -4.848  -1.079  0.00  0.00    -0.126 OA
ATOM     31  O   UNL     1       0.072  -4.865   1.015  0.00  0.00    -0.126 OA
ENDBRANCH  26  29
ENDBRANCH  21  28
ENDBRANCH  20  21
ENDBRANCH   1  20
TORSDOF 5
