REMARK  Name = ZINC19793071
REMARK  7 active torsions:
REMARK  status: ('A' for Active; 'I' for Inactive)
REMARK    1  A    between atoms: C_4  and  C_7
REMARK    2  A    between atoms: C_7  and  N_8
REMARK    3  A    between atoms: N_11  and  C_14
REMARK    4  A    between atoms: C_14  and  C_15
REMARK    5  A    between atoms: C_16  and  O_36
REMARK    6  A    between atoms: C_22  and  C_32
REMARK    7  A    between atoms: C_23  and  C_26
REMARK                            x       y       z     vdW  Elec       q    Type
REMARK                         _______ _______ _______ _____ _____    ______ ____
ROOT
ATOM      1  C   UNL     1      -0.074   1.899   1.138  0.00  0.00    +0.051 A 
ATOM      2  C   UNL     1       1.061   2.693   1.133  0.00  0.00    +0.125 A 
ATOM      3  C   UNL     1       1.028   3.975   0.589  0.00  0.00    +0.046 A 
ATOM      4  C   UNL     1      -0.128   4.466   0.052  0.00  0.00    +0.019 A 
ATOM      5  C   UNL     1      -1.280   3.679   0.049  0.00  0.00    +0.065 A 
ATOM      6  C   UNL     1      -1.256   2.381   0.591  0.00  0.00    +0.147 A 
ATOM      7  O   UNL     1      -2.371   1.624   0.593  0.00  0.00    -0.449 OA
ATOM      8  C   UNL     1      -3.536   2.035   0.087  0.00  0.00    +0.219 A 
ATOM      9  C   UNL     1      -3.699   3.262  -0.472  0.00  0.00    +0.076 A 
ATOM     10  C   UNL     1      -2.545   4.176  -0.521  0.00  0.00    +0.201 A 
ATOM     11  O   UNL     1      -2.632   5.289  -1.010  0.00  0.00    -0.286 OA
ENDROOT
BRANCH   9  12
ATOM     12  C   UNL     1      -5.014   3.674  -1.021  0.00  0.00    -0.011 A 
ATOM     13  C   UNL     1      -5.497   3.090  -2.191  0.00  0.00    +0.009 A 
ATOM     14  C   UNL     1      -6.723   3.473  -2.695  0.00  0.00    +0.001 A 
ATOM     15  C   UNL     1      -7.467   4.443  -2.047  0.00  0.00    +0.000 A 
ATOM     16  C   UNL     1      -6.990   5.030  -0.889  0.00  0.00    +0.001 A 
ATOM     17  C   UNL     1      -5.768   4.651  -0.373  0.00  0.00    +0.009 A 
ENDBRANCH   9  12
BRANCH   8  18
ATOM     18  C   UNL     1      -4.717   1.100   0.138  0.00  0.00    +0.451 C 
ATOM     19  F   UNL     1      -5.045   0.692  -1.159  0.00  0.00    -0.163 F 
ATOM     20  F   UNL     1      -4.393  -0.020   0.912  0.00  0.00    -0.163 F 
ATOM     21  F   UNL     1      -5.810   1.760   0.710  0.00  0.00    -0.163 F 
ENDBRANCH   8  18
BRANCH   2  22
ATOM     22  O   UNL     1       2.216   2.217   1.664  0.00  0.00    -0.506 OA
ATOM     23  H   UNL     1       3.121   2.844   1.663  0.00  0.00    +0.292 HD
ENDBRANCH   2  22
BRANCH   1  24
ATOM     24  C   UNL     1      -0.025   0.514   1.729  0.00  0.00    +0.126 C 
BRANCH  24  28
ATOM     25  N   UNL     1       0.040   0.081   5.931  0.00  0.00    +0.384 N 
ATOM     26  C   UNL     1      -0.987  -0.653   5.179  0.00  0.00    -0.063 C 
ATOM     27  C   UNL     1      -0.558  -0.767   3.714  0.00  0.00    +0.066 C 
ATOM     28  N   UNL     1      -0.364   0.579   3.157  0.00  0.00    -0.301 NA
ATOM     29  C   UNL     1       0.663   1.313   3.909  0.00  0.00    +0.066 C 
ATOM     30  C   UNL     1       0.234   1.427   5.374  0.00  0.00    -0.063 C 
ATOM     31  H   UNL     1       0.989  -0.467   5.835  0.00  0.00    -0.081 HD
BRANCH  25  32
ATOM     32  C   UNL     1      -0.299   0.146   7.359  0.00  0.00    -0.043 C 
BRANCH  32  36
ATOM     33  C   UNL     1       2.344   2.863   9.329  0.00  0.00    +0.000 A 
ATOM     34  C   UNL     1       1.158   3.322   8.789  0.00  0.00    +0.000 A 
ATOM     35  C   UNL     1       0.302   2.443   8.151  0.00  0.00    +0.002 A 
ATOM     36  C   UNL     1       0.633   1.105   8.054  0.00  0.00    -0.064 A 
ATOM     37  C   UNL     1       1.818   0.644   8.598  0.00  0.00    +0.002 A 
ATOM     38  C   UNL     1       2.675   1.524   9.231  0.00  0.00    +0.000 A 
ENDBRANCH  32  36
ENDBRANCH  25  32
ENDBRANCH  24  28
ENDBRANCH   1  24
TORSDOF 7
