REMARK  Name = ZINC43727091
REMARK  5 active torsions:
REMARK  status: ('A' for Active; 'I' for Inactive)
REMARK    1  A    between atoms: C_1  and  O_2
REMARK    2  A    between atoms: O_2  and  C_3
REMARK    3  A    between atoms: C_8  and  N_9
REMARK    4  A    between atoms: C_10  and  C_12
REMARK    5  A    between atoms: N_31  and  C_34
REMARK                            x       y       z     vdW  Elec       q    Type
REMARK                         _______ _______ _______ _____ _____    ______ ____
ROOT
ATOM      1  C   UNL     1      -0.293  -4.935  -1.062  0.00  0.00    +0.172 C 
ATOM      2  C   UNL     1      -1.812  -5.141  -0.897  0.00  0.00    +0.119 C 
ATOM      3  C   UNL     1      -1.923  -6.558  -0.253  0.00  0.00    +0.115 C 
ATOM      4  C   UNL     1      -0.666  -7.284  -0.726  0.00  0.00    +0.117 C 
ATOM      5  N   UNL     1       0.338  -6.249  -1.069  0.00  0.00    -0.316 N 
ATOM      6  C   UNL     1       1.673  -6.556  -1.297  0.00  0.00    +0.072 C 
ATOM      7  C   UNL     1       2.192  -7.554  -0.553  0.00  0.00    +0.023 C 
ATOM      8  C   UNL     1       1.342  -8.228   0.449  0.00  0.00    -0.019 A 
ATOM      9  C   UNL     1      -0.066  -8.132   0.365  0.00  0.00    -0.019 A 
ATOM     10  C   UNL     1      -0.857  -8.766   1.293  0.00  0.00    +0.006 A 
ATOM     11  C   UNL     1      -0.276  -9.537   2.287  0.00  0.00    +0.000 A 
ATOM     12  C   UNL     1       1.099  -9.671   2.351  0.00  0.00    +0.001 A 
ATOM     13  C   UNL     1       1.922  -8.989   1.465  0.00  0.00    +0.008 A 
ATOM     14  C   UNL     1      -1.855  -6.237   1.225  0.00  0.00    +0.232 C 
ATOM     15  O   UNL     1      -1.563  -7.015   2.108  0.00  0.00    -0.274 OA
ATOM     16  N   UNL     1      -2.171  -4.943   1.390  0.00  0.00    -0.207 N 
ATOM     17  C   UNL     1      -2.291  -4.236   0.227  0.00  0.00    +0.232 C 
ATOM     18  O   UNL     1      -2.705  -3.104   0.098  0.00  0.00    -0.274 OA
ENDROOT
BRANCH  16  19
ATOM     19  C   UNL     1      -2.365  -4.360   2.652  0.00  0.00    +0.079 A 
ATOM     20  C   UNL     1      -1.296  -3.787   3.325  0.00  0.00    +0.027 A 
ATOM     21  C   UNL     1      -1.490  -3.214   4.567  0.00  0.00    +0.002 A 
ATOM     22  C   UNL     1      -2.748  -3.210   5.141  0.00  0.00    +0.003 A 
ATOM     23  C   UNL     1      -3.817  -3.780   4.474  0.00  0.00    +0.040 A 
ATOM     24  C   UNL     1      -3.631  -4.351   3.228  0.00  0.00    +0.145 A 
ATOM     25  F   UNL     1      -4.676  -4.902   2.573  0.00  0.00    -0.204 F 
ENDBRANCH  16  19
BRANCH   1  27
ATOM     26  N   UNL     1       0.097  -2.778   0.084  0.00  0.00    -0.281 N 
ATOM     27  C   UNL     1       0.239  -4.118   0.087  0.00  0.00    +0.239 C 
ATOM     28  O   UNL     1       0.796  -4.667   1.014  0.00  0.00    -0.273 OA
ATOM     29  H   UNL     1      -0.417  -2.346  -0.616  0.00  0.00    +0.155 HD
BRANCH  26  35
ATOM     30  C   UNL     1       0.172  -0.757   1.415  0.00  0.00    +0.141 A 
ATOM     31  C   UNL     1       0.761  -0.003   2.416  0.00  0.00    +0.049 A 
ATOM     32  C   UNL     1       1.867  -0.489   3.090  0.00  0.00    +0.024 A 
ATOM     33  C   UNL     1       2.388  -1.729   2.766  0.00  0.00    +0.043 A 
ATOM     34  C   UNL     1       1.806  -2.488   1.767  0.00  0.00    +0.047 A 
ATOM     35  C   UNL     1       0.693  -2.008   1.092  0.00  0.00    +0.077 A 
ATOM     36 CL   UNL     1       3.776  -2.333   3.615  0.00  0.00    -0.083 Cl
BRANCH  30  38
ATOM     37  C   UNL     1      -1.395   1.010   1.137  0.00  0.00    +0.277 C 
ATOM     38  O   UNL     1      -0.915  -0.280   0.753  0.00  0.00    -0.493 OA
ENDBRANCH  30  38
ENDBRANCH  26  35
ENDBRANCH   1  27
TORSDOF 4
