REMARK  Name = ZINC14053421
REMARK  6 active torsions:
REMARK  status: ('A' for Active; 'I' for Inactive)
REMARK    1  A    between atoms: C_3  and  N_11
REMARK    2  A    between atoms: C_6  and  C_7
REMARK    3  A    between atoms: C_14  and  C_17
REMARK    4  A    between atoms: N_19  and  C_20
REMARK    5  A    between atoms: C_20  and  C_21
REMARK    6  A    between atoms: C_21  and  N_27
REMARK                            x       y       z     vdW  Elec       q    Type
REMARK                         _______ _______ _______ _____ _____    ______ ____
ROOT
ATOM      1  C   UNL     1      -5.202   4.438   8.179  0.00  0.00    +0.216 C 
ATOM      2  O   UNL     1      -5.612   5.571   8.317  0.00  0.00    -0.276 OA
ATOM      3  N   UNL     1      -5.337   3.546   9.181  0.00  0.00    -0.316 N 
ATOM      4  H   UNL     1      -4.965   2.518   9.056  0.00  0.00    +0.149 HD
ENDROOT
BRANCH   1   8
ATOM      5  N   UNL     1      -2.423   4.387   4.960  0.00  0.00    -0.315 N 
ATOM      6  C   UNL     1      -2.423   3.216   5.846  0.00  0.00    +0.107 C 
ATOM      7  C   UNL     1      -3.106   3.574   7.168  0.00  0.00    +0.031 C 
ATOM      8  C   UNL     1      -4.542   4.026   6.889  0.00  0.00    +0.078 C 
ATOM      9  C   UNL     1      -4.516   5.216   5.925  0.00  0.00    +0.031 C 
ATOM     10  C   UNL     1      -3.792   4.810   4.640  0.00  0.00    +0.107 C 
BRANCH   5  13
ATOM     11  C   UNL     1       0.342   3.476   2.738  0.00  0.00    +0.017 A 
ATOM     12  C   UNL     1      -0.370   3.722   3.898  0.00  0.00    +0.044 A 
ATOM     13  C   UNL     1      -1.695   4.136   3.803  0.00  0.00    +0.121 A 
ATOM     14  N   UNL     1      -2.269   4.293   2.620  0.00  0.00    -0.240 NA
ATOM     15  C   UNL     1      -1.612   4.071   1.497  0.00  0.00    +0.125 A 
ATOM     16  C   UNL     1      -0.296   3.653   1.518  0.00  0.00    +0.073 A 
BRANCH  16  17
ATOM     17  C   UNL     1       0.441   3.396   0.228  0.00  0.00    +0.419 C 
ATOM     18  F   UNL     1       0.274   2.059  -0.146  0.00  0.00    -0.166 F 
ATOM     19  F   UNL     1       1.802   3.664   0.409  0.00  0.00    -0.166 F 
ATOM     20  F   UNL     1      -0.070   4.228  -0.774  0.00  0.00    -0.166 F 
ENDBRANCH  16  17
ENDBRANCH   5  13
ENDBRANCH   1   8
BRANCH   3  21
ATOM     21  C   UNL     1      -5.979   3.946  10.436  0.00  0.00    +0.092 C 
BRANCH  21  22
ATOM     22  C   UNL     1      -5.864   2.808  11.453  0.00  0.00    -0.050 C 
ATOM     23  C   UNL     1      -6.395   1.514  10.833  0.00  0.00    -0.010 C 
ATOM     24  C   UNL     1      -7.862   1.702  10.441  0.00  0.00    -0.001 C 
ATOM     25  C   UNL     1      -8.682   2.046  11.686  0.00  0.00    -0.000 C 
ATOM     26  C   UNL     1      -8.151   3.340  12.306  0.00  0.00    -0.001 C 
ATOM     27  C   UNL     1      -6.684   3.152  12.698  0.00  0.00    -0.010 C 
BRANCH  22  28
ATOM     28  N   UNL     1      -4.455   2.629  11.829  0.00  0.00    +0.384 N 
ATOM     29  C   UNL     1      -3.900   3.864  12.396  0.00  0.00    -0.078 C 
ATOM     30  C   UNL     1      -2.482   3.600  12.908  0.00  0.00    -0.019 C 
ATOM     31  C   UNL     1      -1.609   3.111  11.749  0.00  0.00    -0.004 C 
ATOM     32  C   UNL     1      -2.235   1.851  11.145  0.00  0.00    -0.019 C 
ATOM     33  C   UNL     1      -3.660   2.166  10.684  0.00  0.00    -0.078 C 
ATOM     34  H   UNL     1      -4.407   1.852  12.606  0.00  0.00    -0.081 HD
ENDBRANCH  22  28
ENDBRANCH  21  22
ENDBRANCH   3  21
TORSDOF 6
