REMARK  Name = ZINC25389470
REMARK  11 active torsions:
REMARK  status: ('A' for Active; 'I' for Inactive)
REMARK    1  A    between atoms: C_2  and  C_3
REMARK    2  A    between atoms: C_3  and  N_4
REMARK    3  A    between atoms: N_4  and  C_5
REMARK    4  A    between atoms: N_4  and  S_12
REMARK    5  A    between atoms: S_12  and  C_15
REMARK    6  A    between atoms: C_19  and  C_21
REMARK    7  A    between atoms: C_21  and  O_23
REMARK    8  A    between atoms: O_23  and  C_24
REMARK    9  A    between atoms: C_24  and  C_25
REMARK   10  A    between atoms: N_27  and  C_28
REMARK   11  A    between atoms: C_32  and  C_34
REMARK                            x       y       z     vdW  Elec       q    Type
REMARK                         _______ _______ _______ _____ _____    ______ ____
ROOT
ATOM      1  C   UNL     1       5.366  11.946   0.535  0.00  0.00    +0.110 A 
ATOM      2  C   UNL     1       6.419  11.107   0.214  0.00  0.00    +0.029 A 
ATOM      3  C   UNL     1       6.190   9.767  -0.045  0.00  0.00    +0.003 A 
ATOM      4  C   UNL     1       4.910   9.258   0.019  0.00  0.00    +0.015 A 
ATOM      5  C   UNL     1       3.842  10.100   0.337  0.00  0.00    +0.061 A 
ATOM      6  C   UNL     1       4.080  11.451   0.598  0.00  0.00    +0.043 A 
ENDROOT
BRANCH   1   7
ATOM      7  S   UNL     1       5.669  13.650   0.864  0.00  0.00    +0.075 S 
ATOM      8  O   UNL     1       6.955  13.944   0.334  0.00  0.00    -0.150 OA
ATOM      9  O   UNL     1       4.502  14.355   0.465  0.00  0.00    -0.150 OA
BRANCH   7  10
ATOM     10  N   UNL     1       5.785  13.818   2.507  0.00  0.00    -0.199 N 
BRANCH  10  11
ATOM     11  C   UNL     1       7.030  13.714   3.134  0.00  0.00    +0.052 A 
ATOM     12  C   UNL     1       8.037  12.948   2.559  0.00  0.00    +0.026 A 
ATOM     13  C   UNL     1       9.268  12.852   3.178  0.00  0.00    +0.022 A 
ATOM     14  C   UNL     1       9.495  13.507   4.375  0.00  0.00    +0.041 A 
ATOM     15  C   UNL     1       8.492  14.265   4.953  0.00  0.00    +0.022 A 
ATOM     16  C   UNL     1       7.261  14.370   4.336  0.00  0.00    +0.026 A 
ATOM     17 CL   UNL     1      11.041  13.377   5.154  0.00  0.00    -0.084 Cl
ENDBRANCH  10  11
BRANCH  10  18
ATOM     18  C   UNL     1       4.583  14.076   3.304  0.00  0.00    +0.158 C 
BRANCH  18  20
ATOM     19  C   UNL     1       3.851  12.622   5.123  0.00  0.00    +0.005 C 
ATOM     20  C   UNL     1       4.044  12.774   3.837  0.00  0.00    -0.014 C 
ENDBRANCH  18  20
ENDBRANCH  10  18
ENDBRANCH   7  10
ENDBRANCH   1   7
BRANCH   5  21
ATOM     21  C   UNL     1       2.468   9.562   0.404  0.00  0.00    +0.340 C 
ATOM     22  O   UNL     1       1.542  10.296   0.685  0.00  0.00    -0.245 OA
BRANCH  21  23
ATOM     23  O   UNL     1       2.241   8.259   0.151  0.00  0.00    -0.452 OA
BRANCH  23  24
ATOM     24  C   UNL     1       0.866   7.800   0.235  0.00  0.00    +0.328 C 
BRANCH  24  25
ATOM     25  C   UNL     1       0.808   6.327  -0.076  0.00  0.00    +0.255 C 
ATOM     26  O   UNL     1       1.825   5.723  -0.342  0.00  0.00    -0.272 OA
ATOM     27  N   UNL     1      -0.374   5.681  -0.059  0.00  0.00    -0.283 N 
ATOM     28  H   UNL     1      -1.305   6.242   0.110  0.00  0.00    +0.155 HD
BRANCH  27  29
ATOM     29  C   UNL     1      -0.418   4.296  -0.257  0.00  0.00    +0.035 A 
ATOM     30  C   UNL     1      -1.488   3.724  -0.935  0.00  0.00    +0.023 A 
ATOM     31  C   UNL     1      -1.536   2.357  -1.134  0.00  0.00    +0.003 A 
ATOM     32  C   UNL     1      -0.522   1.550  -0.658  0.00  0.00    +0.019 A 
ATOM     33  C   UNL     1       0.554   2.114   0.030  0.00  0.00    +0.054 A 
ATOM     34  C   UNL     1       0.605   3.495   0.225  0.00  0.00    +0.042 A 
BRANCH  33  35
ATOM     35  C   UNL     1       1.605   1.279   0.530  0.00  0.00    +0.099 C 
ATOM     36  N   UNL     1       2.438   0.616   0.926  0.00  0.00    -0.191 NA
ENDBRANCH  33  35
ENDBRANCH  27  29
ENDBRANCH  24  25
ENDBRANCH  23  24
ENDBRANCH  21  23
ENDBRANCH   5  21
TORSDOF 11
