REMARK  Name = ZINC02752679
REMARK  7 active torsions:
REMARK  status: ('A' for Active; 'I' for Inactive)
REMARK    1  A    between atoms: C_1  and  C_2
REMARK    2  A    between atoms: C_2  and  O_3
REMARK    3  A    between atoms: O_3  and  C_4
REMARK    4  A    between atoms: C_4  and  C_6
REMARK    5  A    between atoms: C_10  and  N_11
REMARK    6  A    between atoms: C_12  and  C_14
REMARK    7  A    between atoms: C_16  and  C_24
REMARK                            x       y       z     vdW  Elec       q    Type
REMARK                         _______ _______ _______ _____ _____    ______ ____
ROOT
ATOM      1  C   UNL     1      -1.813   2.259  -4.884  0.00  0.00    +0.048 A 
ATOM      2  C   UNL     1      -0.576   1.693  -5.159  0.00  0.00    +0.042 A 
ATOM      3  C   UNL     1      -0.197   1.480  -6.493  0.00  0.00    +0.073 A 
ATOM      4  N   UNL     1      -0.972   1.810  -7.506  0.00  0.00    -0.247 NA
ATOM      5  C   UNL     1      -2.174   2.363  -7.334  0.00  0.00    +0.072 A 
ATOM      6  C   UNL     1      -2.657   2.616  -6.025  0.00  0.00    +0.013 A 
ATOM      7  C   UNL     1      -3.918   3.195  -5.849  0.00  0.00    +0.011 A 
ATOM      8  C   UNL     1      -4.673   3.512  -6.940  0.00  0.00    +0.001 A 
ATOM      9  C   UNL     1      -4.203   3.266  -8.228  0.00  0.00    +0.002 A 
ATOM     10  C   UNL     1      -2.981   2.704  -8.435  0.00  0.00    +0.028 A 
ENDROOT
BRANCH   3  11
ATOM     11  C   UNL     1       1.124   0.871  -6.773  0.00  0.00    +0.004 A 
ATOM     12  C   UNL     1       1.921   0.417  -5.722  0.00  0.00    +0.014 A 
ATOM     13  C   UNL     1       3.150  -0.151  -5.983  0.00  0.00    +0.050 A 
ATOM     14  C   UNL     1       3.599  -0.273  -7.290  0.00  0.00    +0.166 A 
ATOM     15  C   UNL     1       2.806   0.179  -8.345  0.00  0.00    +0.167 A 
ATOM     16  C   UNL     1       1.571   0.744  -8.088  0.00  0.00    +0.059 A 
ATOM     17  O   UNL     1       3.467  -0.053  -9.517  0.00  0.00    -0.453 OA
ATOM     18  C   UNL     1       4.486  -1.020  -9.199  0.00  0.00    +0.466 C 
ATOM     19  O   UNL     1       4.754  -0.787  -7.803  0.00  0.00    -0.453 OA
ENDBRANCH   3  11
BRANCH   1  21
ATOM     20  N   UNL     1      -1.509   2.059  -2.463  0.00  0.00    -0.275 N 
ATOM     21  C   UNL     1      -2.258   2.497  -3.495  0.00  0.00    +0.249 C 
ATOM     22  O   UNL     1      -3.300   3.086  -3.283  0.00  0.00    -0.270 OA
ATOM     23  H   UNL     1      -0.678   1.589  -2.632  0.00  0.00    +0.156 HD
BRANCH  20  28
ATOM     24  C   UNL     1      -1.300   1.913   0.018  0.00  0.00    +0.091 A 
ATOM     25  C   UNL     1      -1.955   2.278   1.274  0.00  0.00    -0.021 A 
ATOM     26  C   UNL     1      -3.118   2.942   1.141  0.00  0.00    -0.004 A 
ATOM     27  S   UNL     1      -3.357   3.086  -0.613  0.00  0.00    -0.077 S 
ATOM     28  C   UNL     1      -1.926   2.282  -1.161  0.00  0.00    +0.087 A 
ATOM     29  C   UNL     1      -3.727   3.286   2.473  0.00  0.00    +0.043 C 
ATOM     30  C   UNL     1      -2.571   3.123   3.484  0.00  0.00    +0.010 C 
ATOM     31  C   UNL     1      -1.667   2.101   2.766  0.00  0.00    +0.037 C 
BRANCH  24  32
ATOM     32  C   UNL     1      -0.027   1.190   0.009  0.00  0.00    +0.342 C 
ATOM     33  O   UNL     1      -0.018  -0.026  -0.001  0.00  0.00    -0.245 OA
BRANCH  32  34
ATOM     34  O   UNL     1       1.137   1.873   0.004  0.00  0.00    -0.461 OA
BRANCH  34  36
ATOM     35  C   UNL     1       3.566   2.031  -0.015  0.00  0.00    +0.048 C 
ATOM     36  C   UNL     1       2.360   1.091  -0.012  0.00  0.00    +0.229 C 
ENDBRANCH  34  36
ENDBRANCH  32  34
ENDBRANCH  24  32
ENDBRANCH  20  28
ENDBRANCH   1  21
TORSDOF 6
