REMARK  Name = ZINC63245167
REMARK  11 active torsions:
REMARK  status: ('A' for Active; 'I' for Inactive)
REMARK    1  A    between atoms: C_1  and  C_2
REMARK    2  A    between atoms: C_7  and  N_8
REMARK    3  A    between atoms: C_9  and  C_28
REMARK    4  A    between atoms: C_12  and  S_13
REMARK    5  A    between atoms: S_13  and  C_14
REMARK    6  A    between atoms: C_14  and  C_15
REMARK    7  A    between atoms: C_15  and  C_17
REMARK    8  A    between atoms: C_18  and  C_27
REMARK    9  A    between atoms: N_19  and  C_24
REMARK   10  A    between atoms: C_20  and  C_23
REMARK   11  A    between atoms: C_24  and  C_25
REMARK                            x       y       z     vdW  Elec       q    Type
REMARK                         _______ _______ _______ _____ _____    ______ ____
ROOT
ATOM      1  N   UNL     1       0.024  -0.067   2.452  0.00  0.00    -0.270 N 
ATOM      2  C   UNL     1      -1.078   0.315   3.200  0.00  0.00    +0.168 A 
ATOM      3  N   UNL     1      -0.618   0.939   4.275  0.00  0.00    -0.128 NA
ATOM      4  N   UNL     1       0.667   0.968   4.244  0.00  0.00    -0.122 NA
ATOM      5  C   UNL     1       1.112   0.362   3.154  0.00  0.00    +0.197 A 
ENDROOT
BRANCH   2   6
ATOM      6  C   UNL     1      -2.425   0.085   2.880  0.00  0.00    +0.025 C 
ATOM      7  C   UNL     1      -3.544   0.468   3.619  0.00  0.00    +0.006 A 
ATOM      8  C   UNL     1      -3.689   1.161   4.840  0.00  0.00    +0.010 A 
ATOM      9  C   UNL     1      -4.931   1.400   5.335  0.00  0.00    +0.001 A 
ATOM     10  C   UNL     1      -6.080   0.976   4.665  0.00  0.00    +0.002 A 
ATOM     11  C   UNL     1      -6.015   0.306   3.488  0.00  0.00    +0.026 A 
ATOM     12  C   UNL     1      -4.753   0.020   2.908  0.00  0.00    +0.043 A 
ATOM     13  N   UNL     1      -4.426  -0.605   1.793  0.00  0.00    -0.380 N 
ATOM     14  C   UNL     1      -2.967  -0.624   1.658  0.00  0.00    +0.152 C 
ATOM     15  H   UNL     1      -5.053  -0.989   1.161  0.00  0.00    +0.160 HD
ENDBRANCH   2   6
BRANCH   1  22
ATOM     16  C   UNL     1      -0.045   1.454   0.048  0.00  0.00    +0.046 C 
ATOM     17  C   UNL     1      -0.011  -0.053   0.036  0.00  0.00    -0.026 A 
ATOM     18  C   UNL     1      -0.009  -0.735  -1.165  0.00  0.00    +0.005 A 
ATOM     19  C   UNL     1       0.023  -2.117  -1.176  0.00  0.00    +0.000 A 
ATOM     20  C   UNL     1       0.051  -2.821   0.014  0.00  0.00    +0.002 A 
ATOM     21  C   UNL     1       0.048  -2.145   1.218  0.00  0.00    +0.026 A 
ATOM     22  C   UNL     1       0.022  -0.756   1.233  0.00  0.00    +0.053 A 
ENDBRANCH   1  22
BRANCH   5  23
ATOM     23  S   UNL     1       2.799   0.153   2.692  0.00  0.00    -0.078 S 
BRANCH  23  24
ATOM     24  C   UNL     1       3.724   0.942   4.038  0.00  0.00    +0.156 C 
BRANCH  24  25
ATOM     25  C   UNL     1       5.202   0.833   3.764  0.00  0.00    +0.171 C 
ATOM     26  O   UNL     1       5.594   0.276   2.757  0.00  0.00    -0.291 OA
BRANCH  25  27
ATOM     27  C   UNL     1       6.125   1.373   4.671  0.00  0.00    +0.014 C 
ATOM     28  C   UNL     1       7.466   1.254   4.597  0.00  0.00    +0.010 C 
ATOM     29  N   UNL     1       8.123   1.875   5.604  0.00  0.00    -0.326 N 
ATOM     30  C   UNL     1       7.162   2.515   6.511  0.00  0.00    +0.075 C 
ATOM     31  C   UNL     1       5.786   2.195   5.896  0.00  0.00    +0.062 C 
ATOM     32  C   UNL     1       7.389   4.028   6.550  0.00  0.00    +0.028 C 
ATOM     33  C   UNL     1       8.167   0.501   3.496  0.00  0.00    +0.061 C 
BRANCH  29  34
ATOM     34  C   UNL     1       9.579   1.903   5.766  0.00  0.00    +0.131 C 
BRANCH  34  35
ATOM     35  C   UNL     1      10.142   3.102   5.048  0.00  0.00    -0.016 C 
ATOM     36  C   UNL     1      10.890   3.961   5.694  0.00  0.00    +0.005 C 
ENDBRANCH  34  35
ENDBRANCH  29  34
ENDBRANCH  25  27
ENDBRANCH  24  25
ENDBRANCH  23  24
ENDBRANCH   5  23
TORSDOF 8
