REMARK  Name = ZINC39396240
REMARK  7 active torsions:
REMARK  status: ('A' for Active; 'I' for Inactive)
REMARK    1  A    between atoms: C_1  and  C_2
REMARK    2  A    between atoms: C_5  and  S_8
REMARK    3  A    between atoms: S_8  and  C_9
REMARK    4  A    between atoms: C_9  and  C_10
REMARK    5  A    between atoms: C_14  and  S_16
REMARK    6  A    between atoms: S_16  and  C_17
REMARK    7  A    between atoms: C_19  and  C_29
REMARK                            x       y       z     vdW  Elec       q    Type
REMARK                         _______ _______ _______ _____ _____    ______ ____
ROOT
ATOM      1  S   UNL     1      -2.590  -9.721   1.179  0.00  0.00    -0.070 S 
ENDROOT
BRANCH   1   2
ATOM      2  C   UNL     1      -3.636  -8.261   0.926  0.00  0.00    +0.171 C 
ATOM      3  C   UNL     1      -5.082  -8.718   0.922  0.00  0.00    -0.009 C 
ATOM      4  C   UNL     1      -5.834  -8.433  -0.221  0.00  0.00    +0.001 A 
ATOM      5  C   UNL     1      -7.187  -8.822  -0.309  0.00  0.00    +0.010 A 
ATOM      6  C   UNL     1      -7.897  -8.531  -1.433  0.00  0.00    +0.001 A 
ATOM      7  C   UNL     1      -7.314  -7.856  -2.502  0.00  0.00    +0.002 A 
ATOM      8  C   UNL     1      -6.013  -7.455  -2.476  0.00  0.00    +0.024 A 
ATOM      9  C   UNL     1      -5.219  -7.721  -1.347  0.00  0.00    +0.041 A 
ATOM     10  N   UNL     1      -3.942  -7.326  -1.322  0.00  0.00    -0.284 N 
ATOM     11  C   UNL     1      -3.134  -7.537  -0.303  0.00  0.00    +0.235 C 
ATOM     12  O   UNL     1      -1.981  -7.149  -0.351  0.00  0.00    -0.274 OA
ATOM     13  H   UNL     1      -3.591  -6.859  -2.097  0.00  0.00    +0.155 HD
BRANCH   3  14
ATOM     14  C   UNL     1      -5.645  -9.405   2.027  0.00  0.00    -0.020 A 
ATOM     15  C   UNL     1      -6.078 -10.734   1.887  0.00  0.00    +0.008 A 
ATOM     16  C   UNL     1      -6.624 -11.392   2.967  0.00  0.00    +0.001 A 
ATOM     17  C   UNL     1      -6.746 -10.748   4.187  0.00  0.00    +0.000 A 
ATOM     18  C   UNL     1      -6.321  -9.438   4.336  0.00  0.00    +0.001 A 
ATOM     19  C   UNL     1      -5.767  -8.764   3.270  0.00  0.00    +0.008 A 
ENDBRANCH   3  14
ENDBRANCH   1   2
BRANCH   1  24
ATOM     20  C   UNL     1       0.395  -7.202   1.574  0.00  0.00    +0.059 A 
ATOM     21  C   UNL     1       1.481  -7.998   1.802  0.00  0.00    +0.094 A 
ATOM     22  C   UNL     1       1.306  -9.392   1.839  0.00  0.00    +0.252 A 
ATOM     23  N   UNL     1       0.068  -9.897   1.649  0.00  0.00    -0.302 N 
ATOM     24  C   UNL     1      -0.978  -9.054   1.426  0.00  0.00    +0.170 A 
ATOM     25  N   UNL     1      -0.806  -7.746   1.398  0.00  0.00    -0.227 NA
ATOM     26  O   UNL     1       2.255 -10.132   2.039  0.00  0.00    -0.268 OA
ATOM     27  H   UNL     1      -0.075 -10.856   1.671  0.00  0.00    +0.171 HD
BRANCH  20  28
ATOM     28  C   UNL     1       0.556  -5.705   1.529  0.00  0.00    +0.130 C 
BRANCH  28  29
ATOM     29  S   UNL     1       0.469  -5.138  -0.192  0.00  0.00    -0.119 S 
BRANCH  29  34
ATOM     30  C   UNL     1       1.160   0.845   0.202  0.00  0.00    +0.044 C 
ATOM     31  C   UNL     1       0.988  -0.649   0.104  0.00  0.00    -0.050 A 
ATOM     32  C   UNL     1       0.816  -1.243  -1.133  0.00  0.00    +0.004 A 
ATOM     33  C   UNL     1       0.658  -2.612  -1.227  0.00  0.00    +0.015 A 
ATOM     34  C   UNL     1       0.671  -3.392  -0.077  0.00  0.00    +0.008 A 
ATOM     35  C   UNL     1       0.845  -2.791   1.164  0.00  0.00    +0.015 A 
ATOM     36  C   UNL     1       1.008  -1.422   1.250  0.00  0.00    +0.004 A 
ENDBRANCH  29  34
ENDBRANCH  28  29
ENDBRANCH  20  28
ENDBRANCH   1  24
TORSDOF 6
