REMARK  Name = ZINC09424402
REMARK  7 active torsions:
REMARK  status: ('A' for Active; 'I' for Inactive)
REMARK    1  A    between atoms: C_4  and  S_7
REMARK    2  A    between atoms: S_7  and  C_8
REMARK    3  A    between atoms: C_8  and  C_9
REMARK    4  A    between atoms: C_10  and  C_20
REMARK    5  A    between atoms: N_22  and  N_23
REMARK    6  A    between atoms: C_24  and  C_25
REMARK    7  A    between atoms: C_30  and  C_31
REMARK                            x       y       z     vdW  Elec       q    Type
REMARK                         _______ _______ _______ _____ _____    ______ ____
ROOT
ATOM      1  C   UNL     1       4.947   9.425   0.005  0.00  0.00    +0.089 A 
ATOM      2  C   UNL     1       4.834   8.064  -0.001  0.00  0.00    +0.173 A 
ATOM      3  N   UNL     1       6.069   7.534  -0.009  0.00  0.00    -0.124 NA
ATOM      4  N   UNL     1       6.944   8.478  -0.016  0.00  0.00    -0.058 NA
ATOM      5  N   UNL     1       6.269   9.707  -0.004  0.00  0.00    -0.191 N 
ATOM      6  C   UNL     1       6.851  10.979  -0.004  0.00  0.00    +0.240 A 
ATOM      7  C   UNL     1       8.289  11.265  -0.014  0.00  0.00    +0.206 A 
ATOM      8  N   UNL     1       8.450  12.560  -0.010  0.00  0.00    -0.032 NA
ATOM      9  O   UNL     1       7.165  13.157   0.003  0.00  0.00    -0.239 OA
ATOM     10  N   UNL     1       6.208  12.112   0.001  0.00  0.00    -0.027 NA
ATOM     11  N   UNL     1       9.307  10.318  -0.026  0.00  0.00    -0.337 N 
ATOM     12  H   UNL     1       9.090   9.373  -0.028  0.00  0.00    +0.144 HD
ATOM     13  H   UNL     1      10.234  10.603  -0.033  0.00  0.00    +0.144 HD
ENDROOT
BRANCH   2  14
ATOM     14  C   UNL     1       3.570   7.304   0.007  0.00  0.00    +0.285 C 
ATOM     15  O   UNL     1       2.506   7.893   0.019  0.00  0.00    -0.267 OA
ATOM     16  N   UNL     1       3.594   5.956  -0.000  0.00  0.00    -0.202 N 
ATOM     17  H   UNL     1       4.442   5.486  -0.010  0.00  0.00    +0.178 HD
BRANCH  16  18
ATOM     18  N   UNL     1       2.393   5.234   0.007  0.00  0.00    -0.187 NA
ATOM     19  C   UNL     1       2.416   3.937   0.000  0.00  0.00    +0.138 C 
BRANCH  19  20
ATOM     20  C   UNL     1       1.152   3.177   0.008  0.00  0.00    +0.006 A 
ATOM     21  C   UNL     1       1.173   1.780   0.000  0.00  0.00    +0.010 A 
ATOM     22  C   UNL     1      -0.013   1.076   0.008  0.00  0.00    +0.001 A 
ATOM     23  C   UNL     1      -1.221   1.750   0.017  0.00  0.00    +0.001 A 
ATOM     24  C   UNL     1      -1.250   3.133   0.030  0.00  0.00    +0.013 A 
ATOM     25  C   UNL     1      -0.071   3.850   0.022  0.00  0.00    +0.063 A 
BRANCH  25  26
ATOM     26  C   UNL     1      -0.104   5.357   0.031  0.00  0.00    +0.418 C 
ATOM     27  F   UNL     1      -1.433   5.794   0.045  0.00  0.00    -0.166 F 
ATOM     28  F   UNL     1       0.555   5.831   1.170  0.00  0.00    -0.166 F 
ATOM     29  F   UNL     1       0.534   5.844  -1.115  0.00  0.00    -0.166 F 
ENDBRANCH  25  26
ENDBRANCH  19  20
ENDBRANCH  16  18
ENDBRANCH   2  14
BRANCH   1  30
ATOM     30  C   UNL     1       3.816  10.421   0.019  0.00  0.00    +0.132 C 
BRANCH  30  31
ATOM     31  S   UNL     1       3.349  10.828  -1.686  0.00  0.00    -0.119 S 
BRANCH  31  35
ATOM     32  C   UNL     1      -0.032  13.806  -1.213  0.00  0.00    +0.000 A 
ATOM     33  C   UNL     1       0.388  13.433  -2.477  0.00  0.00    +0.001 A 
ATOM     34  C   UNL     1       1.418  12.526  -2.625  0.00  0.00    +0.015 A 
ATOM     35  C   UNL     1       2.033  11.986  -1.502  0.00  0.00    +0.008 A 
ATOM     36  C   UNL     1       1.605  12.359  -0.233  0.00  0.00    +0.015 A 
ATOM     37  C   UNL     1       0.579  13.272  -0.093  0.00  0.00    +0.001 A 
ENDBRANCH  31  35
ENDBRANCH  30  31
ENDBRANCH   1  30
TORSDOF 7
