REMARK  Name = ZINC32910570
REMARK  7 active torsions:
REMARK  status: ('A' for Active; 'I' for Inactive)
REMARK    1  A    between atoms: C_1  and  C_2
REMARK    2  A    between atoms: C_9  and  C_16
REMARK    3  A    between atoms: C_11  and  O_12
REMARK    4  A    between atoms: C_16  and  O_17
REMARK    5  A    between atoms: O_17  and  C_18
REMARK    6  A    between atoms: C_18  and  C_20
REMARK    7  A    between atoms: C_27  and  C_29
REMARK                            x       y       z     vdW  Elec       q    Type
REMARK                         _______ _______ _______ _____ _____    ______ ____
ROOT
ATOM      1  C   UNL     1      -6.015  -4.987  -1.586  0.00  0.00    +0.268 C 
ENDROOT
BRANCH   1  10
ATOM      2  C   UNL     1     -14.611  -6.958  -2.739  0.00  0.00    +0.109 C 
ATOM      3  C   UNL     1     -13.306  -6.219  -2.590  0.00  0.00    +0.214 C 
ATOM      4  O   UNL     1     -13.158  -5.137  -3.117  0.00  0.00    -0.276 OA
ATOM      5  N   UNL     1     -12.303  -6.761  -1.871  0.00  0.00    -0.286 N 
ATOM      6  C   UNL     1     -11.063  -6.124  -1.812  0.00  0.00    +0.037 A 
ATOM      7  C   UNL     1      -9.896  -6.886  -1.766  0.00  0.00    +0.024 A 
ATOM      8  C   UNL     1      -8.676  -6.277  -1.709  0.00  0.00    +0.014 A 
ATOM      9  C   UNL     1      -8.595  -4.880  -1.698  0.00  0.00    +0.024 A 
ATOM     10  C   UNL     1      -7.299  -4.201  -1.637  0.00  0.00    +0.007 A 
ATOM     11  C   UNL     1      -7.287  -2.842  -1.622  0.00  0.00    +0.095 A 
ATOM     12  C   UNL     1      -8.502  -2.129  -1.675  0.00  0.00    +0.285 A 
ATOM     13  O   UNL     1      -9.687  -2.758  -1.731  0.00  0.00    -0.425 OA
ATOM     14  C   UNL     1      -9.769  -4.106  -1.744  0.00  0.00    +0.141 A 
ATOM     15  C   UNL     1     -11.001  -4.739  -1.801  0.00  0.00    +0.070 A 
ATOM     16  H   UNL     1     -12.463  -7.705  -1.329  0.00  0.00    +0.155 HD
BRANCH  12  17
ATOM     17  O   UNL     1      -8.476  -0.911  -1.666  0.00  0.00    -0.480 OA
ATOM     18  H   UNL     1      -9.416  -0.341  -1.707  0.00  0.00    +0.295 HD
ENDBRANCH  12  17
ENDBRANCH   1  10
BRANCH   1  19
ATOM     19  O   UNL     1      -4.889  -4.072  -1.532  0.00  0.00    -0.460 OA
BRANCH  19  20
ATOM     20  C   UNL     1      -3.663  -4.616  -1.482  0.00  0.00    +0.312 C 
ATOM     21  O   UNL     1      -3.535  -5.818  -1.484  0.00  0.00    -0.250 OA
BRANCH  20  22
ATOM     22  C   UNL     1      -2.446  -3.729  -1.424  0.00  0.00    +0.115 C 
ATOM     23  C   UNL     1      -1.185  -4.594  -1.370  0.00  0.00    +0.018 C 
ATOM     24  C   UNL     1       0.053  -3.694  -1.344  0.00  0.00    +0.020 C 
ATOM     25  C   UNL     1       0.015  -2.816  -0.094  0.00  0.00    +0.108 C 
ATOM     26  N   UNL     1      -1.262  -2.089  -0.059  0.00  0.00    -0.297 N 
ATOM     27  C   UNL     1      -2.512  -2.852  -0.169  0.00  0.00    +0.122 C 
ATOM     28  C   UNL     1      -1.284  -0.748   0.068  0.00  0.00    +0.247 C 
ATOM     29  O   UNL     1      -2.346  -0.165   0.168  0.00  0.00    -0.270 OA
BRANCH  28  30
ATOM     30  C   UNL     1      -0.018   0.015   0.084  0.00  0.00    +0.037 A 
ATOM     31  C   UNL     1       0.111   1.175  -0.681  0.00  0.00    +0.014 A 
ATOM     32  C   UNL     1       1.295   1.883  -0.661  0.00  0.00    +0.021 A 
ATOM     33  C   UNL     1       2.354   1.443   0.115  0.00  0.00    +0.041 A 
ATOM     34  C   UNL     1       2.232   0.292   0.876  0.00  0.00    +0.021 A 
ATOM     35  C   UNL     1       1.053  -0.423   0.865  0.00  0.00    +0.014 A 
ATOM     36 CL   UNL     1       3.842   2.338   0.134  0.00  0.00    -0.084 Cl
ENDBRANCH  28  30
ENDBRANCH  20  22
ENDBRANCH  19  20
ENDBRANCH   1  19
TORSDOF 6
