REMARK  Name = ZINC02109887
REMARK  8 active torsions:
REMARK  status: ('A' for Active; 'I' for Inactive)
REMARK    1  A    between atoms: C_1  and  C_2
REMARK    2  A    between atoms: C_6  and  O_29
REMARK    3  A    between atoms: C_7  and  C_28
REMARK    4  A    between atoms: C_12  and  C_13
REMARK    5  A    between atoms: C_13  and  C_14
REMARK    6  A    between atoms: C_19  and  O_27
REMARK    7  A    between atoms: O_29  and  C_30
REMARK    8  A    between atoms: C_30  and  C_31
REMARK                            x       y       z     vdW  Elec       q    Type
REMARK                         _______ _______ _______ _____ _____    ______ ____
ROOT
ATOM      1  C   UNL     1       1.365  -5.001  -0.039  0.00  0.00    +0.045 C 
ATOM      2  C   UNL     1       0.068  -4.234  -0.022  0.00  0.00    -0.029 A 
ATOM      3  C   UNL     1       0.060  -2.769  -0.014  0.00  0.00    +0.021 A 
ATOM      4  C   UNL     1       1.257  -2.043  -0.022  0.00  0.00    +0.015 A 
ATOM      5  C   UNL     1       1.222  -0.679  -0.019  0.00  0.00    +0.047 A 
ATOM      6  C   UNL     1       0.002  -0.004   0.002  0.00  0.00    +0.127 A 
ATOM      7  C   UNL     1      -1.191  -0.707   0.010  0.00  0.00    +0.034 A 
ATOM      8  C   UNL     1      -1.174  -2.094   0.002  0.00  0.00    +0.146 A 
ATOM      9  O   UNL     1      -2.326  -2.799   0.009  0.00  0.00    -0.422 OA
ATOM     10  C   UNL     1      -2.326  -4.141   0.002  0.00  0.00    +0.341 A 
ATOM     11  O   UNL     1      -3.389  -4.734   0.009  0.00  0.00    -0.245 OA
ATOM     12  C   UNL     1      -1.126  -4.882  -0.013  0.00  0.00    +0.049 A 
ATOM     13  C   UNL     1      -2.504   0.032   0.027  0.00  0.00    +0.051 C 
ENDROOT
BRANCH  12  14
ATOM     14  C   UNL     1      -1.168  -6.388  -0.020  0.00  0.00    +0.138 C 
BRANCH  14  15
ATOM     15  C   UNL     1      -1.196  -6.883  -1.443  0.00  0.00    +0.220 C 
ATOM     16  O   UNL     1      -1.183  -6.091  -2.361  0.00  0.00    -0.275 OA
ATOM     17  N   UNL     1      -1.236  -8.207  -1.695  0.00  0.00    -0.301 N 
ATOM     18  C   UNL     1      -1.252  -9.179  -0.594  0.00  0.00    +0.110 C 
ATOM     19  C   UNL     1      -0.113 -10.181  -0.804  0.00  0.00    +0.054 C 
ATOM     20  C   UNL     1      -0.239 -10.809  -2.195  0.00  0.00    +0.072 C 
ATOM     21  C   UNL     1       0.890 -11.823  -2.394  0.00  0.00    +0.035 C 
ATOM     22  C   UNL     1       2.239 -11.114  -2.254  0.00  0.00    +0.003 C 
ATOM     23  C   UNL     1       2.351 -10.014  -3.311  0.00  0.00    +0.001 C 
ATOM     24  C   UNL     1       1.218  -9.003  -3.119  0.00  0.00    +0.008 C 
ATOM     25  C   UNL     1      -0.128  -9.716  -3.261  0.00  0.00    +0.038 C 
ATOM     26  C   UNL     1      -1.270  -8.706  -3.077  0.00  0.00    +0.114 C 
BRANCH  20  27
ATOM     27  O   UNL     1      -1.504 -11.463  -2.311  0.00  0.00    -0.388 OA
ATOM     28  H   UNL     1      -1.642 -12.170  -1.666  0.00  0.00    +0.210 HD
ENDBRANCH  20  27
ENDBRANCH  14  15
ENDBRANCH  12  14
BRANCH   6  29
ATOM     29  O   UNL     1      -0.016   1.353   0.009  0.00  0.00    -0.487 OA
BRANCH  29  30
ATOM     30  C   UNL     1       1.248   2.019   0.001  0.00  0.00    +0.264 C 
BRANCH  30  31
ATOM     31  C   UNL     1       1.030   3.510   0.011  0.00  0.00    -0.010 A 
ATOM     32  C   UNL     1       0.925   4.197  -1.197  0.00  0.00    +0.007 A 
ATOM     33  C   UNL     1       0.723   5.543  -1.223  0.00  0.00    +0.009 A 
ATOM     34  C   UNL     1       0.630   6.255  -0.016  0.00  0.00    -0.018 A 
ATOM     35  C   UNL     1       0.428   7.646  -0.003  0.00  0.00    +0.008 A 
ATOM     36  C   UNL     1       0.343   8.303   1.186  0.00  0.00    +0.001 A 
ATOM     37  C   UNL     1       0.453   7.617   2.394  0.00  0.00    +0.001 A 
ATOM     38  C   UNL     1       0.649   6.271   2.421  0.00  0.00    +0.008 A 
ATOM     39  C   UNL     1       0.742   5.558   1.213  0.00  0.00    -0.018 A 
ATOM     40  C   UNL     1       0.945   4.167   1.200  0.00  0.00    +0.015 A 
ENDBRANCH  30  31
ENDBRANCH  29  30
ENDBRANCH   6  29
TORSDOF 6
