REMARK  Name = ZINC09613759
REMARK  6 active torsions:
REMARK  status: ('A' for Active; 'I' for Inactive)
REMARK    1  A    between atoms: C_4  and  C_7
REMARK    2  A    between atoms: C_9  and  C_18
REMARK    3  A    between atoms: N_10  and  C_12
REMARK    4  A    between atoms: C_23  and  N_26
REMARK    5  A    between atoms: N_26  and  S_27
REMARK    6  A    between atoms: S_27  and  C_30
REMARK                            x       y       z     vdW  Elec       q    Type
REMARK                         _______ _______ _______ _____ _____    ______ ____
ROOT
ATOM      1  C   UNL     1      -1.398   2.267   1.030  0.00  0.00    +0.265 C 
ATOM      2  O   UNL     1      -2.206   1.471   0.590  0.00  0.00    -0.268 OA
ATOM      3  N   UNL     1      -0.321   1.827   1.709  0.00  0.00    -0.296 N 
ATOM      4  C   UNL     1       0.657   2.776   2.259  0.00  0.00    +0.109 C 
ATOM      5  C   UNL     1       0.843   2.484   3.751  0.00  0.00    +0.039 C 
ATOM      6  C   UNL     1       1.223   1.013   3.935  0.00  0.00    +0.080 C 
ATOM      7  C   UNL     1       0.097   0.123   3.405  0.00  0.00    +0.039 C 
ATOM      8  C   UNL     1      -0.098   0.389   1.909  0.00  0.00    +0.109 C 
ENDROOT
BRANCH   1  11
ATOM      9  C   UNL     1      -1.301   5.891   0.556  0.00  0.00    +0.094 A 
ATOM     10  C   UNL     1      -0.616   4.683   0.782  0.00  0.00    +0.063 A 
ATOM     11  C   UNL     1      -1.597   3.709   0.819  0.00  0.00    +0.130 A 
ATOM     12  N   UNL     1      -2.789   4.352   0.617  0.00  0.00    -0.227 N 
ATOM     13  N   UNL     1      -2.586   5.612   0.473  0.00  0.00    -0.166 NA
BRANCH   9  17
ATOM     14  C   UNL     1       0.457   9.748   0.209  0.00  0.00    +0.000 A 
ATOM     15  C   UNL     1      -0.914   9.603   0.099  0.00  0.00    +0.001 A 
ATOM     16  C   UNL     1      -1.490   8.354   0.211  0.00  0.00    +0.010 A 
ATOM     17  C   UNL     1      -0.687   7.237   0.435  0.00  0.00    +0.002 A 
ATOM     18  C   UNL     1       0.693   7.389   0.550  0.00  0.00    +0.010 A 
ATOM     19  C   UNL     1       1.259   8.642   0.431  0.00  0.00    +0.001 A 
ENDBRANCH   9  17
BRANCH  12  20
ATOM     20  C   UNL     1      -4.042   3.729   0.575  0.00  0.00    +0.066 A 
ATOM     21  C   UNL     1      -4.242   2.623  -0.241  0.00  0.00    +0.028 A 
ATOM     22  C   UNL     1      -5.478   2.008  -0.276  0.00  0.00    +0.002 A 
ATOM     23  C   UNL     1      -6.518   2.499   0.492  0.00  0.00    +0.000 A 
ATOM     24  C   UNL     1      -6.323   3.603   1.302  0.00  0.00    +0.002 A 
ATOM     25  C   UNL     1      -5.088   4.220   1.345  0.00  0.00    +0.028 A 
ENDBRANCH  12  20
ENDBRANCH   1  11
BRANCH   6  26
ATOM     26  N   UNL     1       1.434   0.739   5.359  0.00  0.00    -0.186 NA
ATOM     27  H   UNL     1       0.678   0.534   5.930  0.00  0.00    +0.148 HD
BRANCH  26  28
ATOM     28  S   UNL     1       2.964   0.777   5.992  0.00  0.00    +0.065 S 
ATOM     29  O   UNL     1       2.835   0.515   7.382  0.00  0.00    -0.153 OA
ATOM     30  O   UNL     1       3.776  -0.017   5.138  0.00  0.00    -0.153 OA
BRANCH  28  31
ATOM     31  C   UNL     1       3.547   2.433   5.844  0.00  0.00    +0.142 A 
ATOM     32  C   UNL     1       3.349   3.486   6.675  0.00  0.00    +0.036 A 
ATOM     33  C   UNL     1       3.910   4.708   6.355  0.00  0.00    +0.010 A 
ATOM     34  C   UNL     1       4.641   4.818   5.219  0.00  0.00    +0.047 A 
ATOM     35  S   UNL     1       4.558   3.159   4.564  0.00  0.00    -0.077 S 
ENDBRANCH  28  31
ENDBRANCH  26  28
ENDBRANCH   6  26
TORSDOF 6
