REMARK  Name = ZINC04236780
REMARK  13 active torsions:
REMARK  status: ('A' for Active; 'I' for Inactive)
REMARK    1  A    between atoms: C_1  and  C_2
REMARK    2  A    between atoms: C_8  and  C_10
REMARK    3  A    between atoms: C_10  and  C_11
REMARK    4  A    between atoms: C_13  and  O_41
REMARK    5  A    between atoms: C_19  and  C_40
REMARK    6  A    between atoms: C_22  and  O_28
REMARK    7  A    between atoms: C_24  and  C_25
REMARK    8  A    between atoms: C_24  and  C_26
REMARK    9  A    between atoms: C_26  and  O_27
REMARK   10  A    between atoms: O_28  and  C_29
REMARK   11  A    between atoms: N_31  and  C_32
REMARK   12  A    between atoms: C_36  and  S_38
REMARK   13  A    between atoms: S_38  and  C_39
REMARK                            x       y       z     vdW  Elec       q    Type
REMARK                         _______ _______ _______ _____ _____    ______ ____
ROOT
ATOM      1  C   UNL     1       1.806  -2.532   2.726  0.00  0.00    +0.032 C 
ATOM      2  C   UNL     1       1.252  -2.037   4.064  0.00  0.00    +0.119 C 
ATOM      3  C   UNL     1       1.203  -0.508   4.061  0.00  0.00    +0.032 C 
ATOM      4  C   UNL     1       0.296  -0.029   2.925  0.00  0.00    +0.007 C 
ATOM      5  C   UNL     1       0.850  -0.524   1.587  0.00  0.00    +0.007 C 
ATOM      6  C   UNL     1       0.899  -2.053   1.591  0.00  0.00    -0.023 C 
ATOM      7  C   UNL     1       1.452  -2.549   0.253  0.00  0.00    +0.011 C 
ATOM      8  C   UNL     1       0.545  -2.070  -0.882  0.00  0.00    +0.046 C 
ATOM      9  C   UNL     1       0.496  -0.541  -0.886  0.00  0.00    +0.186 C 
ATOM     10  C   UNL     1      -0.057  -0.046   0.452  0.00  0.00    +0.031 C 
ATOM     11  C   UNL     1      -0.107   1.484   0.449  0.00  0.00    +0.017 C 
ATOM     12  C   UNL     1      -0.512  -2.609   1.796  0.00  0.00    +0.012 C 
ENDROOT
BRANCH   2  13
ATOM     13  O   UNL     1      -0.065  -2.555   4.256  0.00  0.00    -0.391 OA
ATOM     14  H   UNL     1      -0.479  -2.282   5.086  0.00  0.00    +0.210 HD
ENDBRANCH   2  13
BRANCH   1  15
ATOM     15  C   UNL     1       1.855  -4.061   2.729  0.00  0.00    +0.102 C 
BRANCH  15  23
ATOM     16  C   UNL     1       5.238  -9.354   2.927  0.00  0.00    +0.007 C 
ATOM     17  C   UNL     1       4.244  -8.386   3.572  0.00  0.00    -0.011 C 
ATOM     18  C   UNL     1       5.010  -7.268   4.283  0.00  0.00    +0.022 C 
ATOM     19  C   UNL     1       4.013  -6.320   4.957  0.00  0.00    +0.108 C 
ATOM     20  N   UNL     1       3.054  -5.848   3.950  0.00  0.00    -0.301 N 
ATOM     21  C   UNL     1       2.324  -6.841   3.149  0.00  0.00    +0.108 C 
ATOM     22  C   UNL     1       3.344  -7.783   2.491  0.00  0.00    +0.022 C 
ATOM     23  C   UNL     1       2.842  -4.530   3.767  0.00  0.00    +0.216 C 
ATOM     24  O   UNL     1       3.447  -3.720   4.438  0.00  0.00    -0.276 OA
ENDBRANCH  15  23
ENDBRANCH   1  15
BRANCH  10  25
ATOM     25  C   UNL     1      -1.468  -0.601   0.657  0.00  0.00    +0.166 C 
BRANCH  25  26
ATOM     26  O   UNL     1      -2.358  -0.001  -0.285  0.00  0.00    -0.394 OA
ATOM     27  H   UNL     1      -3.273  -0.307  -0.213  0.00  0.00    +0.209 HD
ENDBRANCH  25  26
ENDBRANCH  10  25
BRANCH   9  28
ATOM     28  O   UNL     1      -0.365  -0.087  -1.963  0.00  0.00    -0.446 OA
BRANCH  28  29
ATOM     29  C   UNL     1       0.216   0.134  -3.158  0.00  0.00    +0.405 C 
ATOM     30  O   UNL     1       1.409  -0.049  -3.296  0.00  0.00    -0.226 OA
ATOM     31  N   UNL     1      -0.526   0.556  -4.201  0.00  0.00    -0.251 N 
ATOM     32  H   UNL     1      -1.464   0.767  -4.074  0.00  0.00    +0.158 HD
BRANCH  31  33
ATOM     33  C   UNL     1       0.057   0.691  -5.466  0.00  0.00    +0.037 A 
ATOM     34  C   UNL     1      -0.681   0.399  -6.606  0.00  0.00    +0.023 A 
ATOM     35  C   UNL     1      -0.109   0.537  -7.856  0.00  0.00    +0.003 A 
ATOM     36  C   UNL     1       1.203   0.954  -7.976  0.00  0.00    +0.015 A 
ATOM     37  C   UNL     1       1.948   1.242  -6.839  0.00  0.00    +0.009 A 
ATOM     38  C   UNL     1       1.374   1.111  -5.582  0.00  0.00    +0.038 A 
BRANCH  37  39
ATOM     39  S   UNL     1       3.621   1.774  -6.993  0.00  0.00    -0.129 S 
ATOM     40  C   UNL     1       3.913   1.793  -8.783  0.00  0.00    +0.090 C 
ENDBRANCH  37  39
ENDBRANCH  31  33
ENDBRANCH  28  29
ENDBRANCH   9  28
TORSDOF 9
