REMARK  Name = ZINC12155604
REMARK  10 active torsions:
REMARK  status: ('A' for Active; 'I' for Inactive)
REMARK    1  A    between atoms: C_1  and  N_2
REMARK    2  A    between atoms: C_4  and  C_11
REMARK    3  A    between atoms: C_11  and  N_68
REMARK    4  A    between atoms: C_15  and  C_32
REMARK    5  A    between atoms: C_16  and  O_23
REMARK    6  A    between atoms: O_23  and  C_24
REMARK    7  A    between atoms: C_24  and  C_25
REMARK    8  A    between atoms: C_25  and  N_26
REMARK    9  A    between atoms: C_32  and  O_34
REMARK   10  A    between atoms: O_34  and  C_35
REMARK                            x       y       z     vdW  Elec       q    Type
REMARK                         _______ _______ _______ _____ _____    ______ ____
ROOT
ATOM      1  C   UNL     1      -8.513  -3.695   0.070  0.00  0.00    -0.072 C 
ATOM      2  C   UNL     1      -8.473  -2.175   0.207  0.00  0.00    +0.036 C 
ATOM      3  C   UNL     1      -7.687  -1.541  -0.914  0.00  0.00    +0.038 A 
ATOM      4  C   UNL     1      -7.049  -0.342  -0.627  0.00  0.00    +0.120 A 
ATOM      5  C   UNL     1      -6.294   0.342  -1.678  0.00  0.00    +0.141 A 
ATOM      6  C   UNL     1      -6.274  -0.232  -2.933  0.00  0.00    +0.116 A 
ATOM      7  C   UNL     1      -6.940  -1.441  -3.135  0.00  0.00    +0.255 A 
ATOM      8  O   UNL     1      -6.933  -1.940  -4.249  0.00  0.00    -0.268 OA
ATOM      9  N   UNL     1      -7.599  -2.077  -2.138  0.00  0.00    -0.313 N 
ATOM     10  C   UNL     1      -8.186  -3.379  -2.472  0.00  0.00    +0.106 C 
ATOM     11  C   UNL     1      -9.653  -3.449  -2.044  0.00  0.00    -0.056 C 
ATOM     12  N   UNL     1      -9.725  -4.047  -0.698  0.00  0.00    +0.384 N 
ATOM     13  H   UNL     1     -10.549  -3.676  -0.211  0.00  0.00    -0.081 HD
ENDROOT
BRANCH   4  14
ATOM     14  C   UNL     1      -7.130   0.236   0.723  0.00  0.00    +0.344 C 
ATOM     15  O   UNL     1      -6.202   0.103   1.498  0.00  0.00    -0.245 OA
BRANCH  14  16
ATOM     16  O   UNL     1      -8.232   0.914   1.102  0.00  0.00    -0.464 OA
ATOM     17  C   UNL     1      -8.242   1.456   2.448  0.00  0.00    +0.280 C 
ENDBRANCH  14  16
ENDBRANCH   4  14
BRANCH  12  18
ATOM     18  C   UNL     1      -9.849  -5.516  -0.803  0.00  0.00    -0.041 C 
BRANCH  18  22
ATOM     19  C   UNL     1     -10.003  -7.782   3.681  0.00  0.00    +0.149 C 
ATOM     20  N   UNL     1     -10.444  -7.051   2.490  0.00  0.00    -0.349 N 
ATOM     21  C   UNL     1      -9.646  -6.724   1.429  0.00  0.00    +0.088 A 
ATOM     22  C   UNL     1     -10.359  -6.055   0.509  0.00  0.00    -0.039 A 
ATOM     23  C   UNL     1     -11.728  -5.953   1.020  0.00  0.00    +0.001 A 
ATOM     24  C   UNL     1     -11.725  -6.597   2.271  0.00  0.00    +0.049 A 
ATOM     25  C   UNL     1     -12.904  -6.662   3.006  0.00  0.00    +0.026 A 
ATOM     26  C   UNL     1     -14.056  -6.098   2.504  0.00  0.00    +0.002 A 
ATOM     27  C   UNL     1     -14.054  -5.463   1.269  0.00  0.00    +0.001 A 
ATOM     28  C   UNL     1     -12.907  -5.388   0.530  0.00  0.00    +0.010 A 
ENDBRANCH  18  22
ENDBRANCH  12  18
BRANCH   5  29
ATOM     29  O   UNL     1      -5.642   1.502  -1.429  0.00  0.00    -0.489 OA
BRANCH  29  30
ATOM     30  C   UNL     1      -4.933   2.094  -2.519  0.00  0.00    +0.248 C 
BRANCH  30  31
ATOM     31  C   UNL     1      -4.264   3.388  -2.049  0.00  0.00    +0.148 C 
BRANCH  31  32
ATOM     32  N   UNL     1      -3.243   3.074  -1.046  0.00  0.00    -0.298 N 
ATOM     33  C   UNL     1      -3.494   3.006   0.398  0.00  0.00    +0.108 C 
ATOM     34  C   UNL     1      -2.099   3.086   1.064  0.00  0.00    +0.028 C 
ATOM     35  C   UNL     1      -1.186   2.540  -0.058  0.00  0.00    +0.097 C 
ATOM     36  C   UNL     1      -1.956   2.811  -1.331  0.00  0.00    +0.216 C 
ATOM     37  O   UNL     1      -1.481   2.794  -2.447  0.00  0.00    -0.276 OA
ENDBRANCH  31  32
ENDBRANCH  30  31
ENDBRANCH  29  30
ENDBRANCH   5  29
TORSDOF 8
