REMARK  Name = ZINC02483622
REMARK  3 active torsions:
REMARK  status: ('A' for Active; 'I' for Inactive)
REMARK    1  A    between atoms: C_10  and  C_12
REMARK    2  A    between atoms: N_14  and  C_15
REMARK    3  A    between atoms: C_16  and  C_25
REMARK                            x       y       z     vdW  Elec       q    Type
REMARK                         _______ _______ _______ _____ _____    ______ ____
ROOT
ATOM      1  C   UNL     1       6.605  -2.401   1.591  0.00  0.00    +0.284 C 
ATOM      2  O   UNL     1       6.902  -1.598   0.728  0.00  0.00    -0.266 OA
ATOM      3  N   UNL     1       5.327  -2.500   2.007  0.00  0.00    -0.273 N 
ATOM      4  H   UNL     1       5.089  -3.141   2.696  0.00  0.00    +0.156 HD
ENDROOT
BRANCH   1  14
ATOM      5  C   UNL     1       9.981  -6.692   4.955  0.00  0.00    +0.001 A 
ATOM      6  C   UNL     1       8.640  -6.717   5.314  0.00  0.00    +0.004 A 
ATOM      7  C   UNL     1       7.734  -5.872   4.712  0.00  0.00    +0.047 A 
ATOM      8  C   UNL     1       8.162  -4.982   3.732  0.00  0.00    +0.139 A 
ATOM      9  C   UNL     1       9.520  -4.963   3.374  0.00  0.00    +0.064 A 
ATOM     10  C   UNL     1      10.423  -5.826   3.994  0.00  0.00    +0.015 A 
ATOM     11  C   UNL     1       9.958  -4.013   2.333  0.00  0.00    +0.193 A 
ATOM     12  O   UNL     1      11.122  -3.947   1.977  0.00  0.00    -0.287 OA
ATOM     13  C   UNL     1       8.923  -3.150   1.745  0.00  0.00    +0.103 A 
ATOM     14  C   UNL     1       7.646  -3.271   2.183  0.00  0.00    +0.194 A 
ATOM     15  O   UNL     1       7.290  -4.145   3.137  0.00  0.00    -0.450 OA
ENDBRANCH   1  14
BRANCH   3  16
ATOM     16  C   UNL     1       4.353  -1.687   1.453  0.00  0.00    +0.085 A 
ATOM     17  C   UNL     1       2.998  -1.641   1.746  0.00  0.00    +0.068 A 
ATOM     18  C   UNL     1       2.179  -0.684   1.016  0.00  0.00    -0.023 A 
ATOM     19  C   UNL     1       2.846   0.062   0.110  0.00  0.00    -0.004 A 
ATOM     20  S   UNL     1       4.530  -0.479   0.225  0.00  0.00    -0.077 S 
ATOM     21  C   UNL     1       2.288   1.105  -0.807  0.00  0.00    +0.043 C 
ATOM     22  C   UNL     1       1.406   2.068  -0.000  0.00  0.00    +0.005 C 
ATOM     23  C   UNL     1      -0.019   1.523   0.010  0.00  0.00    +0.001 C 
ATOM     24  C   UNL     1       0.002  -0.004   0.002  0.00  0.00    +0.005 C 
ATOM     25  C   UNL     1       0.682  -0.535   1.259  0.00  0.00    +0.037 C 
BRANCH  17  26
ATOM     26  C   UNL     1       2.411  -2.526   2.757  0.00  0.00    +0.244 C 
ATOM     27  O   UNL     1       1.982  -3.619   2.435  0.00  0.00    -0.270 OA
ATOM     28  N   UNL     1       2.347  -2.130   4.044  0.00  0.00    -0.325 N 
ATOM     29  H   UNL     1       2.689  -1.260   4.301  0.00  0.00    +0.145 HD
ATOM     30  H   UNL     1       1.958  -2.716   4.713  0.00  0.00    +0.145 HD
ENDBRANCH  17  26
ENDBRANCH   3  16
TORSDOF 3
