REMARK  Name = ZINC23888580
REMARK  7 active torsions:
REMARK  status: ('A' for Active; 'I' for Inactive)
REMARK    1  A    between atoms: C_1  and  C_2
REMARK    2  A    between atoms: C_2  and  C_3
REMARK    3  A    between atoms: C_8  and  O_33
REMARK    4  A    between atoms: C_9  and  C_11
REMARK    5  A    between atoms: C_11  and  C_13
REMARK    6  A    between atoms: C_11  and  N_20
REMARK    7  A    between atoms: C_26  and  C_28
REMARK                            x       y       z     vdW  Elec       q    Type
REMARK                         _______ _______ _______ _____ _____    ______ ____
ROOT
ATOM      1  C   UNL     1      -1.262   2.001  -0.024  0.00  0.00    +0.129 C 
ENDROOT
BRANCH   1   8
ATOM      2  C   UNL     1      -2.657   1.392   5.741  0.00  0.00    +0.152 A 
ATOM      3  N   UNL     1      -1.831   2.381   5.407  0.00  0.00    -0.205 NA
ATOM      4  C   UNL     1      -1.638   2.364   4.117  0.00  0.00    +0.199 A 
ATOM      5  N   UNL     1      -2.347   1.343   3.562  0.00  0.00    -0.173 N 
ATOM      6  N   UNL     1      -2.999   0.735   4.666  0.00  0.00    -0.147 NA
ATOM      7  C   UNL     1      -2.256   1.181   2.200  0.00  0.00    +0.228 A 
ATOM      8  C   UNL     1      -1.498   2.002   1.465  0.00  0.00    +0.076 A 
ATOM      9  S   UNL     1      -0.833   3.096   2.711  0.00  0.00    -0.047 S 
BRANCH   2  11
ATOM     10  C   UNL     1      -2.156   0.094   7.794  0.00  0.00    +0.012 C 
ATOM     11  C   UNL     1      -3.125   1.081   7.140  0.00  0.00    +0.075 C 
ENDBRANCH   2  11
BRANCH   7  12
ATOM     12  O   UNL     1      -2.944   0.176   1.594  0.00  0.00    -0.492 OA
ATOM     13  H   UNL     1      -2.876   0.041   0.505  0.00  0.00    +0.294 HD
ENDBRANCH   7  12
ENDBRANCH   1   8
BRANCH   1  14
ATOM     14  N   UNL     1      -1.320   3.379  -0.530  0.00  0.00    -0.288 NA
ATOM     15  C   UNL     1      -2.576   4.031  -0.137  0.00  0.00    +0.104 C 
ATOM     16  C   UNL     1      -2.522   5.513  -0.524  0.00  0.00    +0.123 C 
ATOM     17  N   UNL     1      -2.191   5.610  -1.954  0.00  0.00    -0.293 N 
ATOM     18  C   UNL     1      -1.021   4.869  -2.450  0.00  0.00    +0.123 C 
ATOM     19  C   UNL     1      -1.135   3.413  -1.987  0.00  0.00    +0.104 C 
ATOM     20  C   UNL     1      -2.941   6.358  -2.788  0.00  0.00    +0.282 C 
ATOM     21  O   UNL     1      -2.622   6.470  -3.957  0.00  0.00    -0.267 OA
BRANCH  20  22
ATOM     22  C   UNL     1      -4.140   7.038  -2.286  0.00  0.00    +0.189 A 
ATOM     23  C   UNL     1      -5.049   7.722  -3.041  0.00  0.00    +0.054 A 
ATOM     24  C   UNL     1      -6.026   8.204  -2.156  0.00  0.00    +0.042 A 
ATOM     25  C   UNL     1      -5.675   7.798  -0.916  0.00  0.00    +0.196 A 
ATOM     26  O   UNL     1      -4.540   7.091  -0.999  0.00  0.00    -0.458 OA
ENDBRANCH  20  22
ENDBRANCH   1  14
BRANCH   1  27
ATOM     27  C   UNL     1       0.096   1.416  -0.316  0.00  0.00    -0.024 A 
ATOM     28  C   UNL     1       0.209   0.095  -0.710  0.00  0.00    +0.005 A 
ATOM     29  C   UNL     1       1.453  -0.441  -0.984  0.00  0.00    +0.001 A 
ATOM     30  C   UNL     1       2.585   0.344  -0.865  0.00  0.00    +0.015 A 
ATOM     31  C   UNL     1       2.473   1.665  -0.471  0.00  0.00    +0.018 A 
ATOM     32  C   UNL     1       1.227   2.201  -0.197  0.00  0.00    +0.020 A 
ATOM     33 BR   UNL     1       4.021   2.738  -0.308  0.00  0.00    -0.050 Br
ENDBRANCH   1  27
TORSDOF 6
