REMARK  Name = ZINC04249136
REMARK  4 active torsions:
REMARK  status: ('A' for Active; 'I' for Inactive)
REMARK    1  A    between atoms: C_3  and  S_6
REMARK    2  A    between atoms: S_6  and  N_9
REMARK    3  A    between atoms: N_9  and  C_10
REMARK    4  A    between atoms: C_13  and  C_16
REMARK                            x       y       z     vdW  Elec       q    Type
REMARK                         _______ _______ _______ _____ _____    ______ ____
ROOT
ATOM      1  C   UNL     1       1.882   9.601   0.069  0.00  0.00    +0.048 A 
ATOM      2  C   UNL     1       0.579   9.117   0.049  0.00  0.00    +0.025 A 
ATOM      3  C   UNL     1       0.347   7.758   0.079  0.00  0.00    +0.012 A 
ATOM      4  C   UNL     1       1.420   6.869   0.128  0.00  0.00    +0.002 A 
ATOM      5  C   UNL     1       2.725   7.357   0.153  0.00  0.00    +0.012 A 
ATOM      6  C   UNL     1       2.953   8.716   0.118  0.00  0.00    +0.025 A 
ENDROOT
BRANCH   4   7
ATOM      7  C   UNL     1       1.172   5.407   0.160  0.00  0.00    +0.090 A 
ATOM      8  C   UNL     1       2.121   4.440   0.208  0.00  0.00    +0.121 A 
ATOM      9  N   UNL     1       1.469   3.211   0.224  0.00  0.00    -0.300 N 
ATOM     10  C   UNL     1       1.801   1.875   0.266  0.00  0.00    +0.100 A 
ATOM     11  C   UNL     1       0.855   0.936   0.268  0.00  0.00    +0.067 A 
ATOM     12  S   UNL     1      -0.637   1.915   0.199  0.00  0.00    -0.058 S 
ATOM     13  C   UNL     1       0.133   3.518   0.184  0.00  0.00    +0.178 A 
ATOM     14  N   UNL     1      -0.036   4.807   0.146  0.00  0.00    -0.221 NA
ENDBRANCH   4   7
BRANCH   1  15
ATOM     15  N   UNL     1       2.115  10.977   0.038  0.00  0.00    -0.216 N 
ATOM     16  H   UNL     1       2.428  11.398  -0.778  0.00  0.00    +0.174 HD
BRANCH  15  17
ATOM     17  S   UNL     1       1.856  11.891   1.395  0.00  0.00    +0.079 S 
ATOM     18  O   UNL     1       2.221  13.224   1.062  0.00  0.00    -0.149 OA
ATOM     19  O   UNL     1       0.561  11.553   1.871  0.00  0.00    -0.149 OA
BRANCH  17  22
ATOM     20  C   UNL     1       4.956  11.247   3.934  0.00  0.00    +0.010 A 
ATOM     21  C   UNL     1       4.224  11.843   2.925  0.00  0.00    +0.036 A 
ATOM     22  C   UNL     1       3.001  11.345   2.617  0.00  0.00    +0.146 A 
ATOM     23  S   UNL     1       2.849   9.997   3.777  0.00  0.00    -0.077 S 
ATOM     24  C   UNL     1       4.429  10.182   4.587  0.00  0.00    +0.047 A 
ENDBRANCH  17  22
ENDBRANCH  15  17
ENDBRANCH   1  15
TORSDOF 4
