REMARK  Name = ZINC22323901
REMARK  12 active torsions:
REMARK  status: ('A' for Active; 'I' for Inactive)
REMARK    1  A    between atoms: C_1  and  C_2
REMARK    2  A    between atoms: C_2  and  C_3
REMARK    3  A    between atoms: C_3  and  C_5
REMARK    4  A    between atoms: C_3  and  N_15
REMARK    5  A    between atoms: C_8  and  S_11
REMARK    6  A    between atoms: S_11  and  C_14
REMARK    7  A    between atoms: C_16  and  C_18
REMARK    8  A    between atoms: C_18  and  N_19
REMARK    9  A    between atoms: N_19  and  C_20
REMARK   10  A    between atoms: N_19  and  S_27
REMARK   11  A    between atoms: S_27  and  C_30
REMARK   12  A    between atoms: C_33  and  C_36
REMARK                            x       y       z     vdW  Elec       q    Type
REMARK                         _______ _______ _______ _____ _____    ______ ____
ROOT
ATOM      1  C   UNL     1      -0.898   4.237   8.319  0.00  0.00    +0.227 C 
ENDROOT
BRANCH   1   3
ATOM      2  N   UNL     1      -1.724   3.566   6.085  0.00  0.00    -0.307 N 
ATOM      3  C   UNL     1      -1.892   3.543   7.423  0.00  0.00    +0.233 C 
ATOM      4  O   UNL     1      -2.842   2.964   7.905  0.00  0.00    -0.274 OA
ATOM      5  H   UNL     1      -0.862   4.091   5.648  0.00  0.00    +0.149 HD
BRANCH   2   6
ATOM      6  C   UNL     1      -2.690   2.891   5.215  0.00  0.00    +0.103 C 
BRANCH   6   7
ATOM      7  C   UNL     1      -2.022   2.523   3.915  0.00  0.00    -0.027 A 
ATOM      8  C   UNL     1      -2.295   1.306   3.318  0.00  0.00    +0.007 A 
ATOM      9  C   UNL     1      -1.683   0.968   2.126  0.00  0.00    +0.027 A 
ATOM     10  C   UNL     1      -0.798   1.847   1.530  0.00  0.00    +0.088 A 
ATOM     11  C   UNL     1      -0.521   3.062   2.129  0.00  0.00    +0.027 A 
ATOM     12  C   UNL     1      -1.137   3.402   3.319  0.00  0.00    +0.007 A 
BRANCH  10  13
ATOM     13  S   UNL     1      -0.017   1.417   0.010  0.00  0.00    -0.006 S 
ATOM     14  O   UNL     1       0.002  -0.004   0.002  0.00  0.00    -0.170 OA
ATOM     15  O   UNL     1       1.195   2.158   0.002  0.00  0.00    -0.170 OA
ATOM     16  C   UNL     1      -1.135   2.034  -1.279  0.00  0.00    +0.200 C 
ENDBRANCH  10  13
ENDBRANCH   6   7
BRANCH   6  18
ATOM     17  C   UNL     1      -4.620   4.103   6.239  0.00  0.00    +0.006 C 
ATOM     18  C   UNL     1      -3.867   3.828   4.936  0.00  0.00    +0.024 C 
ENDBRANCH   6  18
ENDBRANCH   2   6
ENDBRANCH   1   3
BRANCH   1  19
ATOM     19  N   UNL     1      -1.301   4.068   9.717  0.00  0.00    -0.191 N 
BRANCH  19  20
ATOM     20  C   UNL     1      -2.227   4.945  10.289  0.00  0.00    +0.087 A 
ATOM     21  C   UNL     1      -3.588   4.718  10.135  0.00  0.00    +0.027 A 
ATOM     22  C   UNL     1      -4.501   5.584  10.704  0.00  0.00    +0.002 A 
ATOM     23  C   UNL     1      -4.062   6.682  11.421  0.00  0.00    +0.003 A 
ATOM     24  C   UNL     1      -2.707   6.916  11.574  0.00  0.00    +0.040 A 
ATOM     25  C   UNL     1      -1.788   6.051  11.010  0.00  0.00    +0.146 A 
ATOM     26  F   UNL     1      -0.464   6.279  11.158  0.00  0.00    -0.203 F 
ENDBRANCH  19  20
BRANCH  19  27
ATOM     27  S   UNL     1      -0.658   2.837  10.620  0.00  0.00    +0.075 S 
ATOM     28  O   UNL     1      -1.585   2.573  11.664  0.00  0.00    -0.150 OA
ATOM     29  O   UNL     1      -0.237   1.837   9.703  0.00  0.00    -0.150 OA
BRANCH  27  30
ATOM     30  C   UNL     1       0.800   3.462  11.388  0.00  0.00    +0.109 A 
ATOM     31  C   UNL     1       2.021   3.348  10.749  0.00  0.00    +0.029 A 
ATOM     32  C   UNL     1       3.164   3.841  11.349  0.00  0.00    +0.005 A 
ATOM     33  C   UNL     1       3.088   4.440  12.593  0.00  0.00    -0.050 A 
ATOM     34  C   UNL     1       1.868   4.549  13.234  0.00  0.00    +0.005 A 
ATOM     35  C   UNL     1       0.725   4.060  12.632  0.00  0.00    +0.029 A 
ATOM     36  C   UNL     1       4.335   4.973  13.249  0.00  0.00    +0.044 C 
ENDBRANCH  27  30
ENDBRANCH  19  27
ENDBRANCH   1  19
TORSDOF 9
