REMARK  Name = ZINC47137850
REMARK  8 active torsions:
REMARK  status: ('A' for Active; 'I' for Inactive)
REMARK    1  A    between atoms: C_1  and  O_2
REMARK    2  A    between atoms: O_2  and  C_3
REMARK    3  A    between atoms: C_5  and  C_10
REMARK    4  A    between atoms: C_8  and  O_9
REMARK    5  A    between atoms: N_14  and  C_27
REMARK    6  A    between atoms: N_16  and  N_17
REMARK    7  A    between atoms: C_18  and  C_19
REMARK    8  A    between atoms: C_27  and  C_28
REMARK                            x       y       z     vdW  Elec       q    Type
REMARK                         _______ _______ _______ _____ _____    ______ ____
ROOT
ATOM      1  C   UNL     1       2.631   0.316  -4.041  0.00  0.00    +0.028 C 
ATOM      2  C   UNL     1       3.279  -0.284  -5.073  0.00  0.00    +0.078 C 
ATOM      3  C   UNL     1       4.029   0.325  -6.188  0.00  0.00    +0.259 C 
ATOM      4  O   UNL     1       4.144   1.533  -6.292  0.00  0.00    -0.269 OA
ATOM      5  N   UNL     1       4.569  -0.499  -7.068  0.00  0.00    -0.237 N 
ATOM      6  C   UNL     1       4.427  -1.863  -6.933  0.00  0.00    +0.190 C 
ATOM      7  N   UNL     1       4.897  -2.817  -7.713  0.00  0.00    -0.126 NA
ATOM      8  S   UNL     1       3.459  -2.023  -5.442  0.00  0.00    -0.047 S 
ENDROOT
BRANCH   1  11
ATOM      9  C   UNL     1       0.478  -0.662  -1.129  0.00  0.00    +0.162 A 
ATOM     10  C   UNL     1       1.265   0.094  -1.975  0.00  0.00    +0.057 A 
ATOM     11  C   UNL     1       1.793  -0.483  -3.137  0.00  0.00    -0.020 A 
ATOM     12  C   UNL     1       1.520  -1.824  -3.434  0.00  0.00    +0.012 A 
ATOM     13  C   UNL     1       0.733  -2.570  -2.584  0.00  0.00    +0.050 A 
ATOM     14  C   UNL     1       0.215  -1.998  -1.430  0.00  0.00    +0.158 A 
BRANCH   9  16
ATOM     15  C   UNL     1       0.274   1.268   0.245  0.00  0.00    +0.277 C 
ATOM     16  O   UNL     1      -0.036  -0.105  -0.000  0.00  0.00    -0.491 OA
ENDBRANCH   9  16
BRANCH  14  17
ATOM     17  O   UNL     1      -0.556  -2.741  -0.593  0.00  0.00    -0.503 OA
ATOM     18  H   UNL     1      -1.500  -2.713  -0.799  0.00  0.00    +0.292 HD
ENDBRANCH  14  17
ENDBRANCH   1  11
BRANCH   7  19
ATOM     19  N   UNL     1       5.590  -2.514  -8.758  0.00  0.00    -0.155 NA
ATOM     20  C   UNL     1       6.055  -3.460  -9.530  0.00  0.00    +0.143 C 
BRANCH  20  21
ATOM     21  C   UNL     1       5.721  -4.865  -9.254  0.00  0.00    -0.005 A 
ATOM     22  C   UNL     1       6.182  -5.877 -10.103  0.00  0.00    +0.011 A 
ATOM     23  C   UNL     1       5.865  -7.192  -9.838  0.00  0.00    +0.020 A 
ATOM     24  C   UNL     1       5.091  -7.513  -8.735  0.00  0.00    +0.041 A 
ATOM     25  C   UNL     1       4.631  -6.517  -7.890  0.00  0.00    +0.020 A 
ATOM     26  C   UNL     1       4.945  -5.198  -8.138  0.00  0.00    +0.011 A 
ATOM     27 CL   UNL     1       4.696  -9.172  -8.410  0.00  0.00    -0.084 Cl
ENDBRANCH  20  21
ENDBRANCH   7  19
BRANCH   5  28
ATOM     28  C   UNL     1       5.327   0.042  -8.199  0.00  0.00    +0.190 C 
BRANCH  28  29
ATOM     29  C   UNL     1       6.777   0.181  -7.812  0.00  0.00    +0.123 A 
ATOM     30  C   UNL     1       7.727  -0.758  -7.971  0.00  0.00    +0.046 A 
ATOM     31  C   UNL     1       8.932  -0.209  -7.476  0.00  0.00    +0.041 A 
ATOM     32  C   UNL     1       8.646   1.032  -7.043  0.00  0.00    +0.195 A 
ATOM     33  O   UNL     1       7.341   1.265  -7.255  0.00  0.00    -0.466 OA
ENDBRANCH  28  29
ENDBRANCH   5  28
TORSDOF 7
