REMARK  Name = ZINC01243885
REMARK  11 active torsions:
REMARK  status: ('A' for Active; 'I' for Inactive)
REMARK    1  A    between atoms: C_1  and  C_2
REMARK    2  A    between atoms: C_3  and  C_28
REMARK    3  A    between atoms: C_4  and  C_23
REMARK    4  A    between atoms: C_6  and  C_21
REMARK    5  A    between atoms: C_7  and  S_9
REMARK    6  A    between atoms: S_9  and  C_10
REMARK    7  A    between atoms: C_10  and  C_11
REMARK    8  A    between atoms: N_13  and  C_14
REMARK    9  A    between atoms: N_30  and  C_31
REMARK   10  A    between atoms: C_36  and  O_37
REMARK   11  A    between atoms: O_37  and  C_38
REMARK                            x       y       z     vdW  Elec       q    Type
REMARK                         _______ _______ _______ _____ _____    ______ ____
ROOT
ATOM      1  C   UNL     1       0.571   2.580   0.654  0.00  0.00    +0.061 C 
ATOM      2  C   UNL     1       0.507   1.092   0.421  0.00  0.00    +0.015 C 
ATOM      3  C   UNL     1      -0.676   0.516   0.155  0.00  0.00    +0.047 C 
ATOM      4  C   UNL     1      -0.797  -0.960  -0.094  0.00  0.00    +0.134 C 
ATOM      5  C   UNL     1       0.433  -1.684   0.376  0.00  0.00    +0.072 C 
ATOM      6  C   UNL     1       1.588  -1.016   0.638  0.00  0.00    +0.080 C 
ATOM      7  N   UNL     1       1.655   0.351   0.479  0.00  0.00    -0.312 N 
ATOM      8  H   UNL     1       2.518   0.790   0.412  0.00  0.00    +0.152 HD
ENDROOT
BRANCH   4   9
ATOM      9  C   UNL     1      -1.997  -1.492   0.646  0.00  0.00    +0.118 A 
ATOM     10  C   UNL     1      -3.017  -2.179   0.101  0.00  0.00    +0.045 A 
ATOM     11  C   UNL     1      -3.917  -2.478   1.150  0.00  0.00    +0.041 A 
ATOM     12  C   UNL     1      -3.393  -1.954   2.273  0.00  0.00    +0.195 A 
ATOM     13  O   UNL     1      -2.228  -1.363   1.963  0.00  0.00    -0.467 OA
ENDBRANCH   4   9
BRANCH   3  14
ATOM     14  C   UNL     1      -1.840   1.320   0.108  0.00  0.00    +0.247 C 
ATOM     15  O   UNL     1      -2.296   1.670  -0.966  0.00  0.00    -0.270 OA
ATOM     16  N   UNL     1      -2.444   1.698   1.252  0.00  0.00    -0.279 N 
ATOM     17  H   UNL     1      -2.044   1.478   2.108  0.00  0.00    +0.155 HD
BRANCH  16  18
ATOM     18  C   UNL     1      -3.649   2.411   1.205  0.00  0.00    +0.076 A 
ATOM     19  C   UNL     1      -4.433   2.377   0.061  0.00  0.00    +0.027 A 
ATOM     20  C   UNL     1      -5.622   3.080   0.018  0.00  0.00    +0.002 A 
ATOM     21  C   UNL     1      -6.033   3.819   1.112  0.00  0.00    +0.004 A 
ATOM     22  C   UNL     1      -5.257   3.857   2.256  0.00  0.00    +0.047 A 
ATOM     23  C   UNL     1      -4.067   3.150   2.310  0.00  0.00    +0.141 A 
BRANCH  23  24
ATOM     24  O   UNL     1      -3.305   3.183   3.436  0.00  0.00    -0.493 OA
ATOM     25  C   UNL     1      -3.796   3.962   4.529  0.00  0.00    +0.277 C 
ENDBRANCH  23  24
ENDBRANCH  16  18
ENDBRANCH   3  14
BRANCH   5  26
ATOM     26  C   UNL     1       0.387  -3.105   0.553  0.00  0.00    +0.098 C 
ATOM     27  N   UNL     1       0.351  -4.231   0.693  0.00  0.00    -0.191 NA
ENDBRANCH   5  26
BRANCH   6  28
ATOM     28  S   UNL     1       3.010  -1.906   1.178  0.00  0.00    -0.100 S 
BRANCH  28  29
ATOM     29  C   UNL     1       4.274  -0.623   1.393  0.00  0.00    +0.171 C 
BRANCH  29  30
ATOM     30  C   UNL     1       5.559  -1.258   1.860  0.00  0.00    +0.227 C 
ATOM     31  O   UNL     1       5.616  -2.458   2.030  0.00  0.00    -0.275 OA
ATOM     32  N   UNL     1       6.645  -0.493   2.088  0.00  0.00    -0.285 N 
ATOM     33  H   UNL     1       6.580   0.473   2.023  0.00  0.00    +0.155 HD
BRANCH  32  34
ATOM     34  C   UNL     1       7.866  -1.091   2.418  0.00  0.00    +0.034 A 
ATOM     35  C   UNL     1       8.767  -0.427   3.240  0.00  0.00    +0.023 A 
ATOM     36  C   UNL     1       9.971  -1.020   3.565  0.00  0.00    +0.003 A 
ATOM     37  C   UNL     1      10.281  -2.274   3.071  0.00  0.00    +0.015 A 
ATOM     38  C   UNL     1       9.387  -2.938   2.251  0.00  0.00    +0.020 A 
ATOM     39  C   UNL     1       8.177  -2.353   1.929  0.00  0.00    +0.038 A 
ATOM     40 BR   UNL     1       9.816  -4.653   1.579  0.00  0.00    -0.050 Br
ENDBRANCH  32  34
ENDBRANCH  29  30
ENDBRANCH  28  29
ENDBRANCH   6  28
TORSDOF 9
