REMARK  Name = ZINC18028635
REMARK  13 active torsions:
REMARK  status: ('A' for Active; 'I' for Inactive)
REMARK    1  A    between atoms: C_1  and  C_2
REMARK    2  A    between atoms: C_4  and  C_34
REMARK    3  A    between atoms: C_5  and  C_33
REMARK    4  A    between atoms: C_6  and  S_9
REMARK    5  A    between atoms: C_7  and  C_8
REMARK    6  A    between atoms: S_9  and  N_12
REMARK    7  A    between atoms: N_15  and  C_18
REMARK    8  A    between atoms: C_18  and  C_19
REMARK    9  A    between atoms: C_19  and  C_21
REMARK   10  A    between atoms: C_19  and  O_32
REMARK   11  A    between atoms: C_21  and  O_22
REMARK   12  A    between atoms: O_22  and  C_23
REMARK   13  A    between atoms: C_27  and  N_29
REMARK                            x       y       z     vdW  Elec       q    Type
REMARK                         _______ _______ _______ _____ _____    ______ ____
ROOT
ATOM      1  N   UNL     1      -1.192  -0.198  -4.566  0.00  0.00    -0.174 NA
ATOM      2  C   UNL     1       0.001   0.614  -4.851  0.00  0.00    +0.125 C 
ATOM      3  C   UNL     1       1.195  -0.000  -4.113  0.00  0.00    +0.101 C 
ATOM      4  N   UNL     1       0.866  -0.142  -2.689  0.00  0.00    -0.297 NA
ATOM      5  C   UNL     1      -0.256  -1.069  -2.491  0.00  0.00    +0.101 C 
ATOM      6  C   UNL     1      -1.510  -0.499  -3.162  0.00  0.00    +0.125 C 
ENDROOT
BRANCH   1   7
ATOM      7  S   UNL     1      -2.152  -0.758  -5.794  0.00  0.00    +0.061 S 
ATOM      8  O   UNL     1      -3.467  -0.862  -5.266  0.00  0.00    -0.153 OA
ATOM      9  O   UNL     1      -1.850   0.029  -6.938  0.00  0.00    -0.153 OA
BRANCH   7  15
ATOM     10  C   UNL     1      -2.725  -5.943  -5.462  0.00  0.00    +0.044 C 
ATOM     11  C   UNL     1      -1.935  -4.766  -5.975  0.00  0.00    -0.045 A 
ATOM     12  C   UNL     1      -0.797  -4.975  -6.731  0.00  0.00    +0.007 A 
ATOM     13  C   UNL     1      -0.073  -3.895  -7.202  0.00  0.00    -0.045 A 
ATOM     14  C   UNL     1      -0.486  -2.608  -6.915  0.00  0.00    -0.021 A 
ATOM     15  C   UNL     1      -1.625  -2.399  -6.159  0.00  0.00    +0.112 A 
ATOM     16  C   UNL     1      -2.346  -3.479  -5.685  0.00  0.00    -0.021 A 
ATOM     17  C   UNL     1      -3.584  -3.252  -4.855  0.00  0.00    +0.046 C 
ATOM     18  C   UNL     1       0.303  -1.431  -7.428  0.00  0.00    +0.046 C 
ATOM     19  C   UNL     1       1.168  -4.122  -8.027  0.00  0.00    +0.044 C 
ENDBRANCH   7  15
ENDBRANCH   1   7
BRANCH   4  20
ATOM     20  C   UNL     1       2.042  -0.566  -1.917  0.00  0.00    +0.119 C 
BRANCH  20  21
ATOM     21  C   UNL     1       1.734  -0.464  -0.421  0.00  0.00    +0.166 C 
BRANCH  21  22
ATOM     22  O   UNL     1       1.412   0.889  -0.093  0.00  0.00    -0.387 OA
ATOM     23  H   UNL     1       1.161   1.159   0.943  0.00  0.00    +0.210 HD
ENDBRANCH  21  22
BRANCH  21  24
ATOM     24  C   UNL     1       2.959  -0.905   0.383  0.00  0.00    +0.261 C 
BRANCH  24  25
ATOM     25  O   UNL     1       2.635  -0.921   1.774  0.00  0.00    -0.489 OA
BRANCH  25  26
ATOM     26  C   UNL     1       3.619  -1.294   2.633  0.00  0.00    +0.123 A 
ATOM     27  C   UNL     1       4.872  -1.638   2.146  0.00  0.00    +0.046 A 
ATOM     28  C   UNL     1       5.872  -2.016   3.022  0.00  0.00    +0.006 A 
ATOM     29  C   UNL     1       5.625  -2.051   4.382  0.00  0.00    +0.033 A 
ATOM     30  C   UNL     1       4.377  -1.709   4.869  0.00  0.00    +0.130 A 
ATOM     31  C   UNL     1       3.376  -1.325   3.998  0.00  0.00    +0.078 A 
BRANCH  30  32
ATOM     32  N   UNL     1       4.116  -1.748   6.325  0.00  0.00    +0.057 N 
ATOM     33  O   UNL     1       5.000  -2.082   7.094  0.00  0.00    -0.126 OA
ATOM     34  O   UNL     1       3.018  -1.446   6.755  0.00  0.00    -0.126 OA
ENDBRANCH  30  32
ENDBRANCH  25  26
ENDBRANCH  24  25
ENDBRANCH  21  24
ENDBRANCH  20  21
ENDBRANCH   4  20
TORSDOF 9
