REMARK  Name = ZINC12304403
REMARK  6 active torsions:
REMARK  status: ('A' for Active; 'I' for Inactive)
REMARK    1  A    between atoms: C_1  and  N_2
REMARK    2  A    between atoms: C_6  and  S_7
REMARK    3  A    between atoms: S_7  and  C_8
REMARK    4  A    between atoms: C_11  and  C_13
REMARK    5  A    between atoms: C_13  and  N_61
REMARK    6  A    between atoms: C_26  and  C_28
REMARK                            x       y       z     vdW  Elec       q    Type
REMARK                         _______ _______ _______ _____ _____    ______ ____
ROOT
ATOM      1  C   UNL     1      -2.497   7.078   1.113  0.00  0.00    -0.073 C 
ATOM      2  C   UNL     1      -3.487   7.402  -0.014  0.00  0.00    +0.019 C 
ATOM      3  C   UNL     1      -3.048   6.655  -1.249  0.00  0.00    -0.022 A 
ATOM      4  C   UNL     1      -3.442   6.849  -2.626  0.00  0.00    +0.003 A 
ATOM      5  C   UNL     1      -4.318   7.744  -3.248  0.00  0.00    +0.010 A 
ATOM      6  C   UNL     1      -4.452   7.638  -4.610  0.00  0.00    +0.001 A 
ATOM      7  C   UNL     1      -3.757   6.692  -5.347  0.00  0.00    +0.002 A 
ATOM      8  C   UNL     1      -2.884   5.794  -4.758  0.00  0.00    +0.026 A 
ATOM      9  C   UNL     1      -2.728   5.878  -3.376  0.00  0.00    +0.047 A 
ATOM     10  N   UNL     1      -1.966   5.163  -2.497  0.00  0.00    -0.359 N 
ATOM     11  H   UNL     1      -1.374   4.433  -2.736  0.00  0.00    +0.166 HD
ATOM     12  C   UNL     1      -2.164   5.631  -1.226  0.00  0.00    +0.007 A 
ATOM     13  C   UNL     1      -1.523   5.125   0.044  0.00  0.00    -0.017 C 
ATOM     14  N   UNL     1      -2.329   5.609   1.190  0.00  0.00    +0.390 N 
ATOM     15  H   UNL     1      -3.255   5.167   1.156  0.00  0.00    -0.080 HD
ENDROOT
BRANCH  13  16
ATOM     16  C   UNL     1      -1.525   3.595   0.047  0.00  0.00    -0.019 C 
ATOM     17  C   UNL     1      -2.916   3.087  -0.339  0.00  0.00    +0.002 C 
ATOM     18  C   UNL     1      -2.918   1.557  -0.336  0.00  0.00    +0.000 C 
ATOM     19  C   UNL     1      -1.889   1.043  -1.345  0.00  0.00    +0.000 C 
ATOM     20  C   UNL     1      -0.498   1.552  -0.959  0.00  0.00    +0.000 C 
ATOM     21  C   UNL     1      -0.496   3.082  -0.962  0.00  0.00    +0.002 C 
ENDBRANCH  13  16
BRANCH  14  22
ATOM     22  C   UNL     1      -1.669   5.244   2.461  0.00  0.00    -0.002 C 
BRANCH  22  26
ATOM     23  C   UNL     1      -3.082   7.274   5.150  0.00  0.00    +0.169 A 
ATOM     24  C   UNL     1      -3.889   6.191   5.246  0.00  0.00    +0.057 A 
ATOM     25  C   UNL     1      -3.470   5.280   4.250  0.00  0.00    +0.044 A 
ATOM     26  C   UNL     1      -2.438   5.852   3.605  0.00  0.00    +0.090 A 
ATOM     27  O   UNL     1      -2.202   7.057   4.157  0.00  0.00    -0.455 OA
BRANCH  23  28
ATOM     28  S   UNL     1      -3.165   8.716   6.159  0.00  0.00    -0.012 S 
BRANCH  28  34
ATOM     29  C   UNL     1      -1.996  11.711   6.936  0.00  0.00    +0.152 C 
ATOM     30  N   UNL     1      -1.432  10.893   5.859  0.00  0.00    -0.311 N 
ATOM     31  C   UNL     1      -0.386  11.214   5.040  0.00  0.00    +0.225 A 
ATOM     32  N   UNL     1      -0.209  10.213   4.225  0.00  0.00    -0.137 NA
ATOM     33  N   UNL     1      -1.064   9.286   4.474  0.00  0.00    -0.122 NA
ATOM     34  C   UNL     1      -1.843   9.652   5.465  0.00  0.00    +0.199 A 
ENDBRANCH  28  34
ENDBRANCH  23  28
ENDBRANCH  22  26
ENDBRANCH  14  22
TORSDOF 5
