REMARK  Name = ZINC35810250
REMARK  13 active torsions:
REMARK  status: ('A' for Active; 'I' for Inactive)
REMARK    1  A    between atoms: C_1  and  C_2
REMARK    2  A    between atoms: C_6  and  C_8
REMARK    3  A    between atoms: C_8  and  N_9
REMARK    4  A    between atoms: C_11  and  C_24
REMARK    5  A    between atoms: C_13  and  C_16
REMARK    6  A    between atoms: C_20  and  O_22
REMARK    7  A    between atoms: O_22  and  C_23
REMARK    8  A    between atoms: C_24  and  N_25
REMARK    9  A    between atoms: N_25  and  C_26
REMARK   10  A    between atoms: C_26  and  C_27
REMARK   11  A    between atoms: C_27  and  C_28
REMARK   12  A    between atoms: C_27  and  C_29
REMARK   13  A    between atoms: C_30  and  C_32
REMARK                            x       y       z     vdW  Elec       q    Type
REMARK                         _______ _______ _______ _____ _____    ______ ____
ROOT
ATOM      1  N   UNL     1       1.900  -2.525   3.153  0.00  0.00    +0.383 N 
ATOM      2  C   UNL     1       1.788  -3.311   4.408  0.00  0.00    -0.073 C 
ATOM      3  C   UNL     1       3.124  -4.094   4.458  0.00  0.00    -0.005 C 
ATOM      4  C   UNL     1       3.373  -4.447   2.973  0.00  0.00    +0.005 C 
ATOM      5  C   UNL     1       2.549  -3.422   2.172  0.00  0.00    -0.070 C 
ATOM      6  H   UNL     1       2.469  -1.706   3.305  0.00  0.00    -0.081 HD
ENDROOT
BRANCH   4   7
ATOM      7  C   UNL     1       4.837  -4.317   2.643  0.00  0.00    -0.042 A 
ATOM      8  C   UNL     1       5.476  -3.100   2.800  0.00  0.00    +0.004 A 
ATOM      9  C   UNL     1       6.819  -2.977   2.498  0.00  0.00    +0.004 A 
ATOM     10  C   UNL     1       7.527  -4.071   2.038  0.00  0.00    +0.045 A 
ATOM     11  C   UNL     1       6.889  -5.292   1.879  0.00  0.00    +0.120 A 
ATOM     12  C   UNL     1       5.543  -5.414   2.188  0.00  0.00    +0.049 A 
BRANCH  11  13
ATOM     13  O   UNL     1       7.584  -6.369   1.425  0.00  0.00    -0.495 OA
ATOM     14  C   UNL     1       8.969  -6.171   1.132  0.00  0.00    +0.277 C 
ENDBRANCH  11  13
ENDBRANCH   4   7
BRANCH   1  15
ATOM     15  C   UNL     1       0.566  -2.135   2.679  0.00  0.00    -0.043 C 
BRANCH  15  21
ATOM     16  C   UNL     1       1.044   2.373   0.559  0.00  0.00    +0.044 C 
ATOM     17  C   UNL     1       0.930   0.876   0.430  0.00  0.00    -0.050 A 
ATOM     18  C   UNL     1       0.950   0.286  -0.820  0.00  0.00    +0.003 A 
ATOM     19  C   UNL     1       0.845  -1.087  -0.938  0.00  0.00    +0.000 A 
ATOM     20  C   UNL     1       0.721  -1.871   0.195  0.00  0.00    +0.002 A 
ATOM     21  C   UNL     1       0.702  -1.281   1.444  0.00  0.00    -0.064 A 
ATOM     22  C   UNL     1       0.811   0.092   1.563  0.00  0.00    +0.005 A 
ENDBRANCH  15  21
ENDBRANCH   1  15
BRANCH   3  23
ATOM     23  C   UNL     1       2.979  -5.361   5.303  0.00  0.00    +0.110 C 
BRANCH  23  24
ATOM     24  N   UNL     1       2.746  -4.991   6.701  0.00  0.00    -0.297 N 
ATOM     25  C   UNL     1       3.790  -4.825   7.537  0.00  0.00    +0.247 C 
ATOM     26  O   UNL     1       4.925  -4.972   7.129  0.00  0.00    -0.270 OA
BRANCH  25  27
ATOM     27  C   UNL     1       3.554  -4.462   8.951  0.00  0.00    +0.037 A 
ATOM     28  C   UNL     1       2.429  -4.946   9.620  0.00  0.00    +0.013 A 
ATOM     29  C   UNL     1       2.215  -4.605  10.940  0.00  0.00    +0.001 A 
ATOM     30  C   UNL     1       3.113  -3.784  11.599  0.00  0.00    +0.000 A 
ATOM     31  C   UNL     1       4.229  -3.300  10.941  0.00  0.00    +0.001 A 
ATOM     32  C   UNL     1       4.458  -3.639   9.623  0.00  0.00    +0.013 A 
ENDBRANCH  25  27
BRANCH  24  33
ATOM     33  C   UNL     1       1.378  -4.803   7.191  0.00  0.00    +0.111 C 
BRANCH  33  34
ATOM     34  C   UNL     1       0.758  -6.165   7.510  0.00  0.00    +0.000 C 
ATOM     35  C   UNL     1      -0.596  -5.962   8.192  0.00  0.00    +0.009 C 
ATOM     36  C   UNL     1       0.564  -6.954   6.214  0.00  0.00    +0.009 C 
ENDBRANCH  33  34
ENDBRANCH  24  33
ENDBRANCH  23  24
ENDBRANCH   3  23
TORSDOF 9
