REMARK  Name = ZINC20411425
REMARK  8 active torsions:
REMARK  status: ('A' for Active; 'I' for Inactive)
REMARK    1  A    between atoms: C_1  and  C_2
REMARK    2  A    between atoms: C_8  and  C_44
REMARK    3  A    between atoms: C_9  and  O_43
REMARK    4  A    between atoms: C_19  and  C_21
REMARK    5  A    between atoms: C_21  and  N_22
REMARK    6  A    between atoms: N_25  and  C_28
REMARK    7  A    between atoms: C_28  and  C_30
REMARK    8  A    between atoms: C_28  and  C_36
REMARK                            x       y       z     vdW  Elec       q    Type
REMARK                         _______ _______ _______ _____ _____    ______ ____
ROOT
ATOM      1  N   UNL     1       5.736  -4.099  -2.506  0.00  0.00    +0.382 N 
ATOM      2  C   UNL     1       7.112  -4.590  -2.347  0.00  0.00    -0.063 C 
ATOM      3  C   UNL     1       7.392  -5.665  -3.400  0.00  0.00    +0.067 C 
ATOM      4  N   UNL     1       7.189  -5.098  -4.741  0.00  0.00    -0.295 NA
ATOM      5  C   UNL     1       5.813  -4.607  -4.899  0.00  0.00    +0.067 C 
ATOM      6  C   UNL     1       5.534  -3.532  -3.847  0.00  0.00    -0.063 C 
ATOM      7  H   UNL     1       5.055  -4.955  -2.392  0.00  0.00    -0.082 HD
ENDROOT
BRANCH   1   8
ATOM      8  C   UNL     1       5.404  -3.118  -1.464  0.00  0.00    -0.064 C 
BRANCH   8  23
ATOM      9  C   UNL     1       3.325   2.127  -1.791  0.00  0.00    +0.008 C 
ATOM     10  C   UNL     1       2.012   1.434  -1.529  0.00  0.00    -0.001 C 
ATOM     11  C   UNL     1       1.359   2.024  -0.280  0.00  0.00    +0.008 C 
ATOM     12  C   UNL     1      -0.066   1.481  -0.212  0.00  0.00    +0.027 C 
ATOM     13  C   UNL     1      -0.024   0.008  -0.123  0.00  0.00    -0.027 C 
ATOM     14  C   UNL     1       0.953  -0.679  -0.681  0.00  0.00    -0.061 C 
ATOM     15  C   UNL     1       2.161  -0.109  -1.415  0.00  0.00    +0.018 C 
ATOM     16  C   UNL     1       3.407  -0.520  -0.891  0.00  0.00    +0.132 C 
ATOM     17  C   UNL     1       3.537  -1.908  -0.321  0.00  0.00    +0.071 C 
ATOM     18  C   UNL     1       2.263  -2.455   0.350  0.00  0.00    +0.187 C 
ATOM     19  C   UNL     1       1.054  -2.183  -0.434  0.00  0.00    +0.076 C 
ATOM     20  O   UNL     1       2.451  -3.958   0.231  0.00  0.00    -0.460 OA
ATOM     21  C   UNL     1       3.294  -4.315  -0.754  0.00  0.00    +0.309 C 
ATOM     22  O   UNL     1       3.598  -5.439  -1.175  0.00  0.00    -0.251 OA
ATOM     23  C   UNL     1       3.881  -2.997  -1.344  0.00  0.00    +0.090 C 
ATOM     24  C   UNL     1       1.972  -0.559  -2.902  0.00  0.00    +0.018 C 
BRANCH  16  25
ATOM     25  O   UNL     1       4.425  -0.386  -1.888  0.00  0.00    -0.391 OA
ATOM     26  H   UNL     1       5.464  -0.661  -1.654  0.00  0.00    +0.210 HD
ENDBRANCH  16  25
ENDBRANCH   8  23
ENDBRANCH   1   8
BRANCH   4  27
ATOM     27  C   UNL     1       7.522  -6.079  -5.783  0.00  0.00    +0.117 C 
BRANCH  27  28
ATOM     28  C   UNL     1       8.937  -6.559  -5.588  0.00  0.00    -0.026 A 
ATOM     29  C   UNL     1       9.926  -5.663  -5.226  0.00  0.00    +0.007 A 
ATOM     30  C   UNL     1      11.223  -6.104  -5.041  0.00  0.00    +0.020 A 
ATOM     31  C   UNL     1      11.534  -7.438  -5.231  0.00  0.00    +0.041 A 
ATOM     32  C   UNL     1      10.545  -8.333  -5.599  0.00  0.00    +0.020 A 
ATOM     33  C   UNL     1       9.247  -7.892  -5.777  0.00  0.00    +0.007 A 
ATOM     34 CL   UNL     1      13.164  -7.991  -5.006  0.00  0.00    -0.084 Cl
ENDBRANCH  27  28
BRANCH  27  35
ATOM     35  C   UNL     1       7.392  -5.435  -7.139  0.00  0.00    -0.026 A 
ATOM     36  C   UNL     1       7.817  -4.133  -7.330  0.00  0.00    +0.005 A 
ATOM     37  C   UNL     1       7.702  -3.544  -8.575  0.00  0.00    +0.000 A 
ATOM     38  C   UNL     1       7.153  -4.253  -9.627  0.00  0.00    +0.000 A 
ATOM     39  C   UNL     1       6.723  -5.553  -9.435  0.00  0.00    +0.000 A 
ATOM     40  C   UNL     1       6.843  -6.144  -8.191  0.00  0.00    +0.005 A 
ENDBRANCH  27  35
ENDBRANCH   4  27
TORSDOF 6
