REMARK  Name = ZINC38653242
REMARK  14 active torsions:
REMARK  status: ('A' for Active; 'I' for Inactive)
REMARK    1  A    between atoms: C_1  and  C_2
REMARK    2  A    between atoms: C_4  and  C_36
REMARK    3  A    between atoms: C_8  and  C_12
REMARK    4  A    between atoms: C_12  and  C_14
REMARK    5  A    between atoms: C_12  and  S_15
REMARK    6  A    between atoms: S_15  and  C_16
REMARK    7  A    between atoms: C_20  and  C_23
REMARK    8  A    between atoms: N_21  and  N_22
REMARK    9  A    between atoms: C_23  and  O_24
REMARK   10  A    between atoms: O_24  and  C_25
REMARK   11  A    between atoms: C_28  and  C_31
REMARK   12  A    between atoms: C_31  and  C_32
REMARK   13  A    between atoms: C_31  and  C_33
REMARK   14  A    between atoms: C_31  and  C_34
REMARK                            x       y       z     vdW  Elec       q    Type
REMARK                         _______ _______ _______ _____ _____    ______ ____
ROOT
ATOM      1  C   UNL     1      -4.043  -5.233   6.261  0.00  0.00    +0.252 C 
ATOM      2  N   UNL     1      -3.835  -4.265   7.353  0.00  0.00    -0.236 N 
ATOM      3  N   UNL     1      -2.706  -4.708   8.053  0.00  0.00    -0.169 NA
ATOM      4  C   UNL     1      -2.223  -5.780   7.542  0.00  0.00    +0.169 C 
ATOM      5  N   UNL     1      -2.953  -6.207   6.439  0.00  0.00    -0.222 N 
ATOM      6  H   UNL     1      -4.371  -3.481   7.547  0.00  0.00    +0.171 HD
ENDROOT
BRANCH   5   7
ATOM      7  N   UNL     1      -2.709  -7.310   5.671  0.00  0.00    -0.250 NA
ATOM      8  H   UNL     1      -1.900  -7.812   6.005  0.00  0.00    +0.141 HD
ATOM      9  H   UNL     1      -3.518  -7.912   5.635  0.00  0.00    +0.141 HD
ENDBRANCH   5   7
BRANCH   1  10
ATOM     10  S   UNL     1      -3.909  -4.414   4.649  0.00  0.00    -0.106 S 
BRANCH  10  11
ATOM     11  C   UNL     1      -2.262  -3.654   4.678  0.00  0.00    +0.112 C 
ATOM     12  C   UNL     1      -1.196  -4.750   4.737  0.00  0.00    +0.027 C 
BRANCH  11  19
ATOM     13  C   UNL     1      -0.019   1.526   0.010  0.00  0.00    +0.024 C 
ATOM     14  C   UNL     1       0.002  -0.004   0.002  0.00  0.00    +0.076 C 
ATOM     15  C   UNL     1      -1.399  -0.565   0.089  0.00  0.00    -0.045 C 
ATOM     16  C   UNL     1      -1.704  -1.321   1.155  0.00  0.00    +0.071 C 
ATOM     17  C   UNL     1      -0.645  -1.546   2.162  0.00  0.00    +0.111 C 
ATOM     18  N   UNL     1      -0.881  -2.276   3.226  0.00  0.00    -0.226 NA
ATOM     19  C   UNL     1      -2.066  -2.829   3.432  0.00  0.00    +0.136 C 
ATOM     20  N   UNL     1      -3.079  -2.698   2.609  0.00  0.00    -0.160 NA
ATOM     21  C   UNL     1      -3.005  -1.988   1.478  0.00  0.00    +0.271 C 
ATOM     22  O   UNL     1      -3.966  -1.886   0.735  0.00  0.00    -0.268 OA
ATOM     23  S   UNL     1       0.764  -0.661   1.541  0.00  0.00    -0.098 S 
ATOM     24  C   UNL     1      -2.419  -0.284  -0.984  0.00  0.00    +0.041 C 
ENDBRANCH  11  19
ENDBRANCH  10  11
ENDBRANCH   1  10
BRANCH   4  25
ATOM     25  C   UNL     1      -1.008  -6.495   8.076  0.00  0.00    +0.303 C 
BRANCH  25  26
ATOM     26  O   UNL     1      -0.504  -5.793   9.213  0.00  0.00    -0.484 OA
BRANCH  26  27
ATOM     27  C   UNL     1       0.598  -6.309   9.818  0.00  0.00    +0.121 A 
ATOM     28  C   UNL     1       1.185  -7.465   9.323  0.00  0.00    +0.046 A 
ATOM     29  C   UNL     1       2.306  -7.987   9.940  0.00  0.00    +0.008 A 
ATOM     30  C   UNL     1       2.842  -7.360  11.049  0.00  0.00    -0.042 A 
ATOM     31  C   UNL     1       2.258  -6.208  11.545  0.00  0.00    +0.008 A 
ATOM     32  C   UNL     1       1.141  -5.678  10.928  0.00  0.00    +0.046 A 
BRANCH  30  33
ATOM     33  C   UNL     1       4.064  -7.932  11.720  0.00  0.00    -0.013 C 
ATOM     34  C   UNL     1       5.222  -7.972  10.722  0.00  0.00    +0.015 C 
ATOM     35  C   UNL     1       4.449  -7.055  12.913  0.00  0.00    +0.015 C 
ATOM     36  C   UNL     1       3.761  -9.351  12.207  0.00  0.00    +0.015 C 
ENDBRANCH  30  33
ENDBRANCH  26  27
ENDBRANCH  25  26
ENDBRANCH   4  25
TORSDOF 8
