REMARK  Name = ZINC12659731
REMARK  8 active torsions:
REMARK  status: ('A' for Active; 'I' for Inactive)
REMARK    1  A    between atoms: C_1  and  C_2
REMARK    2  A    between atoms: C_18  and  C_20
REMARK    3  A    between atoms: C_20  and  N_65
REMARK    4  A    between atoms: C_21  and  C_22
REMARK    5  A    between atoms: C_21  and  N_65
REMARK    6  A    between atoms: C_22  and  C_23
REMARK    7  A    between atoms: C_30  and  O_33
REMARK    8  A    between atoms: O_33  and  C_34
REMARK                            x       y       z     vdW  Elec       q    Type
REMARK                         _______ _______ _______ _____ _____    ______ ____
ROOT
ATOM      1  C   UNL     1      -3.170   4.194  -1.867  0.00  0.00    -0.068 C 
ENDROOT
BRANCH   1  16
ATOM      2  C   UNL     1      -2.148   1.050   1.310  0.00  0.00    +0.011 C 
ATOM      3  C   UNL     1      -0.709   1.569   1.280  0.00  0.00    -0.023 C 
ATOM      4  C   UNL     1       0.059   1.079   2.508  0.00  0.00    +0.007 C 
ATOM      5  C   UNL     1      -0.654   1.536   3.782  0.00  0.00    +0.003 C 
ATOM      6  C   UNL     1      -0.658   3.066   3.845  0.00  0.00    +0.037 C 
ATOM      7  C   UNL     1      -1.363   3.571   2.589  0.00  0.00    +0.096 C 
ATOM      8  C   UNL     1      -0.750   3.083   1.276  0.00  0.00    +0.030 C 
ATOM      9  C   UNL     1      -1.609   3.540   0.099  0.00  0.00    +0.014 C 
ATOM     10  C   UNL     1      -0.992   3.094  -1.228  0.00  0.00    +0.042 C 
ATOM     11  C   UNL     1      -0.724   1.576  -1.229  0.00  0.00    +0.181 C 
ATOM     12  C   UNL     1      -0.013   1.086   0.008  0.00  0.00    +0.052 C 
ATOM     13  O   UNL     1      -2.058   1.015  -1.389  0.00  0.00    -0.461 OA
ATOM     14  C   UNL     1      -2.702   1.774  -2.303  0.00  0.00    +0.309 C 
ATOM     15  O   UNL     1      -3.603   1.398  -3.015  0.00  0.00    -0.251 OA
ATOM     16  C   UNL     1      -2.114   3.172  -2.294  0.00  0.00    +0.087 C 
ATOM     17  C   UNL     1      -2.866   3.843   2.621  0.00  0.00    +0.196 C 
ATOM     18  O   UNL     1      -1.896   4.893   2.629  0.00  0.00    -0.368 OA
ENDBRANCH   1  16
BRANCH   1  19
ATOM     19  N   UNL     1      -4.222   4.261  -2.898  0.00  0.00    +0.380 N 
ATOM     20  H   UNL     1      -4.655   3.336  -3.001  0.00  0.00    -0.086 HD
ATOM     21  H   UNL     1      -3.804   4.545  -3.791  0.00  0.00    -0.086 HD
BRANCH  19  22
ATOM     22  C   UNL     1      -5.256   5.241  -2.511  0.00  0.00    -0.078 C 
BRANCH  22  23
ATOM     23  C   UNL     1      -6.332   5.289  -3.598  0.00  0.00    +0.018 C 
BRANCH  23  24
ATOM     24  C   UNL     1      -7.392   6.287  -3.211  0.00  0.00    -0.024 A 
ATOM     25  C   UNL     1      -8.546   6.022  -2.578  0.00  0.00    +0.087 A 
ATOM     26  N   UNL     1      -9.255   7.178  -2.395  0.00  0.00    -0.360 N 
ATOM     27  H   UNL     1     -10.120   7.238  -1.962  0.00  0.00    +0.165 HD
ATOM     28  C   UNL     1      -8.555   8.244  -2.920  0.00  0.00    +0.047 A 
ATOM     29  C   UNL     1      -7.356   7.732  -3.448  0.00  0.00    +0.006 A 
ATOM     30  C   UNL     1      -6.433   8.593  -4.047  0.00  0.00    +0.056 A 
ATOM     31  C   UNL     1      -6.706   9.945  -4.113  0.00  0.00    +0.121 A 
ATOM     32  C   UNL     1      -7.892  10.449  -3.587  0.00  0.00    +0.047 A 
ATOM     33  C   UNL     1      -8.812   9.608  -3.000  0.00  0.00    +0.030 A 
BRANCH  31  34
ATOM     34  O   UNL     1      -5.811  10.788  -4.695  0.00  0.00    -0.495 OA
ATOM     35  C   UNL     1      -6.155  12.175  -4.730  0.00  0.00    +0.277 C 
ENDBRANCH  31  34
ENDBRANCH  23  24
ENDBRANCH  22  23
ENDBRANCH  19  22
ENDBRANCH   1  19
TORSDOF 6
