REMARK  Name = ZINC67547556
REMARK  7 active torsions:
REMARK  status: ('A' for Active; 'I' for Inactive)
REMARK    1  A    between atoms: C_1  and  C_2
REMARK    2  A    between atoms: C_2  and  C_4
REMARK    3  A    between atoms: C_2  and  N_12
REMARK    4  A    between atoms: N_15  and  C_16
REMARK    5  A    between atoms: C_19  and  N_23
REMARK    6  A    between atoms: N_23  and  C_24
REMARK    7  A    between atoms: N_23  and  C_25
REMARK                            x       y       z     vdW  Elec       q    Type
REMARK                         _______ _______ _______ _____ _____    ______ ____
ROOT
ATOM      1  N   UNL     1       0.663  -0.067   0.836  0.00  0.00    -0.288 N 
ATOM      2  C   UNL     1       1.987  -0.049   0.585  0.00  0.00    +0.304 C 
ATOM      3  O   UNL     1       2.401   0.406  -0.463  0.00  0.00    -0.252 OA
ATOM      4  N   UNL     1       2.852  -0.536   1.497  0.00  0.00    -0.269 N 
ATOM      5  H   UNL     1       0.333  -0.430   1.673  0.00  0.00    +0.151 HD
ATOM      6  H   UNL     1       2.530  -0.830   2.363  0.00  0.00    +0.156 HD
ENDROOT
BRANCH   4   7
ATOM      7  C   UNL     1       4.218  -0.617   1.194  0.00  0.00    +0.040 A 
ATOM      8  C   UNL     1       5.163  -0.432   2.194  0.00  0.00    +0.063 A 
ATOM      9  C   UNL     1       6.511  -0.513   1.895  0.00  0.00    +0.149 A 
ATOM     10  C   UNL     1       6.920  -0.779   0.594  0.00  0.00    +0.101 A 
ATOM     11  C   UNL     1       5.973  -0.964  -0.407  0.00  0.00    +0.149 A 
ATOM     12  C   UNL     1       4.626  -0.888  -0.105  0.00  0.00    +0.063 A 
ATOM     13  F   UNL     1       6.370  -1.222  -1.672  0.00  0.00    -0.203 F 
ATOM     14  F   UNL     1       7.431  -0.332   2.869  0.00  0.00    -0.203 F 
BRANCH  10  15
ATOM     15  N   UNL     1       8.287  -0.860   0.290  0.00  0.00    -0.332 N 
ATOM     16  C   UNL     1       8.982  -2.147   0.380  0.00  0.00    +0.129 C 
ATOM     17  C   UNL     1       9.020   0.342  -0.117  0.00  0.00    +0.129 C 
ENDBRANCH  10  15
ENDBRANCH   4   7
BRANCH   1  19
ATOM     18  C   UNL     1      -0.412   1.975   0.027  0.00  0.00    +0.038 C 
ATOM     19  C   UNL     1      -0.277   0.462  -0.155  0.00  0.00    +0.157 C 
BRANCH  19  20
ATOM     20  C   UNL     1      -1.624  -0.189   0.033  0.00  0.00    +0.236 C 
ATOM     21  O   UNL     1      -1.912  -0.688   1.099  0.00  0.00    -0.274 OA
ATOM     22  N   UNL     1      -2.507  -0.215  -0.985  0.00  0.00    -0.298 N 
ATOM     23  C   UNL     1      -2.109   0.287  -2.301  0.00  0.00    +0.118 C 
ATOM     24  C   UNL     1      -2.087  -0.872  -3.305  0.00  0.00    +0.088 C 
ATOM     25  S   UNL     1      -3.731  -1.648  -3.333  0.00  0.00    -0.158 S 
ATOM     26  C   UNL     1      -4.038  -2.028  -1.581  0.00  0.00    +0.088 C 
ATOM     27  C   UNL     1      -3.850  -0.752  -0.763  0.00  0.00    +0.118 C 
ENDBRANCH  19  20
ENDBRANCH   1  19
TORSDOF 4
