REMARK  Name = ZINC36820123
REMARK  8 active torsions:
REMARK  status: ('A' for Active; 'I' for Inactive)
REMARK    1  A    between atoms: C_1  and  C_2
REMARK    2  A    between atoms: C_2  and  N_3
REMARK    3  A    between atoms: N_3  and  C_4
REMARK    4  A    between atoms: C_4  and  C_6
REMARK    5  A    between atoms: C_4  and  C_15
REMARK    6  A    between atoms: C_9  and  C_12
REMARK    7  A    between atoms: C_12  and  C_13
REMARK    8  A    between atoms: C_12  and  C_14
REMARK                            x       y       z     vdW  Elec       q    Type
REMARK                         _______ _______ _______ _____ _____    ______ ____
ROOT
ATOM      1  C   UNL     1       0.710  -1.947  -1.215  0.00  0.00    -0.007 C 
ENDROOT
BRANCH   1   2
ATOM      2  C   UNL     1       1.520  -2.432  -2.389  0.00  0.00    -0.021 A 
ATOM      3  C   UNL     1       1.757  -1.591  -3.460  0.00  0.00    +0.020 A 
ATOM      4  C   UNL     1       2.501  -2.035  -4.538  0.00  0.00    +0.018 A 
ATOM      5  C   UNL     1       3.008  -3.322  -4.545  0.00  0.00    +0.018 A 
ATOM      6  C   UNL     1       2.772  -4.164  -3.475  0.00  0.00    +0.039 A 
ATOM      7  C   UNL     1       2.033  -3.718  -2.393  0.00  0.00    +0.125 A 
ATOM      8  F   UNL     1       1.806  -4.538  -1.344  0.00  0.00    -0.205 F 
ATOM      9 BR   UNL     1       2.824  -0.884  -6.003  0.00  0.00    -0.050 Br
ENDBRANCH   1   2
BRANCH   1  10
ATOM     10  C   UNL     1      -0.700  -2.467  -1.328  0.00  0.00    -0.057 A 
ATOM     11  C   UNL     1      -1.602  -1.844  -2.170  0.00  0.00    +0.002 A 
ATOM     12  C   UNL     1      -2.895  -2.322  -2.274  0.00  0.00    +0.004 A 
ATOM     13  C   UNL     1      -3.286  -3.423  -1.536  0.00  0.00    -0.045 A 
ATOM     14  C   UNL     1      -2.384  -4.047  -0.694  0.00  0.00    +0.004 A 
ATOM     15  C   UNL     1      -1.090  -3.572  -0.594  0.00  0.00    +0.002 A 
BRANCH  13  16
ATOM     16  C   UNL     1      -4.696  -3.944  -1.648  0.00  0.00    +0.013 C 
ATOM     17  C   UNL     1      -4.667  -5.391  -2.145  0.00  0.00    +0.012 C 
ATOM     18  C   UNL     1      -5.371  -3.888  -0.276  0.00  0.00    +0.012 C 
ENDBRANCH  13  16
ENDBRANCH   1  10
BRANCH   1  19
ATOM     19  N   UNL     1       0.690  -0.478  -1.207  0.00  0.00    +0.386 N 
ATOM     20  H   UNL     1       0.202  -0.144  -2.024  0.00  0.00    -0.085 HD
ATOM     21  H   UNL     1       1.636  -0.129  -1.214  0.00  0.00    -0.085 HD
BRANCH  19  23
ATOM     22  C   UNL     1      -0.019   1.526   0.010  0.00  0.00    -0.017 C 
ATOM     23  C   UNL     1       0.002  -0.004   0.002  0.00  0.00    -0.085 C 
ENDBRANCH  19  23
ENDBRANCH   1  19
TORSDOF 5
