REMARK  Name = ZINC35926285
REMARK  7 active torsions:
REMARK  status: ('A' for Active; 'I' for Inactive)
REMARK    1  A    between atoms: C_1  and  C_2
REMARK    2  A    between atoms: C_2  and  C_3
REMARK    3  A    between atoms: C_3  and  C_5
REMARK    4  A    between atoms: C_3  and  C_11
REMARK    5  A    between atoms: C_25  and  C_27
REMARK    6  A    between atoms: C_27  and  N_28
REMARK    7  A    between atoms: N_31  and  C_34
REMARK                            x       y       z     vdW  Elec       q    Type
REMARK                         _______ _______ _______ _____ _____    ______ ____
ROOT
ATOM      1  C   UNL     1      -0.038  -0.194  -2.606  0.00  0.00    +0.223 C 
ATOM      2  O   UNL     1       0.680  -0.467  -1.667  0.00  0.00    -0.275 OA
ATOM      3  N   UNL     1      -0.291   1.095  -2.908  0.00  0.00    -0.298 N 
ATOM      4  C   UNL     1      -1.070   1.443  -4.105  0.00  0.00    +0.127 C 
ATOM      5  C   UNL     1      -2.257   2.316  -3.680  0.00  0.00    +0.127 C 
ATOM      6  N   UNL     1      -1.761   3.398  -2.819  0.00  0.00    -0.298 N 
ATOM      7  C   UNL     1      -0.982   3.049  -1.622  0.00  0.00    +0.127 C 
ATOM      8  C   UNL     1       0.201   2.176  -2.044  0.00  0.00    +0.127 C 
ATOM      9  C   UNL     1      -2.018   4.707  -3.126  0.00  0.00    +0.198 A 
ATOM     10  N   UNL     1      -2.839   4.999  -4.171  0.00  0.00    -0.295 N 
ATOM     11  H   UNL     1      -3.237   4.284  -4.692  0.00  0.00    +0.172 HD
ATOM     12  C   UNL     1      -3.098   6.288  -4.479  0.00  0.00    +0.253 A 
ATOM     13  O   UNL     1      -3.832   6.568  -5.413  0.00  0.00    -0.268 OA
ATOM     14  C   UNL     1      -2.506   7.301  -3.704  0.00  0.00    +0.091 A 
ATOM     15  C   UNL     1      -1.691   6.947  -2.668  0.00  0.00    +0.034 A 
ATOM     16  N   UNL     1      -1.471   5.662  -2.401  0.00  0.00    -0.223 NA
ENDROOT
BRANCH   1  17
ATOM     17  C   UNL     1      -0.645  -1.296  -3.435  0.00  0.00    +0.105 C 
BRANCH  17  18
ATOM     18  C   UNL     1       0.325  -1.709  -4.511  0.00  0.00    -0.036 A 
ATOM     19  C   UNL     1       1.569  -2.204  -4.167  0.00  0.00    +0.004 A 
ATOM     20  C   UNL     1       2.460  -2.583  -5.154  0.00  0.00    +0.000 A 
ATOM     21  C   UNL     1       2.106  -2.467  -6.485  0.00  0.00    +0.000 A 
ATOM     22  C   UNL     1       0.862  -1.973  -6.829  0.00  0.00    +0.000 A 
ATOM     23  C   UNL     1      -0.030  -1.598  -5.842  0.00  0.00    +0.004 A 
ENDBRANCH  17  18
BRANCH  17  25
ATOM     24  C   UNL     1      -2.043  -2.116  -1.534  0.00  0.00    +0.005 C 
ATOM     25  C   UNL     1      -0.955  -2.497  -2.539  0.00  0.00    +0.014 C 
ENDBRANCH  17  25
ENDBRANCH   1  17
BRANCH  15  26
ATOM     26  C   UNL     1      -1.045   8.013  -1.822  0.00  0.00    -0.022 C 
BRANCH  26  27
ATOM     27  N   UNL     1      -1.565   7.932  -0.451  0.00  0.00    +0.385 N 
ATOM     28  C   UNL     1      -3.000   8.242  -0.454  0.00  0.00    -0.059 C 
ATOM     29  C   UNL     1      -3.567   8.047   0.956  0.00  0.00    +0.086 C 
ATOM     30  N   UNL     1      -2.773   8.856   1.894  0.00  0.00    -0.331 N 
ATOM     31  C   UNL     1      -1.308   8.727   1.852  0.00  0.00    +0.086 C 
ATOM     32  C   UNL     1      -0.848   8.891   0.400  0.00  0.00    -0.059 C 
ATOM     33  H   UNL     1      -1.426   6.999  -0.094  0.00  0.00    -0.081 HD
BRANCH  30  34
ATOM     34  C   UNL     1      -3.394   9.722   2.800  0.00  0.00    +0.065 A 
ATOM     35  C   UNL     1      -3.752   9.269   4.062  0.00  0.00    +0.026 A 
ATOM     36  C   UNL     1      -4.365  10.127   4.955  0.00  0.00    +0.002 A 
ATOM     37  C   UNL     1      -4.622  11.437   4.593  0.00  0.00    +0.003 A 
ATOM     38  C   UNL     1      -4.267  11.893   3.337  0.00  0.00    +0.040 A 
ATOM     39  C   UNL     1      -3.648  11.041   2.440  0.00  0.00    +0.144 A 
ATOM     40  F   UNL     1      -3.296  11.488   1.215  0.00  0.00    -0.204 F 
ENDBRANCH  30  34
ENDBRANCH  26  27
ENDBRANCH  15  26
TORSDOF 6
