REMARK  Name = ZINC14017531
REMARK  8 active torsions:
REMARK  status: ('A' for Active; 'I' for Inactive)
REMARK    1  A    between atoms: C_1  and  C_2
REMARK    2  A    between atoms: C_2  and  O_3
REMARK    3  A    between atoms: O_3  and  C_4
REMARK    4  A    between atoms: C_12  and  N_16
REMARK    5  A    between atoms: C_13  and  C_14
REMARK    6  A    between atoms: C_17  and  C_19
REMARK    7  A    between atoms: N_24  and  S_26
REMARK    8  A    between atoms: S_26  and  C_29
REMARK                            x       y       z     vdW  Elec       q    Type
REMARK                         _______ _______ _______ _____ _____    ______ ____
ROOT
ATOM      1  N   UNL     1      -0.011   0.966   0.007  0.00  0.00    -0.279 N 
ATOM      2  C   UNL     1      -1.187   1.624   0.017  0.00  0.00    +0.222 C 
ATOM      3  O   UNL     1      -1.204   2.837   0.023  0.00  0.00    -0.275 OA
ATOM      4  H   UNL     1       0.002  -0.004   0.002  0.00  0.00    +0.155 HD
ENDROOT
BRANCH   1  13
ATOM      5  C   UNL     1       6.297   4.816   1.030  0.00  0.00    +0.403 C 
ATOM      6  O   UNL     1       7.426   4.400   1.196  0.00  0.00    -0.226 OA
ATOM      7  N   UNL     1       5.453   4.165   0.205  0.00  0.00    -0.262 N 
ATOM      8  C   UNL     1       5.870   2.948  -0.508  0.00  0.00    +0.116 C 
ATOM      9  C   UNL     1       5.038   1.759  -0.025  0.00  0.00    +0.056 C 
ATOM     10  C   UNL     1       3.565   2.148  -0.019  0.00  0.00    -0.015 A 
ATOM     11  C   UNL     1       3.180   3.443  -0.011  0.00  0.00    +0.013 A 
ATOM     12  S   UNL     1       1.411   3.394  -0.001  0.00  0.00    -0.075 S 
ATOM     13  C   UNL     1       1.181   1.676  -0.000  0.00  0.00    +0.090 A 
ATOM     14  C   UNL     1       2.478   1.183  -0.015  0.00  0.00    +0.084 A 
ATOM     15  C   UNL     1       4.075   4.646  -0.017  0.00  0.00    +0.153 C 
BRANCH  14  16
ATOM     16  C   UNL     1       2.736  -0.225  -0.027  0.00  0.00    +0.102 C 
ATOM     17  N   UNL     1       2.940  -1.342  -0.037  0.00  0.00    -0.191 NA
ENDBRANCH  14  16
BRANCH   5  18
ATOM     18  O   UNL     1       5.888   5.928   1.669  0.00  0.00    -0.451 OA
BRANCH  18  20
ATOM     19  C   UNL     1       6.210   7.814   3.176  0.00  0.00    +0.048 C 
ATOM     20  C   UNL     1       6.850   6.577   2.542  0.00  0.00    +0.230 C 
ENDBRANCH  18  20
ENDBRANCH   5  18
ENDBRANCH   1  13
BRANCH   2  21
ATOM     21  C   UNL     1      -2.482   0.853   0.018  0.00  0.00    +0.091 C 
ATOM     22  C   UNL     1      -2.559  -0.019  -1.237  0.00  0.00    +0.015 C 
ATOM     23  C   UNL     1      -3.859  -0.827  -1.220  0.00  0.00    +0.018 C 
ATOM     24  C   UNL     1      -5.053   0.133  -1.223  0.00  0.00    +0.109 C 
ATOM     25  N   UNL     1      -4.910   1.069  -0.100  0.00  0.00    -0.176 NA
ATOM     26  C   UNL     1      -3.660   1.832   0.029  0.00  0.00    +0.122 C 
BRANCH  25  27
ATOM     27  S   UNL     1      -6.133   1.262   0.999  0.00  0.00    +0.061 S 
ATOM     28  O   UNL     1      -6.906   0.070   0.960  0.00  0.00    -0.153 OA
ATOM     29  O   UNL     1      -5.534   1.744   2.194  0.00  0.00    -0.153 OA
BRANCH  27  30
ATOM     30  C   UNL     1      -7.172   2.554   0.401  0.00  0.00    +0.106 A 
ATOM     31  C   UNL     1      -6.923   3.865   0.764  0.00  0.00    +0.031 A 
ATOM     32  C   UNL     1      -7.734   4.879   0.291  0.00  0.00    +0.040 A 
ATOM     33  C   UNL     1      -8.802   4.582  -0.537  0.00  0.00    +0.124 A 
ATOM     34  C   UNL     1      -9.053   3.268  -0.896  0.00  0.00    +0.040 A 
ATOM     35  C   UNL     1      -8.238   2.256  -0.427  0.00  0.00    +0.031 A 
ATOM     36  F   UNL     1      -9.598   5.572  -0.996  0.00  0.00    -0.205 F 
ENDBRANCH  27  30
ENDBRANCH  25  27
ENDBRANCH   2  21
TORSDOF 7
