REMARK  Name = ZINC43264767
REMARK  6 active torsions:
REMARK  status: ('A' for Active; 'I' for Inactive)
REMARK    1  A    between atoms: C_1  and  C_2
REMARK    2  A    between atoms: C_2  and  C_4
REMARK    3  A    between atoms: C_2  and  N_20
REMARK    4  A    between atoms: C_4  and  C_6
REMARK    5  A    between atoms: C_4  and  O_12
REMARK    6  A    between atoms: O_12  and  C_13
REMARK                            x       y       z     vdW  Elec       q    Type
REMARK                         _______ _______ _______ _____ _____    ______ ____
ROOT
ATOM      1  C   UNL     1       0.760  -0.527   1.259  0.00  0.00    +0.196 C 
ENDROOT
BRANCH   1   2
ATOM      2  C   UNL     1       2.238  -0.231   1.280  0.00  0.00    +0.029 A 
ATOM      3  C   UNL     1       3.268  -0.998   0.849  0.00  0.00    +0.016 A 
ATOM      4  C   UNL     1       4.559  -0.516   0.969  0.00  0.00    +0.023 A 
ATOM      5  C   UNL     1       4.755   0.710   1.515  0.00  0.00    +0.055 A 
ATOM      6  S   UNL     1       3.083   1.226   1.872  0.00  0.00    -0.083 S 
ATOM      7 BR   UNL     1       6.376   1.636   1.813  0.00  0.00    -0.043 Br
ENDBRANCH   1   2
BRANCH   1   9
ATOM      8  C   UNL     1       0.243   1.599   0.054  0.00  0.00    -0.010 C 
ATOM      9  C   UNL     1       0.137   0.074  -0.002  0.00  0.00    -0.032 C 
BRANCH   9  10
ATOM     10  N   UNL     1      -1.277  -0.317  -0.084  0.00  0.00    +0.382 N 
ATOM     11  H   UNL     1      -1.346  -1.323  -0.121  0.00  0.00    -0.089 HD
ATOM     12  H   UNL     1      -1.767   0.025   0.729  0.00  0.00    -0.089 HD
ATOM     13  H   UNL     1      -1.688   0.080  -0.916  0.00  0.00    -0.089 HD
ENDBRANCH   9  10
ENDBRANCH   1   9
BRANCH   1  14
ATOM     14  O   UNL     1       0.143   0.044   2.414  0.00  0.00    -0.484 OA
BRANCH  14  15
ATOM     15  C   UNL     1      -0.936  -0.607   2.923  0.00  0.00    +0.135 A 
ATOM     16  C   UNL     1      -1.345  -1.811   2.370  0.00  0.00    +0.047 A 
ATOM     17  C   UNL     1      -2.443  -2.471   2.889  0.00  0.00    +0.004 A 
ATOM     18  C   UNL     1      -3.133  -1.932   3.959  0.00  0.00    +0.001 A 
ATOM     19  C   UNL     1      -2.727  -0.732   4.513  0.00  0.00    +0.019 A 
ATOM     20  C   UNL     1      -1.627  -0.070   4.001  0.00  0.00    +0.059 A 
ATOM     21 BR   UNL     1      -1.067   1.567   4.764  0.00  0.00    -0.047 Br
ENDBRANCH  14  15
ENDBRANCH   1  14
TORSDOF 5
