REMARK  Name = ZINC02104430
REMARK  8 active torsions:
REMARK  status: ('A' for Active; 'I' for Inactive)
REMARK    1  A    between atoms: C_1  and  O_2
REMARK    2  A    between atoms: O_2  and  C_3
REMARK    3  A    between atoms: C_6  and  C_11
REMARK    4  A    between atoms: C_7  and  O_9
REMARK    5  A    between atoms: O_9  and  C_10
REMARK    6  A    between atoms: N_30  and  C_33
REMARK    7  A    between atoms: C_33  and  C_34
REMARK    8  A    between atoms: C_34  and  C_35
REMARK                            x       y       z     vdW  Elec       q    Type
REMARK                         _______ _______ _______ _____ _____    ______ ____
ROOT
ATOM      1  C   UNL     1      -0.617  -7.645   3.939  0.00  0.00    +0.157 C 
ATOM      2  C   UNL     1      -2.016  -8.180   4.146  0.00  0.00    +0.046 A 
ATOM      3  C   UNL     1      -3.132  -7.512   3.783  0.00  0.00    -0.015 A 
ATOM      4  C   UNL     1      -4.261  -8.347   4.140  0.00  0.00    +0.003 A 
ATOM      5  C   UNL     1      -5.643  -8.180   4.005  0.00  0.00    +0.010 A 
ATOM      6  C   UNL     1      -6.438  -9.200   4.465  0.00  0.00    +0.001 A 
ATOM      7  C   UNL     1      -5.909 -10.345   5.038  0.00  0.00    +0.002 A 
ATOM      8  C   UNL     1      -4.546 -10.536   5.183  0.00  0.00    +0.026 A 
ATOM      9  C   UNL     1      -3.713  -9.518   4.724  0.00  0.00    +0.047 A 
ATOM     10  N   UNL     1      -2.355  -9.381   4.712  0.00  0.00    -0.356 N 
ATOM     11  H   UNL     1      -1.725 -10.035   5.051  0.00  0.00    +0.166 HD
ATOM     12  C   UNL     1      -3.144  -6.150   3.137  0.00  0.00    +0.069 C 
ATOM     13  C   UNL     1      -1.747  -5.858   2.570  0.00  0.00    +0.167 C 
ATOM     14  N   UNL     1      -0.740  -6.219   3.567  0.00  0.00    -0.276 N 
ATOM     15  C   UNL     1       0.063  -5.326   4.149  0.00  0.00    +0.234 C 
ATOM     16  O   UNL     1       0.816  -5.722   5.013  0.00  0.00    -0.274 OA
ATOM     17  C   UNL     1       0.097  -3.872   3.809  0.00  0.00    +0.203 C 
ATOM     18  N   UNL     1      -0.830  -3.540   2.739  0.00  0.00    -0.291 N 
ATOM     19  C   UNL     1      -1.661  -4.418   2.180  0.00  0.00    +0.237 C 
ATOM     20  O   UNL     1      -2.390  -4.024   1.294  0.00  0.00    -0.274 OA
ENDROOT
BRANCH   1  24
ATOM     21  C   UNL     1       1.316  -9.807   0.796  0.00  0.00    +0.124 A 
ATOM     22  C   UNL     1      -0.059  -9.896   0.961  0.00  0.00    +0.046 A 
ATOM     23  C   UNL     1      -0.680  -9.201   1.981  0.00  0.00    +0.013 A 
ATOM     24  C   UNL     1       0.064  -8.406   2.832  0.00  0.00    +0.021 A 
ATOM     25  C   UNL     1       1.439  -8.314   2.671  0.00  0.00    +0.129 A 
ATOM     26  C   UNL     1       2.066  -9.015   1.652  0.00  0.00    +0.091 A 
BRANCH  21  28
ATOM     27  C   UNL     1       1.093 -11.292  -1.047  0.00  0.00    +0.277 C 
ATOM     28  O   UNL     1       1.927 -10.495  -0.203  0.00  0.00    -0.495 OA
ENDBRANCH  21  28
BRANCH  25  29
ATOM     29  O   UNL     1       2.171  -7.536   3.511  0.00  0.00    -0.495 OA
ATOM     30  C   UNL     1       3.582  -7.488   3.287  0.00  0.00    +0.277 C 
ENDBRANCH  25  29
ENDBRANCH   1  24
BRANCH  18  31
ATOM     31  C   UNL     1      -0.855  -2.158   2.252  0.00  0.00    +0.112 C 
BRANCH  31  32
ATOM     32  C   UNL     1       0.146  -2.003   1.106  0.00  0.00    +0.049 C 
BRANCH  32  33
ATOM     33  C   UNL     1       0.120  -0.582   0.605  0.00  0.00    -0.072 C 
ATOM     34  C   UNL     1       0.992   0.247   1.085  0.00  0.00    -0.028 C 
ATOM     35  C   UNL     1       1.082   1.692   0.692  0.00  0.00    +0.027 C 
ATOM     36  C   UNL     1       0.322   1.932  -0.615  0.00  0.00    +0.004 C 
ATOM     37  C   UNL     1      -1.073   1.305  -0.486  0.00  0.00    +0.005 C 
ATOM     38  C   UNL     1      -0.915  -0.215  -0.417  0.00  0.00    +0.030 C 
ENDBRANCH  32  33
ENDBRANCH  31  32
ENDBRANCH  18  31
TORSDOF 6
