REMARK  Name = ZINC19296601
REMARK  6 active torsions:
REMARK  status: ('A' for Active; 'I' for Inactive)
REMARK    1  A    between atoms: C_1  and  C_2
REMARK    2  A    between atoms: C_2  and  C_27
REMARK    3  A    between atoms: N_5  and  C_9
REMARK    4  A    between atoms: C_9  and  C_10
REMARK    5  A    between atoms: N_12  and  C_21
REMARK    6  A    between atoms: C_14  and  C_15
REMARK                            x       y       z     vdW  Elec       q    Type
REMARK                         _______ _______ _______ _____ _____    ______ ____
ROOT
ATOM      1  C   UNL     1       2.836   6.771   2.823  0.00  0.00    +0.047 C 
ATOM      2  C   UNL     1       1.515   6.226   3.369  0.00  0.00    +0.135 C 
ATOM      3  C   UNL     1       1.413   6.471   4.861  0.00  0.00    +0.251 C 
ATOM      4  O   UNL     1       2.150   6.045   5.725  0.00  0.00    -0.272 OA
ATOM      5  N   UNL     1       0.333   7.259   5.029  0.00  0.00    -0.219 N 
ATOM      6  C   UNL     1      -0.255   7.544   3.861  0.00  0.00    +0.310 C 
ATOM      7  O   UNL     1      -1.247   8.239   3.757  0.00  0.00    -0.252 OA
ATOM      8  N   UNL     1       0.375   6.976   2.813  0.00  0.00    -0.281 N 
ATOM      9  H   UNL     1       0.197   6.982   1.728  0.00  0.00    +0.152 HD
ENDROOT
BRANCH   2  10
ATOM     10  C   UNL     1       1.382   4.757   3.062  0.00  0.00    -0.012 A 
ATOM     11  C   UNL     1       1.847   3.819   3.966  0.00  0.00    +0.010 A 
ATOM     12  C   UNL     1       1.728   2.469   3.691  0.00  0.00    +0.050 A 
ATOM     13  C   UNL     1       1.142   2.058   2.505  0.00  0.00    +0.162 A 
ATOM     14  C   UNL     1       0.675   2.999   1.598  0.00  0.00    +0.162 A 
ATOM     15  C   UNL     1       0.795   4.350   1.877  0.00  0.00    +0.055 A 
ATOM     16  O   UNL     1       0.099   2.584   0.433  0.00  0.00    -0.488 OA
ATOM     17  C   UNL     1       0.973   1.956  -0.507  0.00  0.00    +0.232 C 
ATOM     18  C   UNL     1       1.133   0.478  -0.190  0.00  0.00    +0.082 C 
ATOM     19  C   UNL     1       1.823   0.243   1.145  0.00  0.00    +0.232 C 
ATOM     20  O   UNL     1       1.018   0.729   2.221  0.00  0.00    -0.488 OA
ENDBRANCH   2  10
BRANCH   5  21
ATOM     21  C   UNL     1      -0.138   7.744   6.328  0.00  0.00    +0.157 C 
BRANCH  21  22
ATOM     22  C   UNL     1       0.604   9.004   6.694  0.00  0.00    +0.016 A 
ATOM     23  C   UNL     1       1.477   9.669   5.906  0.00  0.00    +0.120 A 
ATOM     24  N   UNL     1       1.923  10.749   6.599  0.00  0.00    -0.239 N 
ATOM     25  N   UNL     1       1.310  10.740   7.859  0.00  0.00    -0.166 NA
ATOM     26  C   UNL     1       0.516   9.691   7.920  0.00  0.00    +0.098 A 
BRANCH  26  27
ATOM     27  C   UNL     1      -0.325   9.303   9.079  0.00  0.00    +0.002 A 
ATOM     28  C   UNL     1      -1.627   8.850   8.877  0.00  0.00    +0.010 A 
ATOM     29  C   UNL     1      -2.403   8.484   9.959  0.00  0.00    +0.001 A 
ATOM     30  C   UNL     1      -1.894   8.577  11.241  0.00  0.00    +0.000 A 
ATOM     31  C   UNL     1      -0.604   9.031  11.448  0.00  0.00    +0.001 A 
ATOM     32  C   UNL     1       0.183   9.394  10.374  0.00  0.00    +0.010 A 
ENDBRANCH  26  27
BRANCH  24  33
ATOM     33  C   UNL     1       2.841  11.702   6.137  0.00  0.00    +0.065 A 
ATOM     34  C   UNL     1       3.379  11.589   4.862  0.00  0.00    +0.028 A 
ATOM     35  C   UNL     1       4.279  12.533   4.407  0.00  0.00    +0.002 A 
ATOM     36  C   UNL     1       4.652  13.584   5.224  0.00  0.00    +0.000 A 
ATOM     37  C   UNL     1       4.122  13.697   6.496  0.00  0.00    +0.002 A 
ATOM     38  C   UNL     1       3.217  12.759   6.955  0.00  0.00    +0.028 A 
ENDBRANCH  24  33
ENDBRANCH  21  22
ENDBRANCH   5  21
TORSDOF 5
