REMARK  Name = ZINC64091223
REMARK  4 active torsions:
REMARK  status: ('A' for Active; 'I' for Inactive)
REMARK    1  A    between atoms: C_1  and  N_2
REMARK    2  A    between atoms: N_11  and  C_12
REMARK    3  A    between atoms: C_12  and  C_14
REMARK    4  A    between atoms: C_17  and  O_21
REMARK                            x       y       z     vdW  Elec       q    Type
REMARK                         _______ _______ _______ _____ _____    ______ ____
ROOT
ATOM      1  C   UNL     1      -0.017   1.461   0.033  0.00  0.00    +0.152 C 
ATOM      2  N   UNL     1       0.002  -0.003   0.017  0.00  0.00    -0.315 N 
ATOM      3  C   UNL     1      -1.115  -0.834   0.020  0.00  0.00    +0.068 A 
ATOM      4  C   UNL     1      -2.480  -0.584   0.037  0.00  0.00    +0.029 A 
ATOM      5  C   UNL     1      -3.372  -1.637   0.035  0.00  0.00    +0.022 A 
ATOM      6  C   UNL     1      -2.910  -2.944   0.017  0.00  0.00    +0.043 A 
ATOM      7  C   UNL     1      -1.554  -3.203  -0.001  0.00  0.00    +0.047 A 
ATOM      8  C   UNL     1      -0.649  -2.150   0.001  0.00  0.00    +0.067 A 
ATOM      9  N   UNL     1       0.741  -2.094  -0.013  0.00  0.00    -0.326 N 
ATOM     10  C   UNL     1       1.115  -0.786  -0.008  0.00  0.00    +0.201 A 
ATOM     11  N   UNL     1       2.366  -0.343  -0.024  0.00  0.00    -0.142 NA
ATOM     12 CL   UNL     1      -4.042  -4.260   0.015  0.00  0.00    -0.083 Cl
ATOM     13  H   UNL     1       1.341  -2.856  -0.027  0.00  0.00    +0.169 HD
ENDROOT
BRANCH  11  14
ATOM     14  C   UNL     1       3.383  -1.209   0.063  0.00  0.00    +0.270 C 
ATOM     15  O   UNL     1       3.165  -2.408   0.059  0.00  0.00    -0.268 OA
BRANCH  14  16
ATOM     16  C   UNL     1       4.772  -0.710   0.163  0.00  0.00    +0.040 A 
ATOM     17  C   UNL     1       5.024   0.663   0.173  0.00  0.00    +0.017 A 
ATOM     18  C   UNL     1       6.319   1.124   0.267  0.00  0.00    +0.047 A 
ATOM     19  C   UNL     1       7.374   0.225   0.351  0.00  0.00    +0.135 A 
ATOM     20  C   UNL     1       7.128  -1.144   0.340  0.00  0.00    +0.083 A 
ATOM     21  C   UNL     1       5.834  -1.612   0.253  0.00  0.00    +0.036 A 
ATOM     22 CL   UNL     1       8.451  -2.264   0.445  0.00  0.00    -0.080 Cl
BRANCH  19  23
ATOM     23  O   UNL     1       8.649   0.683   0.443  0.00  0.00    -0.505 OA
ATOM     24  H   UNL     1       8.953   0.821   1.351  0.00  0.00    +0.292 HD
ENDBRANCH  19  23
ENDBRANCH  14  16
ENDBRANCH  11  14
TORSDOF 3
