REMARK  Name = ZINC13923876
REMARK  7 active torsions:
REMARK  status: ('A' for Active; 'I' for Inactive)
REMARK    1  A    between atoms: C_5  and  C_7
REMARK    2  A    between atoms: N_9  and  N_10
REMARK    3  A    between atoms: N_10  and  C_11
REMARK    4  A    between atoms: C_11  and  N_13
REMARK    5  A    between atoms: N_13  and  C_14
REMARK    6  A    between atoms: C_17  and  S_20
REMARK    7  A    between atoms: S_20  and  N_23
REMARK                            x       y       z     vdW  Elec       q    Type
REMARK                         _______ _______ _______ _____ _____    ______ ____
ROOT
ATOM      1  C   UNL     1      -1.080  -4.927   0.378  0.00  0.00    +0.151 C 
ATOM      2  S   UNL     1      -1.127  -6.574   0.843  0.00  0.00    -0.017 S 
ENDROOT
BRANCH   1   3
ATOM      3  N   UNL     1       0.089  -4.257   0.388  0.00  0.00    -0.245 N 
ATOM      4  H   UNL     1       0.904  -4.707   0.659  0.00  0.00    +0.172 HD
BRANCH   3   7
ATOM      5  C   UNL     1       1.297  -2.239   0.018  0.00  0.00    +0.261 C 
ATOM      6  O   UNL     1       2.318  -2.804   0.358  0.00  0.00    -0.269 OA
ATOM      7  N   UNL     1       0.128  -2.909   0.008  0.00  0.00    -0.231 N 
ATOM      8  H   UNL     1      -0.687  -2.458  -0.264  0.00  0.00    +0.173 HD
BRANCH   5  13
ATOM      9  C   UNL     1       0.212   1.161  -1.149  0.00  0.00    +0.001 A 
ATOM     10  C   UNL     1       1.414   1.847  -1.137  0.00  0.00    +0.001 A 
ATOM     11  C   UNL     1       2.578   1.209  -0.750  0.00  0.00    +0.016 A 
ATOM     12  C   UNL     1       2.548  -0.120  -0.373  0.00  0.00    +0.030 A 
ATOM     13  C   UNL     1       1.338  -0.817  -0.383  0.00  0.00    +0.052 A 
ATOM     14  C   UNL     1       0.167  -0.165  -0.775  0.00  0.00    +0.014 A 
ATOM     15 BR   UNL     1       4.140  -0.992   0.154  0.00  0.00    -0.050 Br
ENDBRANCH   5  13
ENDBRANCH   3   7
ENDBRANCH   1   3
BRANCH   1  16
ATOM     16  N   UNL     1      -2.212  -4.300   0.001  0.00  0.00    -0.296 N 
ATOM     17  H   UNL     1      -2.197  -3.352  -0.203  0.00  0.00    +0.154 HD
BRANCH  16  18
ATOM     18  C   UNL     1      -3.409  -5.018  -0.097  0.00  0.00    +0.033 A 
ATOM     19  C   UNL     1      -3.780  -5.893   0.915  0.00  0.00    +0.025 A 
ATOM     20  C   UNL     1      -4.963  -6.600   0.816  0.00  0.00    +0.030 A 
ATOM     21  C   UNL     1      -5.778  -6.436  -0.289  0.00  0.00    +0.105 A 
ATOM     22  C   UNL     1      -5.411  -5.564  -1.298  0.00  0.00    +0.030 A 
ATOM     23  C   UNL     1      -4.232  -4.851  -1.203  0.00  0.00    +0.025 A 
BRANCH  21  24
ATOM     24  S   UNL     1      -7.285  -7.339  -0.412  0.00  0.00    +0.056 S 
ATOM     25  O   UNL     1      -7.600  -7.418  -1.796  0.00  0.00    -0.153 OA
ATOM     26  O   UNL     1      -7.134  -8.494   0.402  0.00  0.00    -0.153 OA
BRANCH  24  27
ATOM     27  N   UNL     1      -8.468  -6.417   0.291  0.00  0.00    -0.204 NA
ATOM     28  H   UNL     1      -9.383  -6.481  -0.023  0.00  0.00    +0.144 HD
ATOM     29  H   UNL     1      -8.244  -5.812   1.016  0.00  0.00    +0.144 HD
ENDBRANCH  24  27
ENDBRANCH  21  24
ENDBRANCH  16  18
ENDBRANCH   1  16
TORSDOF 7
