REMARK  Name = ZINC21466497
REMARK  7 active torsions:
REMARK  status: ('A' for Active; 'I' for Inactive)
REMARK    1  A    between atoms: C_1  and  C_2
REMARK    2  A    between atoms: C_3  and  C_14
REMARK    3  A    between atoms: N_5  and  C_7
REMARK    4  A    between atoms: C_14  and  O_16
REMARK    5  A    between atoms: O_16  and  C_17
REMARK    6  A    between atoms: C_17  and  C_18
REMARK    7  A    between atoms: N_20  and  C_21
REMARK                            x       y       z     vdW  Elec       q    Type
REMARK                         _______ _______ _______ _____ _____    ______ ____
ROOT
ATOM      1  C   UNL     1       3.590   6.110   0.676  0.00  0.00    +0.255 C 
ATOM      2  O   UNL     1       4.634   5.553   0.413  0.00  0.00    -0.272 OA
ATOM      3  N   UNL     1       2.426   5.437   0.586  0.00  0.00    -0.282 N 
ATOM      4  H   UNL     1       1.473   5.962   0.751  0.00  0.00    +0.155 HD
ENDROOT
BRANCH   3   5
ATOM      5  C   UNL     1       2.429   4.080   0.285  0.00  0.00    +0.045 A 
ATOM      6  C   UNL     1       3.382   3.557  -0.589  0.00  0.00    +0.024 A 
ATOM      7  C   UNL     1       3.389   2.212  -0.891  0.00  0.00    +0.003 A 
ATOM      8  C   UNL     1       2.449   1.358  -0.332  0.00  0.00    +0.012 A 
ATOM      9  C   UNL     1       1.491   1.857   0.542  0.00  0.00    +0.035 A 
ATOM     10  C   UNL     1       1.476   3.230   0.856  0.00  0.00    +0.054 A 
ATOM     11  C   UNL     1       0.457   3.759   1.781  0.00  0.00    +0.196 C 
ATOM     12  O   UNL     1       0.575   4.872   2.255  0.00  0.00    -0.287 OA
ATOM     13  C   UNL     1      -0.711   2.918   2.127  0.00  0.00    +0.033 A 
ATOM     14  C   UNL     1      -1.820   3.472   2.756  0.00  0.00    +0.012 A 
ATOM     15  C   UNL     1      -2.914   2.671   3.054  0.00  0.00    +0.001 A 
ATOM     16  C   UNL     1      -2.900   1.322   2.747  0.00  0.00    +0.001 A 
ATOM     17  C   UNL     1      -1.801   0.755   2.127  0.00  0.00    +0.012 A 
ATOM     18  C   UNL     1      -0.701   1.546   1.809  0.00  0.00    +0.033 A 
ATOM     19  C   UNL     1       0.483   0.958   1.145  0.00  0.00    +0.195 C 
ATOM     20  O   UNL     1       0.623  -0.247   1.092  0.00  0.00    -0.287 OA
ENDBRANCH   3   5
BRANCH   1  21
ATOM     21  C   UNL     1       3.594   7.555   1.105  0.00  0.00    +0.328 C 
BRANCH  21  22
ATOM     22  O   UNL     1       4.958   8.051   1.124  0.00  0.00    -0.452 OA
BRANCH  22  23
ATOM     23  C   UNL     1       5.138   9.336   1.488  0.00  0.00    +0.344 C 
ATOM     24  O   UNL     1       4.180  10.023   1.782  0.00  0.00    -0.245 OA
BRANCH  23  27
ATOM     25  C   UNL     1       7.079   9.326   3.999  0.00  0.00    +0.068 C 
ATOM     26  C   UNL     1       7.370   9.910   2.640  0.00  0.00    +0.076 A 
ATOM     27  C   UNL     1       6.493   9.906   1.530  0.00  0.00    +0.118 A 
ATOM     28  C   UNL     1       7.153  10.535   0.489  0.00  0.00    +0.147 A 
ATOM     29  N   UNL     1       8.362  10.909   0.948  0.00  0.00    -0.220 N 
ATOM     30  N   UNL     1       8.473  10.506   2.283  0.00  0.00    -0.169 NA
ATOM     31 CL   UNL     1       6.535  10.797  -1.112  0.00  0.00    -0.061 Cl
BRANCH  29  32
ATOM     32  C   UNL     1       9.346  11.582   0.211  0.00  0.00    +0.067 A 
ATOM     33  C   UNL     1       9.505  11.315  -1.143  0.00  0.00    +0.028 A 
ATOM     34  C   UNL     1      10.473  11.983  -1.867  0.00  0.00    +0.002 A 
ATOM     35  C   UNL     1      11.289  12.909  -1.244  0.00  0.00    +0.000 A 
ATOM     36  C   UNL     1      11.136  13.173   0.105  0.00  0.00    +0.002 A 
ATOM     37  C   UNL     1      10.167  12.512   0.834  0.00  0.00    +0.028 A 
ENDBRANCH  29  32
ENDBRANCH  23  27
ENDBRANCH  22  23
ENDBRANCH  21  22
ENDBRANCH   1  21
TORSDOF 6
