REMARK  Name = ZINC49601791
REMARK  12 active torsions:
REMARK  status: ('A' for Active; 'I' for Inactive)
REMARK    1  A    between atoms: C_4  and  C_7
REMARK    2  A    between atoms: C_8  and  C_9
REMARK    3  A    between atoms: C_9  and  O_11
REMARK    4  A    between atoms: O_11  and  C_12
REMARK    5  A    between atoms: C_15  and  C_34
REMARK    6  A    between atoms: C_17  and  O_22
REMARK    7  A    between atoms: C_19  and  O_21
REMARK    8  A    between atoms: O_22  and  C_23
REMARK    9  A    between atoms: C_23  and  C_25
REMARK   10  A    between atoms: C_27  and  O_33
REMARK   11  A    between atoms: C_28  and  O_32
REMARK   12  A    between atoms: C_29  and  O_31
REMARK                            x       y       z     vdW  Elec       q    Type
REMARK                         _______ _______ _______ _____ _____    ______ ____
ROOT
ATOM      1  C   UNL     1       6.298  -4.715  -0.086  0.00  0.00    +0.214 C 
ATOM      2  C   UNL     1       6.741  -4.942  -1.533  0.00  0.00    +0.089 C 
ATOM      3  C   UNL     1       7.956  -5.822  -1.570  0.00  0.00    +0.044 C 
ATOM      4  C   UNL     1       8.348  -6.572  -0.560  0.00  0.00    +0.030 C 
ATOM      5  C   UNL     1       7.632  -6.636   0.758  0.00  0.00    +0.232 C 
ATOM      6  C   UNL     1       6.217  -6.073   0.621  0.00  0.00    +0.200 C 
ENDROOT
BRANCH   3   7
ATOM      7  C   UNL     1       8.754  -5.848  -2.801  0.00  0.00    +0.383 C 
ATOM      8  O   UNL     1       9.752  -6.554  -2.868  0.00  0.00    -0.241 OA
ATOM      9  O   UNL     1       8.422  -5.165  -3.760  0.00  0.00    -0.241 OA
ENDBRANCH   3   7
BRANCH   6  10
ATOM     10  O   UNL     1       5.421  -6.971  -0.155  0.00  0.00    -0.384 OA
ATOM     11  H   UNL     1       5.328  -7.851   0.235  0.00  0.00    +0.210 HD
ENDBRANCH   6  10
BRANCH   1  12
ATOM     12  O   UNL     1       5.014  -4.087  -0.070  0.00  0.00    -0.455 OA
BRANCH  12  13
ATOM     13  C   UNL     1       4.992  -2.739  -0.062  0.00  0.00    +0.332 C 
ATOM     14  O   UNL     1       6.035  -2.113  -0.070  0.00  0.00    -0.246 OA
BRANCH  13  16
ATOM     15  C   UNL     1       3.691  -0.680  -0.038  0.00  0.00    +0.015 C 
ATOM     16  C   UNL     1       3.714  -2.029  -0.045  0.00  0.00    +0.092 C 
BRANCH  15  20
ATOM     17  C   UNL     1      -0.017   1.380   0.010  0.00  0.00    +0.000 A 
ATOM     18  C   UNL     1       1.168   2.095   0.002  0.00  0.00    +0.001 A 
ATOM     19  C   UNL     1       2.377   1.433  -0.013  0.00  0.00    +0.008 A 
ATOM     20  C   UNL     1       2.405   0.035  -0.021  0.00  0.00    -0.025 A 
ATOM     21  C   UNL     1       1.203  -0.681  -0.013  0.00  0.00    +0.008 A 
ATOM     22  C   UNL     1       0.002  -0.004   0.002  0.00  0.00    +0.001 A 
ENDBRANCH  15  20
ENDBRANCH  13  16
ENDBRANCH  12  13
ENDBRANCH   1  12
BRANCH   5  23
ATOM     23  O   UNL     1       8.349  -5.864   1.724  0.00  0.00    -0.451 OA
BRANCH  23  24
ATOM     24  C   UNL     1       9.296  -6.505   2.438  0.00  0.00    +0.340 C 
ATOM     25  O   UNL     1       9.507  -7.686   2.246  0.00  0.00    -0.245 OA
BRANCH  24  26
ATOM     26  C   UNL     1      10.076  -5.772   3.453  0.00  0.00    +0.066 A 
ATOM     27  C   UNL     1       9.831  -4.415   3.679  0.00  0.00    +0.064 A 
ATOM     28  C   UNL     1      10.563  -3.731   4.630  0.00  0.00    +0.163 A 
ATOM     29  C   UNL     1      11.546  -4.392   5.363  0.00  0.00    +0.201 A 
ATOM     30  C   UNL     1      11.793  -5.744   5.139  0.00  0.00    +0.163 A 
ATOM     31  C   UNL     1      11.058  -6.435   4.194  0.00  0.00    +0.064 A 
BRANCH  30  32
ATOM     32  O   UNL     1      12.753  -6.387   5.856  0.00  0.00    -0.503 OA
ATOM     33  H   UNL     1      12.431  -6.784   6.678  0.00  0.00    +0.292 HD
ENDBRANCH  30  32
BRANCH  29  34
ATOM     34  O   UNL     1      12.265  -3.717   6.298  0.00  0.00    -0.501 OA
ATOM     35  H   UNL     1      11.873  -3.732   7.182  0.00  0.00    +0.292 HD
ENDBRANCH  29  34
BRANCH  28  36
ATOM     36  O   UNL     1      10.325  -2.410   4.851  0.00  0.00    -0.503 OA
ATOM     37  H   UNL     1       9.656  -2.239   5.528  0.00  0.00    +0.292 HD
ENDBRANCH  28  36
ENDBRANCH  24  26
ENDBRANCH  23  24
ENDBRANCH   5  23
TORSDOF 12
