REMARK  Name = ZINC12098816
REMARK  11 active torsions:
REMARK  status: ('A' for Active; 'I' for Inactive)
REMARK    1  A    between atoms: C_1  and  C_2
REMARK    2  A    between atoms: C_2  and  C_3
REMARK    3  A    between atoms: C_3  and  C_14
REMARK    4  A    between atoms: N_6  and  C_10
REMARK    5  A    between atoms: C_10  and  C_11
REMARK    6  A    between atoms: C_11  and  C_13
REMARK    7  A    between atoms: C_19  and  C_20
REMARK    8  A    between atoms: C_19  and  N_67
REMARK    9  A    between atoms: C_20  and  C_22
REMARK   10  A    between atoms: C_20  and  C_23
REMARK   11  A    between atoms: C_23  and  C_24
REMARK                            x       y       z     vdW  Elec       q    Type
REMARK                         _______ _______ _______ _____ _____    ______ ____
ROOT
ATOM      1  C   UNL     1       0.317   4.276   0.783  0.00  0.00    +0.018 C 
ATOM      2  C   UNL     1       1.187   3.583  -0.270  0.00  0.00    -0.013 C 
ATOM      3  C   UNL     1       1.297   2.094   0.066  0.00  0.00    -0.078 C 
ATOM      4  C   UNL     1      -0.882   2.113   1.126  0.00  0.00    -0.078 C 
ATOM      5  C   UNL     1      -1.057   3.602   0.822  0.00  0.00    -0.013 C 
ATOM      6  N   UNL     1      -0.057   1.500   0.064  0.00  0.00    +0.380 N 
ATOM      7  H   UNL     1      -0.498   1.679  -0.846  0.00  0.00    -0.082 HD
ENDROOT
BRANCH   1   8
ATOM      8  C   UNL     1       0.154   5.753   0.419  0.00  0.00    +0.115 C 
ATOM      9  C   UNL     1       1.505   6.437   0.350  0.00  0.00    +0.247 C 
ATOM     10  O   UNL     1       2.307   6.566   1.250  0.00  0.00    -0.273 OA
ATOM     11  N   UNL     1       1.629   6.872  -0.919  0.00  0.00    -0.220 N 
ATOM     12  C   UNL     1       0.555   6.561  -1.654  0.00  0.00    +0.310 C 
ATOM     13  O   UNL     1       0.434   6.848  -2.829  0.00  0.00    -0.252 OA
ATOM     14  N   UNL     1      -0.376   5.895  -0.948  0.00  0.00    -0.285 N 
ATOM     15  H   UNL     1      -1.230   5.571  -1.275  0.00  0.00    +0.151 HD
BRANCH   8  17
ATOM     16  C   UNL     1      -1.002   7.897   0.975  0.00  0.00    +0.006 C 
ATOM     17  C   UNL     1      -0.755   6.457   1.429  0.00  0.00    +0.032 C 
ENDBRANCH   8  17
BRANCH  11  18
ATOM     18  C   UNL     1       2.795   7.596  -1.431  0.00  0.00    +0.148 C 
BRANCH  18  19
ATOM     19  C   UNL     1       3.800   6.611  -1.970  0.00  0.00    -0.062 C 
ATOM     20  C   UNL     1       3.812   6.319  -3.247  0.00  0.00    +0.009 C 
ATOM     21  C   UNL     1       4.792   5.962  -1.040  0.00  0.00    +0.040 C 
ENDBRANCH  18  19
ENDBRANCH  11  18
ENDBRANCH   1   8
BRANCH   6  22
ATOM     22  C   UNL     1       0.033   0.040   0.274  0.00  0.00    -0.075 C 
BRANCH  22  23
ATOM     23  C   UNL     1      -1.381  -0.535   0.386  0.00  0.00    -0.026 C 
ATOM     24  C   UNL     1      -1.300  -2.045   0.621  0.00  0.00    +0.006 C 
BRANCH  23  25
ATOM     25  C   UNL     1      -2.147  -0.261  -0.910  0.00  0.00    +0.036 C 
BRANCH  25  26
ATOM     26  C   UNL     1      -3.575  -0.717  -0.755  0.00  0.00    -0.043 A 
ATOM     27  C   UNL     1      -3.927  -2.009  -1.098  0.00  0.00    +0.007 A 
ATOM     28  C   UNL     1      -5.235  -2.434  -0.953  0.00  0.00    +0.050 A 
ATOM     29  C   UNL     1      -6.198  -1.561  -0.473  0.00  0.00    +0.166 A 
ATOM     30  C   UNL     1      -5.844  -0.258  -0.133  0.00  0.00    +0.166 A 
ATOM     31  C   UNL     1      -4.531   0.159  -0.276  0.00  0.00    +0.053 A 
ATOM     32  O   UNL     1      -6.958   0.396   0.308  0.00  0.00    -0.453 OA
ATOM     33  C   UNL     1      -8.073  -0.392  -0.150  0.00  0.00    +0.466 C 
ATOM     34  O   UNL     1      -7.534  -1.724  -0.245  0.00  0.00    -0.453 OA
ENDBRANCH  25  26
ENDBRANCH  23  25
ENDBRANCH  22  23
ENDBRANCH   6  22
TORSDOF 8
