REMARK  Name = ZINC43743504
REMARK  13 active torsions:
REMARK  status: ('A' for Active; 'I' for Inactive)
REMARK    1  A    between atoms: CD1_1  and  CG1_2
REMARK    2  A    between atoms: CG1_2  and  CB_3
REMARK    3  A    between atoms: CB_3  and  CG2_5
REMARK    4  A    between atoms: CB_3  and  CA_6
REMARK    5  A    between atoms: CA_6  and  C_8
REMARK    6  A    between atoms: CA_6  and  N_11
REMARK    7  A    between atoms: C_12  and  C_14
REMARK    8  A    between atoms: C_14  and  O_15
REMARK    9  A    between atoms: O_15  and  N_16
REMARK   10  A    between atoms: C_20  and  C_42
REMARK   11  A    between atoms: C_25  and  C_41
REMARK   12  A    between atoms: C_36  and  C_38
REMARK   13  A    between atoms: C_38  and  C_40
REMARK                            x       y       z     vdW  Elec       q    Type
REMARK                         _______ _______ _______ _____ _____    ______ ____
ROOT
ATOM      1  N   UNK A   0       4.685  -6.154   5.772  0.00  0.00    -0.089 NA
ATOM      2  C   UNK A   0       4.978  -7.388   5.511  0.00  0.00    +0.080 C 
ATOM      3  C   UNK A   0       4.615  -8.038   4.189  0.00  0.00    +0.059 C 
ATOM      4  C   UNK A   0       3.872  -9.336   4.503  0.00  0.00    +0.017 C 
ATOM      5  C   UNK A   0       4.665 -10.248   5.406  0.00  0.00    -0.007 C 
ATOM      6  C   UNK A   0       5.494 -11.258   4.610  0.00  0.00    +0.002 C 
ATOM      7  C   UNK A   0       4.587 -12.019   3.649  0.00  0.00    +0.005 C 
ATOM      8  C   UNK A   0       5.348 -13.135   2.915  0.00  0.00    +0.008 C 
ATOM      9  C   UNK A   0       5.933 -14.050   3.973  0.00  0.00    -0.019 C 
ATOM     10  C   UNK A   0       6.971 -13.220   4.777  0.00  0.00    -0.001 C 
ATOM     11  C   UNK A   0       6.177 -12.220   5.597  0.00  0.00    -0.003 C 
ATOM     12  C   UNK A   0       7.130 -11.444   6.506  0.00  0.00    +0.008 C 
ATOM     13  C   UNK A   0       6.341 -10.439   7.354  0.00  0.00    +0.031 C 
ATOM     14  C   UNK A   0       5.542  -9.561   6.406  0.00  0.00    -0.062 C 
ATOM     15  C   UNK A   0       5.690  -8.244   6.481  0.00  0.00    +0.026 C 
ATOM     16  C   UNK A   0       7.693 -14.312   5.573  0.00  0.00    +0.005 C 
ATOM     17  C   UNK A   0       7.858 -15.451   4.530  0.00  0.00    +0.012 C 
ATOM     18  C   UNK A   0       6.749 -15.237   3.470  0.00  0.00    +0.061 C 
ATOM     19  C   UNK A   0       4.824 -14.541   4.905  0.00  0.00    +0.012 C 
ATOM     20  C   UNK A   0       3.651 -11.071   6.203  0.00  0.00    +0.016 C 
ENDROOT
BRANCH  18  21
ATOM     21  C   UNK A   0       7.361 -14.919   2.131  0.00  0.00    +0.134 C 
ATOM     22  O   UNK A   0       7.651 -13.780   1.854  0.00  0.00    -0.297 OA
ATOM     23  C   UNK A   0       7.612 -16.023   1.136  0.00  0.00    +0.086 C 
ENDBRANCH  18  21
BRANCH   1  24
ATOM     24  O   UNK A   0       4.001  -5.370   4.811  0.00  0.00    -0.384 OA
BRANCH  24  25
ATOM     25  C   UNK A   0       3.743  -4.029   5.231  0.00  0.00    +0.358 C 
BRANCH  25  27
ATOM     26  N   ILE A   1       2.666  -2.001   4.312  0.00  0.00    -0.299 N 
ATOM     27  C   UNK A   0       3.015  -3.291   4.138  0.00  0.00    +0.254 C 
ATOM     28  O   UNK A   0       2.744  -3.858   3.100  0.00  0.00    -0.272 OA
ATOM     29  H   ILE A   1       2.883  -1.548   5.142  0.00  0.00    +0.150 HD
BRANCH  26  30
ATOM     30  CA  ILE A   1       1.958  -1.283   3.249  0.00  0.00    +0.189 C 
BRANCH  30  31
ATOM     31  C   ILE A   1       0.479  -1.549   3.362  0.00  0.00    +0.376 C 
ATOM     32  O   ILE A   1      -0.219  -1.543   2.363  0.00  0.00    -0.244 OA
ATOM     33  OXT ILE A   1      -0.019  -1.769   4.453  0.00  0.00    -0.244 OA
ENDBRANCH  30  31
BRANCH  30  34
ATOM     34  CB  ILE A   1       2.219   0.218   3.386  0.00  0.00    +0.017 C 
ATOM     35  CG2 ILE A   1       3.721   0.488   3.271  0.00  0.00    +0.010 C 
BRANCH  34  37
ATOM     36  CD1 ILE A   1       1.638   2.475   2.485  0.00  0.00    +0.004 C 
ATOM     37  CG1 ILE A   1       1.480   0.968   2.275  0.00  0.00    +0.002 C 
ENDBRANCH  34  37
ENDBRANCH  30  34
ENDBRANCH  26  30
ENDBRANCH  25  27
ENDBRANCH  24  25
ENDBRANCH   1  24
TORSDOF 8
