REMARK  Name = ZINC08799007
REMARK  8 active torsions:
REMARK  status: ('A' for Active; 'I' for Inactive)
REMARK    1  A    between atoms: C_1  and  N_2
REMARK    2  A    between atoms: C_10  and  C_12
REMARK    3  A    between atoms: C_12  and  C_14
REMARK    4  A    between atoms: C_12  and  N_59
REMARK    5  A    between atoms: C_14  and  N_15
REMARK    6  A    between atoms: N_15  and  S_16
REMARK    7  A    between atoms: S_16  and  C_19
REMARK    8  A    between atoms: C_24  and  N_25
REMARK                            x       y       z     vdW  Elec       q    Type
REMARK                         _______ _______ _______ _____ _____    ______ ____
ROOT
ATOM      1  C   UNL     1       3.293  -1.016   3.660  0.00  0.00    -0.022 C 
ENDROOT
BRANCH   1  11
ATOM      2  C   UNL     1       0.231   1.467  -1.275  0.00  0.00    +0.129 C 
ATOM      3  N   UNL     1       1.635   1.787  -0.988  0.00  0.00    -0.333 N 
ATOM      4  C   UNL     1       1.847   3.235  -0.951  0.00  0.00    +0.105 C 
ATOM      5  C   UNL     1       3.320   3.508  -0.621  0.00  0.00    +0.024 C 
ATOM      6  C   UNL     1       3.567   3.071   0.825  0.00  0.00    +0.038 C 
ATOM      7  C   UNL     1       2.981   1.699   1.047  0.00  0.00    -0.026 A 
ATOM      8  C   UNL     1       2.068   1.141   0.169  0.00  0.00    +0.033 A 
ATOM      9  C   UNL     1       1.548  -0.127   0.437  0.00  0.00    +0.023 A 
ATOM     10  C   UNL     1       1.942  -0.820   1.561  0.00  0.00    +0.004 A 
ATOM     11  C   UNL     1       2.858  -0.260   2.432  0.00  0.00    -0.059 A 
ATOM     12  C   UNL     1       3.374   0.995   2.174  0.00  0.00    +0.007 A 
ENDBRANCH   1  11
BRANCH   1  17
ATOM     13  C   UNL     1       2.530  -2.481   5.450  0.00  0.00    -0.078 C 
ATOM     14  C   UNL     1       1.192  -2.669   6.208  0.00  0.00    -0.020 C 
ATOM     15  C   UNL     1       0.473  -1.319   5.981  0.00  0.00    -0.020 C 
ATOM     16  C   UNL     1       1.126  -0.723   4.720  0.00  0.00    -0.078 C 
ATOM     17  N   UNL     1       2.115  -1.704   4.271  0.00  0.00    +0.385 N 
ATOM     18  H   UNL     1       1.692  -2.329   3.575  0.00  0.00    -0.081 HD
ENDBRANCH   1  17
BRANCH   1  19
ATOM     19  C   UNL     1       4.351  -2.051   3.274  0.00  0.00    +0.095 C 
BRANCH  19  20
ATOM     20  N   UNL     1       5.539  -1.366   2.758  0.00  0.00    -0.191 NA
ATOM     21  H   UNL     1       5.487  -0.432   2.502  0.00  0.00    +0.148 HD
BRANCH  20  22
ATOM     22  S   UNL     1       6.970  -2.186   2.610  0.00  0.00    +0.061 S 
ATOM     23  O   UNL     1       7.886  -1.296   1.988  0.00  0.00    -0.153 OA
ATOM     24  O   UNL     1       7.227  -2.785   3.873  0.00  0.00    -0.153 OA
BRANCH  22  25
ATOM     25  C   UNL     1       6.699  -3.505   1.473  0.00  0.00    +0.135 A 
ATOM     26  C   UNL     1       6.832  -4.816   1.891  0.00  0.00    +0.031 A 
ATOM     27  C   UNL     1       6.615  -5.851   1.001  0.00  0.00    +0.002 A 
ATOM     28  C   UNL     1       6.275  -5.575  -0.310  0.00  0.00    +0.002 A 
ATOM     29  C   UNL     1       6.147  -4.264  -0.730  0.00  0.00    +0.035 A 
ATOM     30  C   UNL     1       6.359  -3.229   0.162  0.00  0.00    +0.152 A 
BRANCH  30  31
ATOM     31  N   UNL     1       6.222  -1.825  -0.287  0.00  0.00    +0.058 N 
ATOM     32  O   UNL     1       6.050  -1.577  -1.467  0.00  0.00    -0.126 OA
ATOM     33  O   UNL     1       6.282  -0.918   0.524  0.00  0.00    -0.126 OA
ENDBRANCH  30  31
ENDBRANCH  22  25
ENDBRANCH  20  22
ENDBRANCH  19  20
ENDBRANCH   1  19
TORSDOF 7
