REMARK  Name = ZINC58826998
REMARK  8 active torsions:
REMARK  status: ('A' for Active; 'I' for Inactive)
REMARK    1  A    between atoms: C_1  and  C_2
REMARK    2  A    between atoms: C_4  and  N_34
REMARK    3  A    between atoms: C_7  and  C_8
REMARK    4  A    between atoms: C_11  and  C_13
REMARK    5  A    between atoms: N_14  and  C_15
REMARK    6  A    between atoms: C_16  and  C_24
REMARK    7  A    between atoms: N_26  and  C_27
REMARK    8  A    between atoms: C_27  and  C_28
REMARK                            x       y       z     vdW  Elec       q    Type
REMARK                         _______ _______ _______ _____ _____    ______ ____
ROOT
ATOM      1  C   UNL     1       2.797   4.103   4.839  0.00  0.00    +0.114 A 
ATOM      2  C   UNL     1       3.901   4.973   4.397  0.00  0.00    +0.073 A 
ATOM      3  C   UNL     1       4.315   5.903   5.322  0.00  0.00    -0.023 A 
ATOM      4  C   UNL     1       3.648   5.911   6.554  0.00  0.00    -0.004 A 
ATOM      5  S   UNL     1       2.487   4.714   6.484  0.00  0.00    -0.073 S 
ATOM      6  C   UNL     1       3.935   6.832   7.707  0.00  0.00    +0.043 C 
ATOM      7  C   UNL     1       5.301   7.489   7.471  0.00  0.00    +0.005 C 
ATOM      8  C   UNL     1       5.348   8.041   6.044  0.00  0.00    +0.005 C 
ATOM      9  C   UNL     1       5.445   6.891   5.041  0.00  0.00    +0.037 C 
ENDROOT
BRANCH   2  10
ATOM     10  C   UNL     1       4.518   4.854   3.058  0.00  0.00    +0.247 C 
ATOM     11  O   UNL     1       4.075   5.496   2.126  0.00  0.00    -0.270 OA
ATOM     12  N   UNL     1       5.571   4.035   2.872  0.00  0.00    -0.307 N 
ATOM     13  H   UNL     1       5.925   3.522   3.616  0.00  0.00    +0.149 HD
BRANCH  12  14
ATOM     14  C   UNL     1       6.183   3.917   1.545  0.00  0.00    +0.139 C 
BRANCH  14  15
ATOM     15  C   UNL     1       7.332   2.945   1.606  0.00  0.00    -0.030 A 
ATOM     16  C   UNL     1       8.604   3.397   1.904  0.00  0.00    +0.005 A 
ATOM     17  C   UNL     1       9.659   2.505   1.960  0.00  0.00    +0.000 A 
ATOM     18  C   UNL     1       9.442   1.162   1.719  0.00  0.00    +0.000 A 
ATOM     19  C   UNL     1       8.170   0.710   1.422  0.00  0.00    +0.000 A 
ATOM     20  C   UNL     1       7.114   1.601   1.370  0.00  0.00    +0.005 A 
ENDBRANCH  14  15
ENDBRANCH  12  14
ENDBRANCH   2  10
BRANCH   1  22
ATOM     21  C   UNL     1       1.198   2.454   4.762  0.00  0.00    +0.158 C 
ATOM     22  N   UNL     1       2.191   3.127   4.184  0.00  0.00    -0.244 NA
BRANCH  21  26
ATOM     23  C   UNL     1       0.026   0.004   2.490  0.00  0.00    +0.136 A 
ATOM     24  C   UNL     1      -0.831  -0.248   3.575  0.00  0.00    +0.050 A 
ATOM     25  C   UNL     1      -0.504   0.634   4.564  0.00  0.00    +0.051 A 
ATOM     26  C   UNL     1       0.560   1.428   4.074  0.00  0.00    +0.147 A 
ATOM     27  O   UNL     1       0.852   1.011   2.822  0.00  0.00    -0.454 OA
BRANCH  23  34
ATOM     28  C   UNL     1      -0.018   1.503   0.010  0.00  0.00    +0.044 C 
ATOM     29  C   UNL     1       0.002  -0.004   0.002  0.00  0.00    -0.038 A 
ATOM     30  C   UNL     1       0.006  -0.688  -1.193  0.00  0.00    +0.036 A 
ATOM     31  C   UNL     1       0.025  -2.074  -1.203  0.00  0.00    +0.126 A 
ATOM     32  C   UNL     1       0.039  -2.785  -0.013  0.00  0.00    +0.033 A 
ATOM     33  C   UNL     1       0.035  -2.119   1.192  0.00  0.00    +0.014 A 
ATOM     34  C   UNL     1       0.023  -0.715   1.213  0.00  0.00    +0.020 A 
BRANCH  31  35
ATOM     35  N   UNL     1       0.028  -2.800  -2.493  0.00  0.00    +0.056 N 
ATOM     36  O   UNL     1       0.014  -2.129  -3.626  0.00  0.00    -0.126 OA
ATOM     37  O   UNL     1       0.046  -4.117  -2.508  0.00  0.00    -0.126 OA
ENDBRANCH  31  35
ENDBRANCH  23  34
ENDBRANCH  21  26
ENDBRANCH   1  22
TORSDOF 7
