REMARK  Name = ZINC34957776
REMARK  4 active torsions:
REMARK  status: ('A' for Active; 'I' for Inactive)
REMARK    1  A    between atoms: C_5  and  N_7
REMARK    2  A    between atoms: N_7  and  S_8
REMARK    3  A    between atoms: S_8  and  C_11
REMARK    4  A    between atoms: C_16  and  N_17
REMARK                            x       y       z     vdW  Elec       q    Type
REMARK                         _______ _______ _______ _____ _____    ______ ____
ROOT
ATOM      1  S   UNL     1      -0.007  -2.936  -0.734  0.00  0.00    +0.074 S 
ATOM      2  O   UNL     1       0.117  -4.335  -0.520  0.00  0.00    -0.150 OA
ATOM      3  O   UNL     1      -1.141  -2.197  -0.301  0.00  0.00    -0.150 OA
ENDROOT
BRANCH   1   4
ATOM      4  C   UNL     1       0.128  -2.678  -2.471  0.00  0.00    +0.129 A 
ATOM      5  C   UNL     1      -0.813  -1.913  -3.132  0.00  0.00    +0.033 A 
ATOM      6  C   UNL     1      -0.708  -1.709  -4.495  0.00  0.00    +0.040 A 
ATOM      7  C   UNL     1       0.341  -2.272  -5.203  0.00  0.00    +0.125 A 
ATOM      8  C   UNL     1       1.286  -3.039  -4.547  0.00  0.00    +0.063 A 
ATOM      9  C   UNL     1       1.185  -3.240  -3.177  0.00  0.00    +0.054 A 
ATOM     10  F   UNL     1       0.441  -2.071  -6.536  0.00  0.00    -0.205 F 
BRANCH   9  11
ATOM     11  N   UNL     1       2.141  -4.009  -2.510  0.00  0.00    -0.356 N 
ATOM     12  H   UNL     1       2.112  -4.088  -1.543  0.00  0.00    +0.142 HD
ATOM     13  H   UNL     1       2.834  -4.465  -3.013  0.00  0.00    +0.142 HD
ENDBRANCH   9  11
ENDBRANCH   1   4
BRANCH   1  14
ATOM     14  N   UNL     1       1.315  -2.231  -0.029  0.00  0.00    -0.215 N 
ATOM     15  H   UNL     1       1.932  -2.769   0.491  0.00  0.00    +0.174 HD
BRANCH  14  20
ATOM     16  C   UNL     1       0.697   1.374  -0.389  0.00  0.00    +0.002 A 
ATOM     17  C   UNL     1       1.990   1.853  -0.491  0.00  0.00    +0.001 A 
ATOM     18  C   UNL     1       3.060   0.978  -0.440  0.00  0.00    +0.016 A 
ATOM     19  C   UNL     1       2.840  -0.377  -0.287  0.00  0.00    +0.036 A 
ATOM     20  C   UNL     1       1.541  -0.861  -0.184  0.00  0.00    +0.061 A 
ATOM     21  C   UNL     1       0.469   0.021  -0.236  0.00  0.00    +0.025 A 
ATOM     22  I   UNL     1       4.462  -1.701  -0.210  0.00  0.00    -0.042 I 
ENDBRANCH  14  20
ENDBRANCH   1  14
TORSDOF 4
