REMARK  Name = ZINC28427777
REMARK  12 active torsions:
REMARK  status: ('A' for Active; 'I' for Inactive)
REMARK    1  A    between atoms: C_1  and  C_2
REMARK    2  A    between atoms: C_5  and  C_8
REMARK    3  A    between atoms: C_8  and  O_9
REMARK    4  A    between atoms: O_9  and  C_10
REMARK    5  A    between atoms: C_11  and  C_18
REMARK    6  A    between atoms: C_18  and  N_19
REMARK    7  A    between atoms: N_19  and  C_20
REMARK    8  A    between atoms: C_20  and  C_21
REMARK    9  A    between atoms: C_21  and  C_22
REMARK   10  A    between atoms: C_22  and  S_23
REMARK   11  A    between atoms: S_23  and  C_24
REMARK   12  A    between atoms: N_28  and  C_29
REMARK                            x       y       z     vdW  Elec       q    Type
REMARK                         _______ _______ _______ _____ _____    ______ ____
ROOT
ATOM      1  C   UNL     1      -0.795   1.527  -1.120  0.00  0.00    -0.043 C 
ENDROOT
BRANCH   1   3
ATOM      2  C   UNL     1      -3.132   1.477  -0.211  0.00  0.00    +0.141 A 
ATOM      3  C   UNL     1      -2.186   0.947  -1.076  0.00  0.00    -0.020 A 
ATOM      4  C   UNL     1      -2.517  -0.116  -1.894  0.00  0.00    +0.025 A 
ATOM      5  C   UNL     1      -3.793  -0.650  -1.855  0.00  0.00    +0.043 A 
ATOM      6  C   UNL     1      -4.740  -0.120  -0.997  0.00  0.00    +0.043 A 
ATOM      7  C   UNL     1      -4.413   0.944  -0.177  0.00  0.00    +0.084 A 
ATOM      8 CL   UNL     1      -5.602   1.609   0.899  0.00  0.00    -0.080 Cl
ATOM      9 CL   UNL     1      -4.206  -1.986  -2.883  0.00  0.00    -0.083 Cl
BRANCH   2  10
ATOM     10  O   UNL     1      -2.806   2.519   0.598  0.00  0.00    -0.486 OA
BRANCH  10  11
ATOM     11  C   UNL     1      -3.019   3.834   0.081  0.00  0.00    +0.264 C 
BRANCH  11  16
ATOM     12  C   UNL     1      -1.427   7.741   4.029  0.00  0.00    +0.044 C 
ATOM     13  C   UNL     1      -1.842   6.722   2.999  0.00  0.00    -0.050 A 
ATOM     14  C   UNL     1      -0.923   6.257   2.077  0.00  0.00    +0.004 A 
ATOM     15  C   UNL     1      -1.304   5.323   1.133  0.00  0.00    +0.007 A 
ATOM     16  C   UNL     1      -2.604   4.853   1.110  0.00  0.00    -0.010 A 
ATOM     17  C   UNL     1      -3.524   5.322   2.029  0.00  0.00    +0.007 A 
ATOM     18  C   UNL     1      -3.142   6.253   2.977  0.00  0.00    +0.004 A 
ENDBRANCH  11  16
ENDBRANCH  10  11
ENDBRANCH   2  10
ENDBRANCH   1   3
BRANCH   1  19
ATOM     19  N   UNL     1      -0.012   1.005   0.008  0.00  0.00    +0.382 N 
ATOM     20  H   UNL     1      -0.497   1.287   0.954  0.00  0.00    -0.085 HD
ATOM     21  H   UNL     1       0.046  -0.091  -0.062  0.00  0.00    -0.085 HD
BRANCH  19  22
ATOM     22  C   UNL     1       1.353   1.550  -0.003  0.00  0.00    -0.081 C 
BRANCH  22  23
ATOM     23  C   UNL     1       2.136   0.985   1.184  0.00  0.00    -0.008 C 
BRANCH  23  24
ATOM     24  C   UNL     1       3.557   1.552   1.173  0.00  0.00    +0.075 C 
BRANCH  24  25
ATOM     25  S   UNL     1       4.484   0.883   2.576  0.00  0.00    -0.084 S 
BRANCH  25  26
ATOM     26  C   UNL     1       6.036   1.680   2.325  0.00  0.00    +0.214 A 
ATOM     27  N   UNL     1       6.338   2.515   1.355  0.00  0.00    -0.101 NA
ATOM     28  N   UNL     1       7.554   2.913   1.466  0.00  0.00    -0.022 NA
ATOM     29  N   UNL     1       8.111   2.373   2.495  0.00  0.00    -0.038 NA
ATOM     30  N   UNL     1       7.143   1.552   3.099  0.00  0.00    -0.187 N 
BRANCH  30  31
ATOM     31  C   UNL     1       7.290   0.769   4.253  0.00  0.00    +0.070 A 
ATOM     32  C   UNL     1       6.223   0.611   5.127  0.00  0.00    +0.028 A 
ATOM     33  C   UNL     1       6.369  -0.166   6.260  0.00  0.00    +0.002 A 
ATOM     34  C   UNL     1       7.580  -0.777   6.529  0.00  0.00    +0.000 A 
ATOM     35  C   UNL     1       8.646  -0.617   5.663  0.00  0.00    +0.002 A 
ATOM     36  C   UNL     1       8.504   0.154   4.526  0.00  0.00    +0.028 A 
ENDBRANCH  30  31
ENDBRANCH  25  26
ENDBRANCH  24  25
ENDBRANCH  23  24
ENDBRANCH  22  23
ENDBRANCH  19  22
ENDBRANCH   1  19
TORSDOF 11
