REMARK  Name = ZINC09349771
REMARK  6 active torsions:
REMARK  status: ('A' for Active; 'I' for Inactive)
REMARK    1  A    between atoms: C_6  and  C_7
REMARK    2  A    between atoms: C_13  and  O_30
REMARK    3  A    between atoms: C_14  and  C_22
REMARK    4  A    between atoms: C_17  and  C_18
REMARK    5  A    between atoms: C_22  and  N_53
REMARK    6  A    between atoms: C_26  and  C_28
REMARK                            x       y       z     vdW  Elec       q    Type
REMARK                         _______ _______ _______ _____ _____    ______ ____
ROOT
ATOM      1  C   UNL     1      -3.866  -0.549   0.168  0.00  0.00    +0.077 A 
ATOM      2  C   UNL     1      -4.184  -1.485   1.261  0.00  0.00    +0.201 A 
ATOM      3  O   UNL     1      -3.580  -1.461   2.319  0.00  0.00    -0.286 OA
ATOM      4  C   UNL     1      -5.270  -2.451   1.012  0.00  0.00    +0.065 A 
ATOM      5  C   UNL     1      -5.649  -3.379   1.983  0.00  0.00    +0.019 A 
ATOM      6  C   UNL     1      -6.659  -4.260   1.720  0.00  0.00    +0.046 A 
ATOM      7  C   UNL     1      -7.311  -4.235   0.489  0.00  0.00    +0.122 A 
ATOM      8  C   UNL     1      -6.947  -3.320  -0.483  0.00  0.00    +0.020 A 
ATOM      9  C   UNL     1      -5.921  -2.417  -0.233  0.00  0.00    +0.144 A 
ATOM     10  O   UNL     1      -5.555  -1.519  -1.168  0.00  0.00    -0.450 OA
ATOM     11  C   UNL     1      -4.582  -0.624  -0.984  0.00  0.00    +0.219 A 
ENDROOT
BRANCH   1  17
ATOM     12  C   UNL     1      -3.109   1.811   0.436  0.00  0.00    +0.012 A 
ATOM     13  C   UNL     1      -2.106   2.747   0.579  0.00  0.00    +0.050 A 
ATOM     14  C   UNL     1      -0.778   2.348   0.619  0.00  0.00    +0.162 A 
ATOM     15  C   UNL     1      -0.453   0.999   0.511  0.00  0.00    +0.163 A 
ATOM     16  C   UNL     1      -1.456   0.056   0.364  0.00  0.00    +0.058 A 
ATOM     17  C   UNL     1      -2.790   0.459   0.326  0.00  0.00    -0.007 A 
ATOM     18  O   UNL     1       0.845   0.590   0.550  0.00  0.00    -0.485 OA
ATOM     19  C   UNL     1       1.842   1.591   0.321  0.00  0.00    +0.270 C 
ATOM     20  C   UNL     1       1.488   2.823   1.165  0.00  0.00    +0.270 C 
ATOM     21  O   UNL     1       0.197   3.289   0.759  0.00  0.00    -0.485 OA
ENDBRANCH   1  17
BRANCH  11  22
ATOM     22  C   UNL     1      -4.261   0.338  -2.099  0.00  0.00    +0.451 C 
ATOM     23  F   UNL     1      -2.886   0.307  -2.360  0.00  0.00    -0.163 F 
ATOM     24  F   UNL     1      -4.962  -0.034  -3.251  0.00  0.00    -0.163 F 
ATOM     25  F   UNL     1      -4.635   1.632  -1.721  0.00  0.00    -0.163 F 
ENDBRANCH  11  22
BRANCH   7  26
ATOM     26  O   UNL     1      -8.314  -5.116   0.242  0.00  0.00    -0.506 OA
ATOM     27  H   UNL     1      -9.191  -4.795   0.493  0.00  0.00    +0.292 HD
ENDBRANCH   7  26
BRANCH   8  28
ATOM     28  C   UNL     1      -7.660  -3.304  -1.811  0.00  0.00    -0.034 C 
BRANCH  28  33
ATOM     29  C   UNL     1      -9.920  -3.003  -0.955  0.00  0.00    -0.077 C 
ATOM     30  C   UNL     1     -11.180  -2.233  -1.405  0.00  0.00    -0.020 C 
ATOM     31  C   UNL     1     -10.836  -1.683  -2.804  0.00  0.00    -0.006 C 
ATOM     32  C   UNL     1      -9.397  -2.167  -3.083  0.00  0.00    +0.047 C 
ATOM     33  N   UNL     1      -8.846  -2.393  -1.749  0.00  0.00    +0.392 N 
ATOM     34  H   UNL     1      -8.563  -1.500  -1.330  0.00  0.00    -0.080 HD
BRANCH  32  35
ATOM     35  C   UNL     1      -8.618  -1.109  -3.822  0.00  0.00    +0.343 C 
ATOM     36  O   UNL     1      -7.665  -0.584  -3.297  0.00  0.00    -0.248 OA
ATOM     37  O   UNL     1      -8.983  -0.751  -5.063  0.00  0.00    -0.248 OA
ENDBRANCH  32  35
ENDBRANCH  28  33
ENDBRANCH   8  28
TORSDOF 6
