REMARK  Name = ZINC38653734
REMARK  9 active torsions:
REMARK  status: ('A' for Active; 'I' for Inactive)
REMARK    1  A    between atoms: C_1  and  C_2
REMARK    2  A    between atoms: C_11  and  C_31
REMARK    3  A    between atoms: C_19  and  O_27
REMARK    4  A    between atoms: C_21  and  C_26
REMARK    5  A    between atoms: O_27  and  C_28
REMARK    6  A    between atoms: C_28  and  C_30
REMARK    7  A    between atoms: C_36  and  C_40
REMARK    8  A    between atoms: C_40  and  C_41
REMARK    9  A    between atoms: C_41  and  C_43
REMARK                            x       y       z     vdW  Elec       q    Type
REMARK                         _______ _______ _______ _____ _____    ______ ____
ROOT
ATOM      1  C   UNL     1       0.181   1.523   0.433  0.00  0.00    +0.009 C 
ATOM      2  C   UNL     1       0.091   0.006   0.469  0.00  0.00    +0.006 C 
ATOM      3  C   UNL     1      -1.276  -0.600   0.291  0.00  0.00    +0.028 C 
ATOM      4  C   UNL     1      -1.585  -1.062   1.764  0.00  0.00    +0.121 C 
ATOM      5  C   UNL     1      -2.986  -1.587   1.723  0.00  0.00    +0.036 C 
ATOM      6  C   UNL     1      -3.533  -1.097   0.364  0.00  0.00    +0.002 C 
ATOM      7  C   UNL     1      -2.585   0.082  -0.030  0.00  0.00    -0.023 C 
ATOM      8  C   UNL     1      -2.783   0.417  -1.497  0.00  0.00    +0.007 C 
ATOM      9  C   UNL     1      -4.207   0.051  -1.953  0.00  0.00    +0.005 C 
ATOM     10  C   UNL     1      -5.195   0.302  -0.827  0.00  0.00    +0.003 C 
ATOM     11  C   UNL     1      -4.973  -0.748   0.277  0.00  0.00    +0.004 C 
ATOM     12  C   UNL     1      -5.657  -0.225   1.535  0.00  0.00    +0.078 C 
ATOM     13  C   UNL     1      -7.126  -0.100   1.185  0.00  0.00    +0.109 C 
ATOM     14  C   UNL     1      -7.550   0.125  -0.026  0.00  0.00    -0.025 C 
ATOM     15  C   UNL     1      -6.650   0.310  -1.230  0.00  0.00    -0.005 C 
ATOM     16  C   UNL     1      -7.007  -0.748  -2.265  0.00  0.00    +0.011 C 
ATOM     17  C   UNL     1      -8.499  -0.673  -2.598  0.00  0.00    +0.001 C 
ATOM     18  C   UNL     1      -9.361  -0.862  -1.352  0.00  0.00    +0.004 C 
ATOM     19  C   UNL     1      -9.042   0.216  -0.306  0.00  0.00    +0.034 C 
ATOM     20  C   UNL     1      -6.935   1.692  -1.823  0.00  0.00    +0.016 C 
ATOM     21  C   UNL     1      -2.844   1.308   0.835  0.00  0.00    +0.012 C 
ATOM     22  O   UNL     1      -0.390  -1.623   2.186  0.00  0.00    -0.388 OA
ATOM     23  C   UNL     1       0.596  -0.619   1.799  0.00  0.00    +0.040 C 
ATOM     24  C   UNL     1       1.931  -1.314   1.541  0.00  0.00    +0.016 C 
ATOM     25  C   UNL     1       2.420  -1.979   2.830  0.00  0.00    +0.003 C 
ATOM     26  C   UNL     1       2.484  -0.930   3.944  0.00  0.00    -0.021 C 
ATOM     27  C   UNL     1       1.105  -0.290   4.115  0.00  0.00    -0.075 C 
ATOM     28  N   UNL     1       0.721   0.376   2.856  0.00  0.00    +0.399 N 
ATOM     29  H   UNL     1       1.452   1.036   2.629  0.00  0.00    -0.082 HD
ATOM     30  H   UNL     1      -0.152   0.853   3.002  0.00  0.00    -0.082 HD
ENDROOT
BRANCH  13  31
ATOM     31  O   UNL     1      -8.029  -0.230   2.190  0.00  0.00    -0.430 OA
BRANCH  31  32
ATOM     32  C   UNL     1      -8.041   0.707   3.151  0.00  0.00    +0.309 C 
ATOM     33  O   UNL     1      -7.332   1.681   3.055  0.00  0.00    -0.251 OA
ATOM     34  C   UNL     1      -8.940   0.545   4.350  0.00  0.00    +0.136 C 
ENDBRANCH  31  32
ENDBRANCH  13  31
BRANCH  26  35
ATOM     35  C   UNL     1       2.904  -1.600   5.255  0.00  0.00    +0.075 C 
BRANCH  35  36
ATOM     36  C   UNL     1       3.086  -0.550   6.320  0.00  0.00    +0.131 C 
ATOM     37  O   UNL     1       2.899   0.614   6.058  0.00  0.00    -0.298 OA
ATOM     38  C   UNL     1       3.500  -0.952   7.712  0.00  0.00    +0.086 C 
ENDBRANCH  35  36
ENDBRANCH  26  35
TORSDOF 4
