REMARK  Name = ZINC38719929
REMARK  12 active torsions:
REMARK  status: ('A' for Active; 'I' for Inactive)
REMARK    1  A    between atoms: C_1  and  C_2
REMARK    2  A    between atoms: C_4  and  C_12
REMARK    3  A    between atoms: C_12  and  C_14
REMARK    4  A    between atoms: C_14  and  C_16
REMARK    5  A    between atoms: C_14  and  O_17
REMARK    6  A    between atoms: O_17  and  C_18
REMARK    7  A    between atoms: C_18  and  C_20
REMARK    8  A    between atoms: C_20  and  C_22
REMARK    9  A    between atoms: C_20  and  N_25
REMARK   10  A    between atoms: C_22  and  C_23
REMARK   11  A    between atoms: C_22  and  C_24
REMARK   12  A    between atoms: C_26  and  C_28
REMARK                            x       y       z     vdW  Elec       q    Type
REMARK                         _______ _______ _______ _____ _____    ______ ____
ROOT
ATOM      1  C   UNL     1      -6.002  -0.272  -1.185  0.00  0.00    +0.329 C 
ATOM      2  O   UNL     1      -6.310  -0.732  -0.111  0.00  0.00    -0.249 OA
ENDROOT
BRANCH   1   3
ATOM      3  O   UNL     1      -4.727  -0.331  -1.600  0.00  0.00    -0.452 OA
BRANCH   3   4
ATOM      4  C   UNL     1      -3.787  -0.953  -0.721  0.00  0.00    +0.244 C 
ATOM      5  C   UNL     1      -3.714  -2.450  -1.030  0.00  0.00    +0.061 C 
BRANCH   4   6
ATOM      6  C   UNL     1      -2.428  -0.333  -0.919  0.00  0.00    +0.202 C 
ATOM      7  O   UNL     1      -2.209   0.349  -1.899  0.00  0.00    -0.288 OA
BRANCH   6  10
ATOM      8  C   UNL     1      -0.019   1.526   0.010  0.00  0.00    +0.035 C 
ATOM      9  C   UNL     1       0.002  -0.004   0.002  0.00  0.00    +0.111 C 
ATOM     10  C   UNL     1      -1.411  -0.544   0.036  0.00  0.00    +0.030 C 
ATOM     11  C   UNL     1      -1.496  -1.289   1.198  0.00  0.00    +0.007 A 
ATOM     12  C   UNL     1      -2.543  -2.035   1.788  0.00  0.00    +0.010 A 
ATOM     13  C   UNL     1      -2.344  -2.680   2.960  0.00  0.00    +0.001 A 
ATOM     14  C   UNL     1      -1.116  -2.646   3.640  0.00  0.00    +0.002 A 
ATOM     15  C   UNL     1      -0.053  -1.963   3.162  0.00  0.00    +0.026 A 
ATOM     16  C   UNL     1      -0.185  -1.232   1.891  0.00  0.00    +0.043 A 
ATOM     17  N   UNL     1       0.660  -0.506   1.212  0.00  0.00    -0.377 N 
ATOM     18  H   UNL     1       1.578  -0.327   1.468  0.00  0.00    +0.160 HD
ENDBRANCH   6  10
ENDBRANCH   4   6
ENDBRANCH   3   4
ENDBRANCH   1   3
BRANCH   1  19
ATOM     19  C   UNL     1      -7.050   0.370  -2.058  0.00  0.00    +0.185 C 
BRANCH  19  20
ATOM     20  N   UNL     1      -8.350   0.309  -1.385  0.00  0.00    -0.298 N 
ATOM     21  C   UNL     1      -9.306   1.210  -1.685  0.00  0.00    +0.250 C 
ATOM     22  O   UNL     1      -9.090   2.074  -2.513  0.00  0.00    -0.270 OA
ATOM     23  H   UNL     1      -8.523  -0.380  -0.724  0.00  0.00    +0.150 HD
BRANCH  21  24
ATOM     24  C   UNL     1     -10.616   1.149  -1.008  0.00  0.00    +0.107 A 
ATOM     25  C   UNL     1     -10.826   1.855   0.182  0.00  0.00    +0.138 A 
ATOM     26  C   UNL     1     -12.056   1.793   0.809  0.00  0.00    +0.039 A 
ATOM     27  C   UNL     1     -13.077   1.035   0.265  0.00  0.00    +0.006 A 
ATOM     28  C   UNL     1     -12.877   0.334  -0.910  0.00  0.00    +0.039 A 
ATOM     29  C   UNL     1     -11.656   0.390  -1.554  0.00  0.00    +0.138 A 
ATOM     30  F   UNL     1     -11.465  -0.291  -2.705  0.00  0.00    -0.205 F 
ATOM     31  F   UNL     1      -9.830   2.595   0.716  0.00  0.00    -0.205 F 
ENDBRANCH  21  24
ENDBRANCH  19  20
BRANCH  19  32
ATOM     32  C   UNL     1      -7.130  -0.377  -3.391  0.00  0.00    +0.014 C 
ATOM     33  C   UNL     1      -5.772  -0.313  -4.093  0.00  0.00    +0.009 C 
ATOM     34  C   UNL     1      -7.504  -1.838  -3.135  0.00  0.00    +0.009 C 
ENDBRANCH  19  32
ENDBRANCH   1  19
TORSDOF 8
