REMARK  Name = ZINC60017304
REMARK  8 active torsions:
REMARK  status: ('A' for Active; 'I' for Inactive)
REMARK    1  A    between atoms: C_1  and  C_2
REMARK    2  A    between atoms: C_2  and  C_4
REMARK    3  A    between atoms: C_2  and  N_10
REMARK    4  A    between atoms: C_13  and  N_16
REMARK    5  A    between atoms: C_17  and  C_19
REMARK    6  A    between atoms: C_19  and  C_20
REMARK    7  A    between atoms: C_23  and  S_25
REMARK    8  A    between atoms: S_25  and  N_28
REMARK                            x       y       z     vdW  Elec       q    Type
REMARK                         _______ _______ _______ _____ _____    ______ ____
ROOT
ATOM      1  N   UNL     1       1.820  -3.151   3.079  0.00  0.00    -0.314 N 
ATOM      2  C   UNL     1       1.765  -4.000   4.124  0.00  0.00    +0.218 C 
ATOM      3  O   UNL     1       0.723  -4.156   4.725  0.00  0.00    -0.275 OA
ATOM      4  H   UNL     1       2.653  -3.027   2.598  0.00  0.00    +0.149 HD
ENDROOT
BRANCH   1   8
ATOM      5  N   UNL     1       0.713  -0.491   1.192  0.00  0.00    +0.385 N 
ATOM      6  C   UNL     1      -0.018  -0.094   2.423  0.00  0.00    -0.076 C 
ATOM      7  C   UNL     1       0.491  -1.107   3.479  0.00  0.00    +0.002 C 
ATOM      8  C   UNL     1       0.621  -2.416   2.668  0.00  0.00    +0.055 C 
ATOM      9  C   UNL     1       0.742  -1.969   1.200  0.00  0.00    -0.056 C 
ATOM     10  H   UNL     1       1.652  -0.124   1.211  0.00  0.00    -0.081 HD
BRANCH   5  12
ATOM     11  C   UNL     1      -0.019   1.526   0.010  0.00  0.00    -0.008 C 
ATOM     12  C   UNL     1       0.002  -0.004   0.002  0.00  0.00    -0.041 C 
BRANCH  12  13
ATOM     13  C   UNL     1       0.707  -0.490  -1.238  0.00  0.00    -0.061 A 
ATOM     14  C   UNL     1       2.089  -0.511  -1.284  0.00  0.00    +0.002 A 
ATOM     15  C   UNL     1       2.736  -0.957  -2.421  0.00  0.00    +0.000 A 
ATOM     16  C   UNL     1       2.002  -1.382  -3.512  0.00  0.00    +0.000 A 
ATOM     17  C   UNL     1       0.620  -1.362  -3.466  0.00  0.00    +0.000 A 
ATOM     18  C   UNL     1      -0.027  -0.920  -2.327  0.00  0.00    +0.002 A 
ENDBRANCH  12  13
ENDBRANCH   5  12
ENDBRANCH   1   8
BRANCH   2  19
ATOM     19  C   UNL     1       2.998  -4.756   4.546  0.00  0.00    +0.138 C 
BRANCH  19  20
ATOM     20  C   UNL     1       2.671  -5.630   5.729  0.00  0.00    +0.000 A 
ATOM     21  C   UNL     1       2.233  -6.913   5.748  0.00  0.00    +0.013 A 
ATOM     22  C   UNL     1       1.996  -7.522   6.966  0.00  0.00    +0.036 A 
ATOM     23  C   UNL     1       2.210  -6.820   8.105  0.00  0.00    +0.143 A 
ATOM     24  S   UNL     1       2.769  -5.248   7.470  0.00  0.00    -0.073 S 
BRANCH  23  25
ATOM     25  S   UNL     1       1.997  -7.329   9.779  0.00  0.00    +0.067 S 
ATOM     26  O   UNL     1       1.801  -6.145  10.541  0.00  0.00    -0.152 OA
ATOM     27  O   UNL     1       1.052  -8.390   9.764  0.00  0.00    -0.152 OA
BRANCH  25  28
ATOM     28  N   UNL     1       3.434  -7.981  10.279  0.00  0.00    -0.176 NA
ATOM     29  C   UNL     1       3.707  -9.415  10.105  0.00  0.00    +0.109 C 
ATOM     30  C   UNL     1       5.035  -9.577   9.359  0.00  0.00    +0.017 C 
ATOM     31  C   UNL     1       6.131  -8.815  10.106  0.00  0.00    +0.003 C 
ATOM     32  C   UNL     1       5.781  -7.326  10.150  0.00  0.00    +0.017 C 
ATOM     33  C   UNL     1       4.464  -7.137  10.899  0.00  0.00    +0.109 C 
ENDBRANCH  25  28
ENDBRANCH  23  25
ENDBRANCH  19  20
ENDBRANCH   2  19
TORSDOF 7
