REMARK  Name = ZINC15047569
REMARK  9 active torsions:
REMARK  status: ('A' for Active; 'I' for Inactive)
REMARK    1  A    between atoms: C_1  and  C_2
REMARK    2  A    between atoms: C_2  and  C_4
REMARK    3  A    between atoms: C_2  and  N_17
REMARK    4  A    between atoms: N_6  and  C_7
REMARK    5  A    between atoms: C_10  and  S_13
REMARK    6  A    between atoms: S_13  and  N_16
REMARK    7  A    between atoms: C_21  and  C_22
REMARK    8  A    between atoms: C_25  and  O_28
REMARK    9  A    between atoms: O_28  and  C_29
REMARK                            x       y       z     vdW  Elec       q    Type
REMARK                         _______ _______ _______ _____ _____    ______ ____
ROOT
ATOM      1  C   UNL     1      -3.988   1.070  -0.287  0.00  0.00    +0.038 C 
ATOM      2  C   UNL     1      -4.219   1.871   0.996  0.00  0.00    +0.166 C 
ENDROOT
BRANCH   2   3
ATOM      3  N   UNL     1      -5.506   2.566   0.913  0.00  0.00    -0.244 N 
ATOM      4  C   UNL     1      -6.440   2.307   1.812  0.00  0.00    +0.259 C 
ATOM      5  O   UNL     1      -6.259   1.503   2.708  0.00  0.00    -0.269 OA
ATOM      6  C   UNL     1      -7.714   3.041   1.673  0.00  0.00    +0.077 C 
ATOM      7  C   UNL     1      -8.835   2.980   2.437  0.00  0.00    +0.028 C 
ATOM      8  S   UNL     1      -7.374   4.030   0.224  0.00  0.00    -0.061 S 
ATOM      9  C   UNL     1      -5.708   3.461  -0.076  0.00  0.00    +0.121 C 
ATOM     10  S   UNL     1      -4.630   3.934  -1.319  0.00  0.00    -0.027 S 
BRANCH   7  11
ATOM     11  C   UNL     1      -9.924   3.940   2.218  0.00  0.00    -0.024 A 
ATOM     12  C   UNL     1      -9.689   5.119   1.500  0.00  0.00    +0.011 A 
ATOM     13  C   UNL     1     -10.715   6.013   1.294  0.00  0.00    +0.046 A 
ATOM     14  C   UNL     1     -11.981   5.752   1.805  0.00  0.00    +0.120 A 
ATOM     15  C   UNL     1     -12.219   4.585   2.523  0.00  0.00    +0.046 A 
ATOM     16  C   UNL     1     -11.201   3.682   2.731  0.00  0.00    +0.011 A 
BRANCH  14  17
ATOM     17  O   UNL     1     -12.989   6.639   1.603  0.00  0.00    -0.495 OA
ATOM     18  C   UNL     1     -12.676   7.817   0.857  0.00  0.00    +0.277 C 
ENDBRANCH  14  17
ENDBRANCH   7  11
ENDBRANCH   2   3
BRANCH   2  19
ATOM     19  C   UNL     1      -3.112   2.880   1.165  0.00  0.00    +0.238 C 
ATOM     20  O   UNL     1      -3.373   4.064   1.211  0.00  0.00    -0.273 OA
ATOM     21  N   UNL     1      -1.833   2.467   1.264  0.00  0.00    -0.284 N 
ATOM     22  H   UNL     1      -1.618   1.527   1.162  0.00  0.00    +0.155 HD
BRANCH  21  23
ATOM     23  C   UNL     1      -0.816   3.395   1.515  0.00  0.00    +0.034 A 
ATOM     24  C   UNL     1      -1.062   4.494   2.328  0.00  0.00    +0.025 A 
ATOM     25  C   UNL     1      -0.054   5.404   2.578  0.00  0.00    +0.030 A 
ATOM     26  C   UNL     1       1.197   5.226   2.016  0.00  0.00    +0.105 A 
ATOM     27  C   UNL     1       1.443   4.135   1.201  0.00  0.00    +0.030 A 
ATOM     28  C   UNL     1       0.439   3.221   0.947  0.00  0.00    +0.025 A 
BRANCH  26  29
ATOM     29  S   UNL     1       2.480   6.390   2.337  0.00  0.00    +0.056 S 
ATOM     30  O   UNL     1       3.398   6.292   1.257  0.00  0.00    -0.153 OA
ATOM     31  O   UNL     1       1.842   7.611   2.687  0.00  0.00    -0.153 OA
BRANCH  29  32
ATOM     32  N   UNL     1       3.283   5.871   3.689  0.00  0.00    -0.204 NA
ATOM     33  H   UNL     1       3.005   5.057   4.137  0.00  0.00    +0.144 HD
ATOM     34  H   UNL     1       4.033   6.382   4.034  0.00  0.00    +0.144 HD
ENDBRANCH  29  32
ENDBRANCH  26  29
ENDBRANCH  21  23
ENDBRANCH   2  19
TORSDOF 7
