REMARK  Name = ZINC59170371
REMARK  10 active torsions:
REMARK  status: ('A' for Active; 'I' for Inactive)
REMARK    1  A    between atoms: C_1  and  C_2
REMARK    2  A    between atoms: C_2  and  N_3
REMARK    3  A    between atoms: N_3  and  C_4
REMARK    4  A    between atoms: N_3  and  C_6
REMARK    5  A    between atoms: C_4  and  C_5
REMARK    6  A    between atoms: C_11  and  C_28
REMARK    7  A    between atoms: N_13  and  N_14
REMARK    8  A    between atoms: N_14  and  S_15
REMARK    9  A    between atoms: S_15  and  C_18
REMARK   10  A    between atoms: C_21  and  C_24
REMARK                            x       y       z     vdW  Elec       q    Type
REMARK                         _______ _______ _______ _____ _____    ______ ____
ROOT
ATOM      1  C   UNL     1       2.209  -0.514   0.963  0.00  0.00    +0.033 A 
ATOM      2  C   UNL     1       2.985  -0.289  -0.173  0.00  0.00    +0.024 A 
ATOM      3  C   UNL     1       4.322  -0.563  -0.163  0.00  0.00    +0.013 A 
ATOM      4  C   UNL     1       4.920  -1.072   0.997  0.00  0.00    +0.018 A 
ATOM      5  C   UNL     1       6.353  -1.377   1.025  0.00  0.00    +0.030 A 
ATOM      6  C   UNL     1       6.827  -2.120   2.082  0.00  0.00    +0.098 A 
ATOM      7  C   UNL     1       5.843  -2.549   3.104  0.00  0.00    +0.225 A 
ATOM      8  N   UNL     1       6.040  -3.620   3.819  0.00  0.00    -0.260 N 
ATOM      9  O   UNL     1       4.724  -1.785   3.272  0.00  0.00    -0.437 OA
ATOM     10  C   UNL     1       4.141  -1.298   2.148  0.00  0.00    +0.139 A 
ATOM     11  C   UNL     1       2.789  -1.013   2.124  0.00  0.00    +0.070 A 
ATOM     12  H   UNL     1       6.871  -4.114   3.735  0.00  0.00    +0.189 HD
ENDROOT
BRANCH   6  13
ATOM     13  C   UNL     1       8.250  -2.474   2.193  0.00  0.00    +0.247 C 
ATOM     14  O   UNL     1       8.660  -3.039   3.190  0.00  0.00    -0.270 OA
ATOM     15  N   UNL     1       9.099  -2.173   1.191  0.00  0.00    -0.325 N 
ATOM     16  H   UNL     1       8.788  -1.659   0.430  0.00  0.00    +0.145 HD
ATOM     17  H   UNL     1      10.022  -2.470   1.232  0.00  0.00    +0.145 HD
ENDBRANCH   6  13
BRANCH   8  18
ATOM     18  N   UNL     1       5.052  -4.059   4.710  0.00  0.00    -0.157 N 
ATOM     19  H   UNL     1       4.221  -3.565   4.795  0.00  0.00    +0.194 HD
BRANCH  18  20
ATOM     20  S   UNL     1       5.303  -5.420   5.619  0.00  0.00    +0.085 S 
ATOM     21  O   UNL     1       4.202  -5.520   6.513  0.00  0.00    -0.149 OA
ATOM     22  O   UNL     1       5.643  -6.458   4.711  0.00  0.00    -0.149 OA
BRANCH  20  23
ATOM     23  C   UNL     1       6.731  -5.130   6.610  0.00  0.00    +0.110 A 
ATOM     24  C   UNL     1       7.984  -5.462   6.130  0.00  0.00    +0.029 A 
ATOM     25  C   UNL     1       9.104  -5.234   6.907  0.00  0.00    +0.005 A 
ATOM     26  C   UNL     1       8.971  -4.674   8.164  0.00  0.00    -0.050 A 
ATOM     27  C   UNL     1       7.718  -4.341   8.643  0.00  0.00    +0.005 A 
ATOM     28  C   UNL     1       6.598  -4.565   7.864  0.00  0.00    +0.029 A 
ATOM     29  C   UNL     1      10.193  -4.427   9.011  0.00  0.00    +0.044 C 
ENDBRANCH  20  23
ENDBRANCH  18  20
ENDBRANCH   8  18
BRANCH   1  30
ATOM     30  N   UNL     1       0.847  -0.232   0.938  0.00  0.00    -0.330 N 
BRANCH  30  32
ATOM     31  C   UNL     1       0.287   1.823  -0.265  0.00  0.00    +0.024 C 
ATOM     32  C   UNL     1       0.231   0.294  -0.283  0.00  0.00    +0.102 C 
ENDBRANCH  30  32
BRANCH  30  33
ATOM     33  C   UNL     1       0.029  -0.461   2.131  0.00  0.00    +0.102 C 
ATOM     34  C   UNL     1      -0.527  -1.886   2.103  0.00  0.00    +0.024 C 
ENDBRANCH  30  33
ENDBRANCH   1  30
TORSDOF 7
