REMARK  Name = ZINC59990930
REMARK  11 active torsions:
REMARK  status: ('A' for Active; 'I' for Inactive)
REMARK    1  A    between atoms: C_1  and  C_2
REMARK    2  A    between atoms: N_7  and  C_9
REMARK    3  A    between atoms: C_9  and  C_10
REMARK    4  A    between atoms: C_9  and  C_11
REMARK    5  A    between atoms: C_9  and  C_12
REMARK    6  A    between atoms: C_12  and  N_13
REMARK    7  A    between atoms: C_14  and  C_16
REMARK    8  A    between atoms: C_20  and  C_21
REMARK    9  A    between atoms: C_21  and  C_22
REMARK   10  A    between atoms: C_21  and  C_23
REMARK   11  A    between atoms: C_27  and  C_30
REMARK                            x       y       z     vdW  Elec       q    Type
REMARK                         _______ _______ _______ _____ _____    ______ ____
ROOT
ATOM      1  C   UNL     1       2.619  -6.144  -0.295  0.00  0.00    +0.078 A 
ATOM      2  C   UNL     1       2.937  -5.334  -1.409  0.00  0.00    +0.148 A 
ATOM      3  N   UNL     1       3.334  -6.114  -2.377  0.00  0.00    -0.172 NA
ATOM      4  N   UNL     1       3.292  -7.441  -1.936  0.00  0.00    -0.218 N 
ATOM      5  C   UNL     1       2.860  -7.453  -0.661  0.00  0.00    +0.061 A 
ATOM      6  C   UNL     1       3.643  -8.565  -2.691  0.00  0.00    +0.154 A 
ATOM      7  C   UNL     1       3.545  -8.521  -4.076  0.00  0.00    +0.049 A 
ATOM      8  C   UNL     1       3.896  -9.640  -4.811  0.00  0.00    +0.017 A 
ATOM      9  C   UNL     1       4.336 -10.768  -4.131  0.00  0.00    +0.073 A 
ATOM     10  C   UNL     1       4.409 -10.740  -2.752  0.00  0.00    +0.125 A 
ATOM     11  N   UNL     1       4.072  -9.657  -2.079  0.00  0.00    -0.236 NA
ENDROOT
BRANCH   1  13
ATOM     12  N   UNL     1       2.054  -4.357   1.274  0.00  0.00    -0.313 N 
ATOM     13  C   UNL     1       2.130  -5.678   1.015  0.00  0.00    +0.247 C 
ATOM     14  O   UNL     1       1.795  -6.484   1.861  0.00  0.00    -0.270 OA
ATOM     15  H   UNL     1       2.321  -3.714   0.600  0.00  0.00    +0.149 HD
BRANCH  12  16
ATOM     16  C   UNL     1       1.567  -3.894   2.576  0.00  0.00    +0.092 C 
BRANCH  16  17
ATOM     17  C   UNL     1       1.580  -2.364   2.610  0.00  0.00    -0.055 C 
ATOM     18  C   UNL     1       3.008  -1.861   2.391  0.00  0.00    -0.008 C 
ATOM     19  C   UNL     1       1.072  -1.880   3.970  0.00  0.00    -0.008 C 
BRANCH  17  25
ATOM     20  C   UNL     1      -0.091   1.702   0.455  0.00  0.00    +0.005 C 
ATOM     21  C   UNL     1      -0.112   0.172   0.421  0.00  0.00    -0.031 C 
ATOM     22  C   UNL     1      -1.554  -0.323   0.568  0.00  0.00    -0.001 C 
ATOM     23  C   UNL     1      -1.555  -1.854   0.612  0.00  0.00    -0.018 C 
ATOM     24  C   UNL     1      -0.661  -2.326   1.760  0.00  0.00    -0.078 C 
ATOM     25  N   UNL     1       0.709  -1.843   1.548  0.00  0.00    +0.384 N 
ATOM     26  C   UNL     1       0.730  -0.376   1.576  0.00  0.00    -0.075 C 
ATOM     27  H   UNL     1       1.044  -2.166   0.653  0.00  0.00    -0.081 HD
ENDBRANCH  17  25
ENDBRANCH  16  17
ENDBRANCH  12  16
ENDBRANCH   1  13
BRANCH   9  28
ATOM     28  C   UNL     1       4.729 -12.009  -4.889  0.00  0.00    +0.419 C 
ATOM     29  F   UNL     1       6.092 -11.954  -5.199  0.00  0.00    -0.166 F 
ATOM     30  F   UNL     1       4.475 -13.137  -4.102  0.00  0.00    -0.166 F 
ATOM     31  F   UNL     1       3.985 -12.089  -6.072  0.00  0.00    -0.166 F 
ENDBRANCH   9  28
BRANCH   5  32
ATOM     32  C   UNL     1       2.670  -8.671   0.206  0.00  0.00    +0.032 C 
ATOM     33  C   UNL     1       3.516  -8.532   1.473  0.00  0.00    +0.014 C 
ATOM     34  C   UNL     1       1.195  -8.800   0.589  0.00  0.00    +0.014 C 
ENDBRANCH   5  32
TORSDOF 6
