REMARK  Name = ZINC27500035
REMARK  6 active torsions:
REMARK  status: ('A' for Active; 'I' for Inactive)
REMARK    1  A    between atoms: C_7  and  C_18
REMARK    2  A    between atoms: N_9  and  C_10
REMARK    3  A    between atoms: C_10  and  C_11
REMARK    4  A    between atoms: N_19  and  N_20
REMARK    5  A    between atoms: C_21  and  C_23
REMARK    6  A    between atoms: C_23  and  N_24
REMARK                            x       y       z     vdW  Elec       q    Type
REMARK                         _______ _______ _______ _____ _____    ______ ____
ROOT
ATOM      1  N   UNL     1      -5.218   2.032   1.731  0.00  0.00    -0.206 N 
ATOM      2  C   UNL     1      -4.100   2.742   1.477  0.00  0.00    +0.252 C 
ATOM      3  O   UNL     1      -3.425   3.158   2.395  0.00  0.00    -0.272 OA
ATOM      4  H   UNL     1      -5.830   1.654   0.899  0.00  0.00    +0.177 HD
ENDROOT
BRANCH   1   6
ATOM      5  C   UNL     1      -6.676   1.091   3.299  0.00  0.00    +0.140 C 
ATOM      6  N   UNL     1      -5.599   1.775   3.054  0.00  0.00    -0.188 NA
BRANCH   5  13
ATOM      7  C   UNL     1      -4.807   2.225   7.441  0.00  0.00    +0.001 A 
ATOM      8  C   UNL     1      -5.553   1.742   8.507  0.00  0.00    +0.002 A 
ATOM      9  C   UNL     1      -6.703   1.016   8.288  0.00  0.00    +0.026 A 
ATOM     10  C   UNL     1      -7.127   0.763   6.987  0.00  0.00    +0.050 A 
ATOM     11  C   UNL     1      -6.368   1.248   5.908  0.00  0.00    +0.009 A 
ATOM     12  C   UNL     1      -5.210   1.985   6.146  0.00  0.00    +0.010 A 
ATOM     13  C   UNL     1      -7.077   0.822   4.689  0.00  0.00    +0.020 A 
ATOM     14  C   UNL     1      -8.170   0.124   5.099  0.00  0.00    +0.096 A 
ATOM     15  N   UNL     1      -8.206   0.086   6.461  0.00  0.00    -0.342 N 
BRANCH  15  16
ATOM     16  C   UNL     1      -9.243  -0.580   7.253  0.00  0.00    +0.157 C 
BRANCH  16  17
ATOM     17  C   UNL     1     -10.299   0.422   7.643  0.00  0.00    -0.028 A 
ATOM     18  C   UNL     1     -10.180   1.126   8.827  0.00  0.00    +0.007 A 
ATOM     19  C   UNL     1     -11.145   2.049   9.182  0.00  0.00    +0.020 A 
ATOM     20  C   UNL     1     -12.236   2.261   8.358  0.00  0.00    +0.041 A 
ATOM     21  C   UNL     1     -12.357   1.552   7.176  0.00  0.00    +0.020 A 
ATOM     22  C   UNL     1     -11.389   0.633   6.819  0.00  0.00    +0.007 A 
ATOM     23 CL   UNL     1     -13.452   3.416   8.807  0.00  0.00    -0.084 Cl
ENDBRANCH  16  17
ENDBRANCH  15  16
ENDBRANCH   5  13
ENDBRANCH   1   6
BRANCH   2  24
ATOM     24  C   UNL     1      -3.690   3.018   0.054  0.00  0.00    +0.219 C 
BRANCH  24  25
ATOM     25  N   UNL     1      -2.452   3.801   0.045  0.00  0.00    -0.331 N 
ATOM     26  C   UNL     1      -1.246   3.134   0.030  0.00  0.00    +0.054 A 
ATOM     27  C   UNL     1      -1.219   1.741   0.017  0.00  0.00    +0.026 A 
ATOM     28  C   UNL     1      -0.013   1.076   0.008  0.00  0.00    +0.002 A 
ATOM     29  C   UNL     1       1.184   1.779   0.000  0.00  0.00    +0.001 A 
ATOM     30  C   UNL     1       1.182   3.150   0.007  0.00  0.00    +0.014 A 
ATOM     31  C   UNL     1      -0.032   3.841   0.022  0.00  0.00    +0.046 A 
ATOM     32  C   UNL     1      -0.059   5.315   0.029  0.00  0.00    +0.197 A 
ATOM     33  O   UNL     1       0.970   5.966   0.023  0.00  0.00    -0.287 OA
ATOM     34  C   UNL     1      -1.379   5.971   0.046  0.00  0.00    +0.046 A 
ATOM     35  C   UNL     1      -2.538   5.177   0.053  0.00  0.00    +0.054 A 
ATOM     36  C   UNL     1      -3.785   5.798   0.069  0.00  0.00    +0.026 A 
ATOM     37  C   UNL     1      -3.869   7.173   0.078  0.00  0.00    +0.002 A 
ATOM     38  C   UNL     1      -2.722   7.953   0.071  0.00  0.00    +0.001 A 
ATOM     39  C   UNL     1      -1.483   7.363   0.055  0.00  0.00    +0.014 A 
ENDBRANCH  24  25
ENDBRANCH   2  24
TORSDOF 6
