REMARK  Name = ZINC47030123
REMARK  6 active torsions:
REMARK  status: ('A' for Active; 'I' for Inactive)
REMARK    1  A    between atoms: C_1  and  N_2
REMARK    2  A    between atoms: N_2  and  C_3
REMARK    3  A    between atoms: C_4  and  C_6
REMARK    4  A    between atoms: C_6  and  C_7
REMARK    5  A    between atoms: C_7  and  N_8
REMARK    6  A    between atoms: N_11  and  C_12
REMARK                            x       y       z     vdW  Elec       q    Type
REMARK                         _______ _______ _______ _____ _____    ______ ____
ROOT
ATOM      1  N   UNL     1       0.050  -4.145  -2.631  0.00  0.00    -0.299 N 
ATOM      2  C   UNL     1       0.037  -4.813  -3.802  0.00  0.00    +0.304 C 
ATOM      3  O   UNL     1       0.015  -4.200  -4.851  0.00  0.00    -0.253 OA
ATOM      4  N   UNL     1       0.050  -6.161  -3.809  0.00  0.00    -0.268 N 
ATOM      5  H   UNL     1       0.067  -4.634  -1.794  0.00  0.00    +0.150 HD
ATOM      6  H   UNL     1       0.133  -6.649  -2.975  0.00  0.00    +0.156 HD
ENDROOT
BRANCH   4   7
ATOM      7  C   UNL     1      -0.058  -6.855  -5.019  0.00  0.00    +0.050 A 
ATOM      8  C   UNL     1       0.515  -6.337  -6.172  0.00  0.00    +0.039 A 
ATOM      9  C   UNL     1       0.408  -7.025  -7.366  0.00  0.00    +0.020 A 
ATOM     10  C   UNL     1      -0.271  -8.230  -7.412  0.00  0.00    +0.016 A 
ATOM     11  C   UNL     1      -0.843  -8.749  -6.266  0.00  0.00    +0.018 A 
ATOM     12  C   UNL     1      -0.734  -8.068  -5.068  0.00  0.00    +0.039 A 
ATOM     13 BR   UNL     1      -1.510  -8.783  -3.498  0.00  0.00    -0.048 Br
ATOM     14 BR   UNL     1       1.188  -6.320  -8.937  0.00  0.00    -0.050 Br
ENDBRANCH   4   7
BRANCH   1  15
ATOM     15  C   UNL     1       0.036  -2.680  -2.624  0.00  0.00    +0.115 C 
BRANCH  15  16
ATOM     16  C   UNL     1       0.054  -2.177  -1.179  0.00  0.00    +0.114 C 
BRANCH  16  20
ATOM     17  C   UNL     1       0.038   1.463   0.007  0.00  0.00    +0.131 C 
ATOM     18  N   UNL     1       0.052  -0.002  -0.001  0.00  0.00    -0.308 N 
ATOM     19  C   UNL     1       0.079  -0.741   1.264  0.00  0.00    +0.131 C 
ATOM     20  C   UNL     1       0.040  -0.670  -1.171  0.00  0.00    +0.217 C 
ATOM     21  O   UNL     1       0.018  -0.059  -2.218  0.00  0.00    -0.276 OA
ENDBRANCH  16  20
ENDBRANCH  15  16
ENDBRANCH   1  15
TORSDOF 4
