REMARK  Name = ZINC06550888
REMARK  14 active torsions:
REMARK  status: ('A' for Active; 'I' for Inactive)
REMARK    1  A    between atoms: C_1  and  C_2
REMARK    2  A    between atoms: C_2  and  C_3
REMARK    3  A    between atoms: C_3  and  C_4
REMARK    4  A    between atoms: C_3  and  C_5
REMARK    5  A    between atoms: C_3  and  N_6
REMARK    6  A    between atoms: C_7  and  C_9
REMARK    7  A    between atoms: C_9  and  C_11
REMARK    8  A    between atoms: C_9  and  N_17
REMARK    9  A    between atoms: N_15  and  C_16
REMARK   10  A    between atoms: N_17  and  C_18
REMARK   11  A    between atoms: C_23  and  O_24
REMARK   12  A    between atoms: O_24  and  C_25
REMARK   13  A    between atoms: C_26  and  C_28
REMARK   14  A    between atoms: C_28  and  N_29
REMARK                            x       y       z     vdW  Elec       q    Type
REMARK                         _______ _______ _______ _____ _____    ______ ____
ROOT
ATOM      1  N   UNL     1       2.094  -4.316  -2.861  0.00  0.00    -0.249 N 
ATOM      2  C   UNL     1       1.526  -5.125  -3.776  0.00  0.00    +0.242 C 
ATOM      3  O   UNL     1       0.341  -5.374  -3.714  0.00  0.00    -0.273 OA
ENDROOT
BRANCH   1   4
ATOM      4  C   UNL     1       3.463  -4.029  -2.932  0.00  0.00    +0.079 A 
ATOM      5  C   UNL     1       4.383  -4.871  -2.325  0.00  0.00    +0.027 A 
ATOM      6  C   UNL     1       5.733  -4.585  -2.397  0.00  0.00    +0.002 A 
ATOM      7  C   UNL     1       6.171  -3.462  -3.073  0.00  0.00    +0.004 A 
ATOM      8  C   UNL     1       5.260  -2.617  -3.680  0.00  0.00    +0.047 A 
ATOM      9  C   UNL     1       3.905  -2.900  -3.618  0.00  0.00    +0.141 A 
BRANCH   9  10
ATOM     10  O   UNL     1       3.008  -2.074  -4.220  0.00  0.00    -0.493 OA
ATOM     11  C   UNL     1       3.534  -0.935  -4.905  0.00  0.00    +0.277 C 
ENDBRANCH   9  10
ENDBRANCH   1   4
BRANCH   1  12
ATOM     12  C   UNL     1       1.279  -3.736  -1.790  0.00  0.00    +0.214 C 
BRANCH  12  13
ATOM     13  C   UNL     1       0.095  -3.022  -2.390  0.00  0.00    +0.049 A 
ATOM     14  C   UNL     1       0.127  -1.831  -3.022  0.00  0.00    +0.025 A 
ATOM     15  C   UNL     1      -1.190  -1.532  -3.425  0.00  0.00    +0.019 A 
ATOM     16  C   UNL     1      -1.976  -2.552  -3.024  0.00  0.00    +0.085 A 
ATOM     17  N   UNL     1      -1.192  -3.472  -2.394  0.00  0.00    -0.352 N 
ATOM     18  C   UNL     1      -1.657  -4.734  -1.813  0.00  0.00    +0.148 C 
ENDBRANCH  12  13
BRANCH  12  20
ATOM     19  N   UNL     1       0.168  -4.523   0.275  0.00  0.00    -0.308 N 
ATOM     20  C   UNL     1       0.794  -4.833  -0.877  0.00  0.00    +0.240 C 
ATOM     21  O   UNL     1       0.967  -5.995  -1.180  0.00  0.00    -0.273 OA
ATOM     22  H   UNL     1      -0.039  -3.598   0.481  0.00  0.00    +0.149 HD
BRANCH  19  23
ATOM     23  C   UNL     1      -0.200  -5.583   1.217  0.00  0.00    +0.029 C 
ATOM     24  C   UNL     1       1.054  -6.357   1.629  0.00  0.00    +0.031 C 
ATOM     25  C   UNL     1      -1.191  -6.538   0.549  0.00  0.00    +0.031 C 
BRANCH  23  27
ATOM     26  C   UNL     1      -1.230  -6.070   3.441  0.00  0.00    +0.006 C 
ATOM     27  C   UNL     1      -0.846  -4.963   2.457  0.00  0.00    +0.022 C 
ENDBRANCH  23  27
ENDBRANCH  19  23
ENDBRANCH  12  20
ENDBRANCH   1  12
BRANCH   2  28
ATOM     28  C   UNL     1       2.364  -5.722  -4.878  0.00  0.00    +0.242 C 
BRANCH  28  29
ATOM     29  N   UNL     1       1.521  -6.558  -5.736  0.00  0.00    -0.235 N 
ATOM     30  C   UNL     1       1.259  -7.898  -5.577  0.00  0.00    +0.090 A 
ATOM     31  C   UNL     1       1.652  -8.856  -4.649  0.00  0.00    +0.029 A 
ATOM     32  C   UNL     1       1.206 -10.143  -4.771  0.00  0.00    +0.002 A 
ATOM     33  C   UNL     1       0.364 -10.503  -5.814  0.00  0.00    +0.002 A 
ATOM     34  C   UNL     1      -0.036  -9.582  -6.738  0.00  0.00    +0.032 A 
ATOM     35  C   UNL     1       0.406  -8.256  -6.636  0.00  0.00    +0.113 A 
ATOM     36  N   UNL     1       0.188  -7.152  -7.377  0.00  0.00    -0.129 NA
ATOM     37  N   UNL     1       0.816  -6.147  -6.877  0.00  0.00    -0.064 NA
ENDBRANCH  28  29
ENDBRANCH   2  28
TORSDOF 9
