REMARK  Name = ZINC02427951
REMARK  11 active torsions:
REMARK  status: ('A' for Active; 'I' for Inactive)
REMARK    1  A    between atoms: C_1  and  C_2
REMARK    2  A    between atoms: C_2  and  C_3
REMARK    3  A    between atoms: C_3  and  S_4
REMARK    4  A    between atoms: S_4  and  C_5
REMARK    5  A    between atoms: C_14  and  C_16
REMARK    6  A    between atoms: C_14  and  C_17
REMARK    7  A    between atoms: C_17  and  C_18
REMARK    8  A    between atoms: C_19  and  S_21
REMARK    9  A    between atoms: S_21  and  C_22
REMARK   10  A    between atoms: C_22  and  C_23
REMARK   11  A    between atoms: N_25  and  C_26
REMARK                            x       y       z     vdW  Elec       q    Type
REMARK                         _______ _______ _______ _____ _____    ______ ____
ROOT
ATOM      1  C   UNL     1      -3.648  11.535  -0.435  0.00  0.00    +0.190 A 
ATOM      2  N   UNL     1      -4.637  12.415  -0.532  0.00  0.00    -0.215 NA
ATOM      3  C   UNL     1      -5.891  12.007  -0.547  0.00  0.00    +0.114 A 
ATOM      4  C   UNL     1      -6.224  10.639  -0.462  0.00  0.00    +0.043 A 
ATOM      5  C   UNL     1      -7.653  10.333  -0.490  0.00  0.00    -0.020 A 
ATOM      6  C   UNL     1      -8.504  11.376  -0.594  0.00  0.00    +0.021 A 
ATOM      7  S   UNL     1      -7.469  12.811  -0.659  0.00  0.00    -0.071 S 
ATOM      8  C   UNL     1      -9.998  11.298  -0.642  0.00  0.00    +0.203 C 
ATOM      9  O   UNL     1     -10.363   9.929  -0.878  0.00  0.00    -0.368 OA
ATOM     10  C   UNL     1      -9.688   9.004  -0.022  0.00  0.00    +0.071 C 
ATOM     11  C   UNL     1      -8.208   8.913  -0.407  0.00  0.00    +0.071 C 
ATOM     12  C   UNL     1      -9.807   9.475   1.429  0.00  0.00    +0.042 C 
ATOM     13  C   UNL     1      -5.121   9.745  -0.360  0.00  0.00    +0.110 A 
ATOM     14  N   UNL     1      -3.891  10.233  -0.345  0.00  0.00    -0.215 NA
ENDROOT
BRANCH  10  15
ATOM     15  C   UNL     1     -10.333   7.623  -0.159  0.00  0.00    +0.032 C 
ATOM     16  C   UNL     1     -11.807   7.707   0.240  0.00  0.00    +0.007 C 
ENDBRANCH  10  15
BRANCH   1  17
ATOM     17  S   UNL     1      -1.981  12.107  -0.416  0.00  0.00    -0.086 S 
BRANCH  17  18
ATOM     18  C   UNL     1      -1.109  10.527  -0.274  0.00  0.00    +0.077 C 
BRANCH  18  20
ATOM     19  C   UNL     1       1.137   9.444  -0.117  0.00  0.00    +0.004 C 
ATOM     20  C   UNL     1       0.400  10.779  -0.238  0.00  0.00    +0.008 C 
ENDBRANCH  18  20
ENDBRANCH  17  18
ENDBRANCH   1  17
BRANCH  13  21
ATOM     21  S   UNL     1      -5.391   8.008  -0.246  0.00  0.00    -0.096 S 
BRANCH  21  22
ATOM     22  C   UNL     1      -3.678   7.430  -0.145  0.00  0.00    +0.171 C 
BRANCH  22  23
ATOM     23  C   UNL     1      -3.661   5.927  -0.038  0.00  0.00    +0.227 C 
ATOM     24  O   UNL     1      -4.704   5.307  -0.030  0.00  0.00    -0.275 OA
ATOM     25  N   UNL     1      -2.487   5.271   0.050  0.00  0.00    -0.284 N 
ATOM     26  H   UNL     1      -1.658   5.769   0.125  0.00  0.00    +0.155 HD
BRANCH  25  27
ATOM     27  C   UNL     1      -2.464   3.875   0.033  0.00  0.00    +0.041 A 
ATOM     28  C   UNL     1      -3.487   3.170  -0.563  0.00  0.00    +0.024 A 
ATOM     29  C   UNL     1      -3.474   1.779  -0.585  0.00  0.00    +0.002 A 
ATOM     30  C   UNL     1      -2.453   1.076  -0.021  0.00  0.00    +0.008 A 
ATOM     31  C   UNL     1      -1.387   1.757   0.591  0.00  0.00    -0.016 A 
ATOM     32  C   UNL     1      -1.393   3.174   0.626  0.00  0.00    +0.003 A 
ATOM     33  C   UNL     1      -0.330   3.852   1.243  0.00  0.00    +0.010 A 
ATOM     34  C   UNL     1       0.687   3.142   1.805  0.00  0.00    +0.001 A 
ATOM     35  C   UNL     1       0.691   1.749   1.776  0.00  0.00    +0.001 A 
ATOM     36  C   UNL     1      -0.323   1.058   1.186  0.00  0.00    +0.008 A 
ENDBRANCH  25  27
ENDBRANCH  22  23
ENDBRANCH  21  22
ENDBRANCH  13  21
TORSDOF 8
