REMARK  Name = ZINC09577818
REMARK  7 active torsions:
REMARK  status: ('A' for Active; 'I' for Inactive)
REMARK    1  A    between atoms: C_1  and  C_2
REMARK    2  A    between atoms: C_2  and  C_4
REMARK    3  A    between atoms: C_2  and  N_65
REMARK    4  A    between atoms: N_6  and  C_7
REMARK    5  A    between atoms: C_8  and  C_17
REMARK    6  A    between atoms: C_21  and  C_24
REMARK    7  A    between atoms: N_26  and  C_27
REMARK                            x       y       z     vdW  Elec       q    Type
REMARK                         _______ _______ _______ _____ _____    ______ ____
ROOT
ATOM      1  C   UNL     1       9.424   1.658   0.455  0.00  0.00    -0.077 C 
ATOM      2  C   UNL     1       8.489   0.455   0.602  0.00  0.00    -0.006 C 
ATOM      3  C   UNL     1       7.053   0.952   0.793  0.00  0.00    +0.072 C 
ATOM      4  C   UNL     1       6.662   1.828  -0.401  0.00  0.00    -0.006 C 
ATOM      5  C   UNL     1       7.649   2.991  -0.519  0.00  0.00    -0.077 C 
ATOM      6  N   UNL     1       9.009   2.446  -0.725  0.00  0.00    +0.387 N 
ATOM      7  H   UNL     1       9.001   1.834  -1.549  0.00  0.00    -0.081 HD
ENDROOT
BRANCH   3   8
ATOM      8  C   UNL     1       6.120  -0.229   0.879  0.00  0.00    +0.220 C 
ATOM      9  O   UNL     1       6.559  -1.356   0.796  0.00  0.00    -0.275 OA
ATOM     10  N   UNL     1       4.797  -0.031   1.047  0.00  0.00    -0.285 N 
ATOM     11  H   UNL     1       4.436   0.870   1.039  0.00  0.00    +0.155 HD
BRANCH  10  12
ATOM     12  C   UNL     1       3.944  -1.126   1.236  0.00  0.00    +0.037 A 
ATOM     13  C   UNL     1       4.396  -2.251   1.912  0.00  0.00    +0.027 A 
ATOM     14  C   UNL     1       3.555  -3.331   2.099  0.00  0.00    +0.051 A 
ATOM     15  C   UNL     1       2.258  -3.295   1.613  0.00  0.00    +0.166 A 
ATOM     16  C   UNL     1       1.801  -2.168   0.934  0.00  0.00    +0.168 A 
ATOM     17  C   UNL     1       2.645  -1.085   0.747  0.00  0.00    +0.072 A 
ATOM     18  O   UNL     1       0.507  -2.381   0.556  0.00  0.00    -0.453 OA
ATOM     19  C   UNL     1       0.304  -3.801   0.657  0.00  0.00    +0.466 C 
ATOM     20  O   UNL     1       1.248  -4.212   1.664  0.00  0.00    -0.453 OA
ENDBRANCH  10  12
ENDBRANCH   3   8
BRANCH   6  22
ATOM     21  C   UNL     1       9.406   4.476  -2.039  0.00  0.00    -0.004 C 
ATOM     22  C   UNL     1       9.964   3.550  -0.956  0.00  0.00    +0.016 C 
BRANCH  22  23
ATOM     23  C   UNL     1      10.183   4.335   0.311  0.00  0.00    +0.204 C 
ATOM     24  O   UNL     1       9.298   4.413   1.137  0.00  0.00    -0.277 OA
ATOM     25  N   UNL     1      11.363   4.949   0.528  0.00  0.00    -0.280 N 
ATOM     26  H   UNL     1      12.071   4.886  -0.133  0.00  0.00    +0.155 HD
BRANCH  25  27
ATOM     27  C   UNL     1      11.566   5.672   1.695  0.00  0.00    +0.090 A 
ATOM     28  C   UNL     1      12.697   6.365   2.094  0.00  0.00    +0.084 A 
ATOM     29  C   UNL     1      12.655   7.051   3.377  0.00  0.00    -0.018 A 
ATOM     30  C   UNL     1      11.492   6.923   4.053  0.00  0.00    -0.004 A 
ATOM     31  S   UNL     1      10.463   5.933   3.005  0.00  0.00    -0.077 S 
ATOM     32  C   UNL     1      11.145   7.491   5.394  0.00  0.00    +0.043 C 
ATOM     33  C   UNL     1      11.514   8.980   5.422  0.00  0.00    +0.005 C 
ATOM     34  C   UNL     1      12.956   9.113   5.902  0.00  0.00    +0.001 C 
ATOM     35  C   UNL     1      13.778   7.914   5.432  0.00  0.00    +0.005 C 
ATOM     36  C   UNL     1      13.828   7.865   3.909  0.00  0.00    +0.037 C 
BRANCH  28  37
ATOM     37  C   UNL     1      13.868   6.405   1.271  0.00  0.00    +0.102 C 
ATOM     38  N   UNL     1      14.797   6.438   0.618  0.00  0.00    -0.191 NA
ENDBRANCH  28  37
ENDBRANCH  25  27
ENDBRANCH  22  23
ENDBRANCH   6  22
TORSDOF 6
