REMARK  Name = ZINC20190132
REMARK  14 active torsions:
REMARK  status: ('A' for Active; 'I' for Inactive)
REMARK    1  A    between atoms: C_1  and  C_2
REMARK    2  A    between atoms: C_2  and  O_3
REMARK    3  A    between atoms: O_3  and  C_4
REMARK    4  A    between atoms: C_9  and  C_10
REMARK    5  A    between atoms: C_10  and  N_11
REMARK    6  A    between atoms: N_11  and  C_12
REMARK    7  A    between atoms: N_11  and  C_18
REMARK    8  A    between atoms: C_12  and  C_13
REMARK    9  A    between atoms: C_18  and  N_20
REMARK   10  A    between atoms: N_20  and  C_21
REMARK   11  A    between atoms: C_23  and  C_29
REMARK   12  A    between atoms: C_23  and  C_30
REMARK   13  A    between atoms: C_25  and  C_27
REMARK   14  A    between atoms: C_25  and  C_28
REMARK                            x       y       z     vdW  Elec       q    Type
REMARK                         _______ _______ _______ _____ _____    ______ ____
ROOT
ATOM      1  N   UNL     1       0.106   7.051  -2.376  0.00  0.00    -0.301 N 
ENDROOT
BRANCH   1   2
ATOM      2  C   UNL     1       0.113   5.703  -2.353  0.00  0.00    +0.134 C 
ATOM      3  S   UNL     1      -0.229   4.821  -3.780  0.00  0.00    -0.019 S 
BRANCH   2   4
ATOM      4  N   UNL     1       0.389   5.051  -1.207  0.00  0.00    -0.324 N 
ATOM      5  H   UNL     1       0.608   5.617  -0.290  0.00  0.00    +0.148 HD
BRANCH   4   6
ATOM      6  C   UNL     1       0.396   3.583  -1.181  0.00  0.00    +0.069 C 
ATOM      7  C   UNL     1       1.298   3.104  -0.042  0.00  0.00    +0.009 C 
ATOM      8  C   UNL     1       1.320   1.577  -0.002  0.00  0.00    -0.072 C 
ATOM      9  N   UNL     1      -0.012   1.005   0.008  0.00  0.00    +0.386 N 
ATOM     10  C   UNL     1      -1.042   1.551  -0.852  0.00  0.00    -0.072 C 
ATOM     11  C   UNL     1      -1.022   3.076  -0.918  0.00  0.00    +0.009 C 
ATOM     12  C   UNL     1      -0.944   0.975  -2.269  0.00  0.00    -0.010 C 
ATOM     13  C   UNL     1      -2.415   1.129  -0.282  0.00  0.00    -0.010 C 
ATOM     14  C   UNL     1       2.035   1.156   1.301  0.00  0.00    -0.010 C 
ATOM     15  C   UNL     1       2.151   1.041  -1.172  0.00  0.00    -0.010 C 
ATOM     16  H   UNL     1       0.042  -0.055  -0.283  0.00  0.00    -0.084 HD
ATOM     17  H   UNL     1      -0.438   1.086   1.018  0.00  0.00    -0.084 HD
ENDBRANCH   4   6
ENDBRANCH   2   4
ENDBRANCH   1   2
BRANCH   1  18
ATOM     18  C   UNL     1      -0.194   7.761  -3.622  0.00  0.00    +0.146 C 
BRANCH  18  24
ATOM     19  C   UNL     1      -2.256   9.053  -3.021  0.00  0.00    +0.125 A 
ATOM     20  C   UNL     1      -3.623   9.274  -3.112  0.00  0.00    +0.046 A 
ATOM     21  C   UNL     1      -4.405   8.447  -3.895  0.00  0.00    +0.004 A 
ATOM     22  C   UNL     1      -3.826   7.400  -4.589  0.00  0.00    +0.001 A 
ATOM     23  C   UNL     1      -2.463   7.181  -4.504  0.00  0.00    +0.009 A 
ATOM     24  C   UNL     1      -1.678   8.002  -3.718  0.00  0.00    +0.011 A 
BRANCH  19  25
ATOM     25  O   UNL     1      -1.485   9.866  -2.252  0.00  0.00    -0.492 OA
BRANCH  25  27
ATOM     26  C   UNL     1      -1.126  11.728  -0.754  0.00  0.00    +0.048 C 
ATOM     27  C   UNL     1      -2.149  10.928  -1.563  0.00  0.00    +0.225 C 
ENDBRANCH  25  27
ENDBRANCH  19  25
ENDBRANCH  18  24
ENDBRANCH   1  18
BRANCH   1  28
ATOM     28  C   UNL     1       0.398   7.806  -1.155  0.00  0.00    +0.181 C 
BRANCH  28  29
ATOM     29  C   UNL     1       1.880   8.066  -1.068  0.00  0.00    +0.122 A 
ATOM     30  C   UNL     1       2.522   9.137  -1.570  0.00  0.00    +0.046 A 
ATOM     31  C   UNL     1       3.892   8.975  -1.262  0.00  0.00    +0.041 A 
ATOM     32  C   UNL     1       4.006   7.814  -0.592  0.00  0.00    +0.195 A 
ATOM     33  O   UNL     1       2.784   7.271  -0.472  0.00  0.00    -0.466 OA
ENDBRANCH  28  29
ENDBRANCH   1  28
TORSDOF 9
