REMARK  Name = ZINC40894468
REMARK  7 active torsions:
REMARK  status: ('A' for Active; 'I' for Inactive)
REMARK    1  A    between atoms: C_1  and  C_2
REMARK    2  A    between atoms: C_2  and  C_4
REMARK    3  A    between atoms: C_2  and  N_11
REMARK    4  A    between atoms: C_12  and  C_14
REMARK    5  A    between atoms: N_19  and  C_21
REMARK    6  A    between atoms: C_24  and  C_28
REMARK    7  A    between atoms: C_30  and  C_33
REMARK                            x       y       z     vdW  Elec       q    Type
REMARK                         _______ _______ _______ _____ _____    ______ ____
ROOT
ATOM      1  C   UNL     1      -3.465  -1.164  -1.134  0.00  0.00    +0.092 C 
ATOM      2  C   UNL     1      -4.345  -0.236  -0.294  0.00  0.00    +0.016 C 
ATOM      3  C   UNL     1      -5.774  -0.783  -0.256  0.00  0.00    +0.020 C 
ATOM      4  C   UNL     1      -6.338  -0.827  -1.679  0.00  0.00    +0.105 C 
ATOM      5  N   UNL     1      -5.420  -1.599  -2.528  0.00  0.00    -0.327 N 
ATOM      6  C   UNL     1      -4.002  -1.214  -2.568  0.00  0.00    +0.118 C 
ENDROOT
BRANCH   5   7
ATOM      7  C   UNL     1      -5.885  -2.677  -3.282  0.00  0.00    +0.065 A 
ATOM      8  C   UNL     1      -6.338  -2.472  -4.580  0.00  0.00    +0.027 A 
ATOM      9  C   UNL     1      -6.798  -3.536  -5.327  0.00  0.00    +0.013 A 
ATOM     10  C   UNL     1      -6.809  -4.818  -4.781  0.00  0.00    +0.025 A 
ATOM     11  C   UNL     1      -6.354  -5.024  -3.479  0.00  0.00    +0.052 A 
ATOM     12  C   UNL     1      -5.889  -3.958  -2.736  0.00  0.00    +0.145 A 
ATOM     13  F   UNL     1      -5.442  -4.156  -1.476  0.00  0.00    -0.204 F 
BRANCH  10  14
ATOM     14  C   UNL     1      -7.304  -5.963  -5.583  0.00  0.00    +0.202 A 
ATOM     15  N   UNL     1      -7.369  -7.238  -5.168  0.00  0.00    -0.187 NA
ATOM     16  C   UNL     1      -7.854  -7.996  -6.123  0.00  0.00    +0.259 A 
ATOM     17  O   UNL     1      -8.117  -7.216  -7.187  0.00  0.00    -0.332 OA
ATOM     18  N   UNL     1      -7.756  -5.895  -6.812  0.00  0.00    -0.056 NA
BRANCH  16  19
ATOM     19  C   UNL     1      -8.075  -9.456  -6.044  0.00  0.00    +0.039 A 
ATOM     20  C   UNL     1      -7.764 -10.149  -4.874  0.00  0.00    +0.013 A 
ATOM     21  C   UNL     1      -7.972 -11.511  -4.806  0.00  0.00    +0.001 A 
ATOM     22  C   UNL     1      -8.488 -12.190  -5.896  0.00  0.00    +0.000 A 
ATOM     23  C   UNL     1      -8.798 -11.508  -7.060  0.00  0.00    +0.001 A 
ATOM     24  C   UNL     1      -8.601 -10.145  -7.138  0.00  0.00    +0.013 A 
ENDBRANCH  16  19
ENDBRANCH  10  14
ENDBRANCH   5   7
BRANCH   1  26
ATOM     25  N   UNL     1      -1.372  -0.511   0.012  0.00  0.00    -0.308 N 
ATOM     26  C   UNL     1      -2.051  -0.643  -1.145  0.00  0.00    +0.218 C 
ATOM     27  O   UNL     1      -1.524  -0.341  -2.194  0.00  0.00    -0.275 OA
ATOM     28  H   UNL     1      -1.794  -0.752   0.852  0.00  0.00    +0.149 HD
BRANCH  25  30
ATOM     29  C   UNL     1      -0.019   1.526   0.010  0.00  0.00    +0.033 C 
ATOM     30  C   UNL     1       0.002  -0.004   0.002  0.00  0.00    +0.100 C 
BRANCH  30  31
ATOM     31  C   UNL     1       0.731  -0.503   1.223  0.00  0.00    -0.027 A 
ATOM     32  C   UNL     1       0.080  -0.558   2.441  0.00  0.00    +0.008 A 
ATOM     33  C   UNL     1       0.748  -1.016   3.562  0.00  0.00    +0.038 A 
ATOM     34  C   UNL     1       2.068  -1.420   3.463  0.00  0.00    +0.123 A 
ATOM     35  C   UNL     1       2.719  -1.365   2.242  0.00  0.00    +0.038 A 
ATOM     36  C   UNL     1       2.048  -0.911   1.122  0.00  0.00    +0.008 A 
ATOM     37  F   UNL     1       2.722  -1.868   4.558  0.00  0.00    -0.205 F 
ENDBRANCH  30  31
ENDBRANCH  25  30
ENDBRANCH   1  26
TORSDOF 6
