REMARK  Name = ZINC28216149
REMARK  10 active torsions:
REMARK  status: ('A' for Active; 'I' for Inactive)
REMARK    1  A    between atoms: C_1  and  C_2
REMARK    2  A    between atoms: C_4  and  C_16
REMARK    3  A    between atoms: C_5  and  C_15
REMARK    4  A    between atoms: N_6  and  C_7
REMARK    5  A    between atoms: N_17  and  N_18
REMARK    6  A    between atoms: C_19  and  C_21
REMARK    7  A    between atoms: C_21  and  S_22
REMARK    8  A    between atoms: S_22  and  C_23
REMARK    9  A    between atoms: C_23  and  C_24
REMARK   10  A    between atoms: C_27  and  N_30
REMARK                            x       y       z     vdW  Elec       q    Type
REMARK                         _______ _______ _______ _____ _____    ______ ____
ROOT
ATOM      1  C   UNL     1       0.042  -3.384  -1.463  0.00  0.00    +0.140 C 
ATOM      2  N   UNL     1       0.059  -4.556  -0.904  0.00  0.00    -0.188 NA
ENDROOT
BRANCH   1   6
ATOM      3  C   UNL     1      -0.018   1.503   0.010  0.00  0.00    +0.064 C 
ATOM      4  C   UNL     1       0.002  -0.004   0.002  0.00  0.00    +0.022 A 
ATOM      5  C   UNL     1       0.008  -0.781  -1.097  0.00  0.00    +0.032 A 
ATOM      6  C   UNL     1       0.029  -2.170  -0.628  0.00  0.00    +0.016 A 
ATOM      7  C   UNL     1       0.034  -2.113   0.736  0.00  0.00    +0.030 A 
ATOM      8  N   UNL     1       0.024  -0.804   1.109  0.00  0.00    -0.317 N 
ATOM      9  C   UNL     1       0.054  -3.296   1.669  0.00  0.00    +0.064 C 
BRANCH   8  10
ATOM     10  C   UNL     1       0.030  -0.345   2.433  0.00  0.00    +0.048 A 
ATOM     11  C   UNL     1       1.133  -0.577   3.244  0.00  0.00    +0.027 A 
ATOM     12  C   UNL     1       1.137  -0.123   4.548  0.00  0.00    +0.023 A 
ATOM     13  C   UNL     1       0.043   0.561   5.048  0.00  0.00    +0.059 A 
ATOM     14  C   UNL     1      -1.058   0.794   4.242  0.00  0.00    +0.061 A 
ATOM     15  C   UNL     1      -1.064   0.347   2.934  0.00  0.00    +0.047 A 
ATOM     16 CL   UNL     1      -2.429   1.652   4.872  0.00  0.00    -0.082 Cl
ATOM     17 CL   UNL     1       0.052   1.129   6.689  0.00  0.00    -0.082 Cl
ENDBRANCH   8  10
ENDBRANCH   1   6
BRANCH   2  18
ATOM     18  N   UNL     1       0.071  -5.710  -1.697  0.00  0.00    -0.206 N 
ATOM     19  C   UNL     1       0.090  -6.927  -1.117  0.00  0.00    +0.242 C 
ATOM     20  O   UNL     1       0.096  -7.021   0.093  0.00  0.00    -0.273 OA
ATOM     21  H   UNL     1       0.066  -5.635  -2.664  0.00  0.00    +0.177 HD
BRANCH  19  22
ATOM     22  C   UNL     1       0.103  -8.169  -1.970  0.00  0.00    +0.166 C 
BRANCH  22  23
ATOM     23  S   UNL     1       0.126  -9.635  -0.902  0.00  0.00    -0.147 S 
BRANCH  23  24
ATOM     24  C   UNL     1       0.140 -11.026  -2.067  0.00  0.00    +0.104 C 
BRANCH  24  25
ATOM     25  C   UNL     1       0.160 -12.323  -1.301  0.00  0.00    -0.037 A 
ATOM     26  C   UNL     1       1.367 -12.899  -0.950  0.00  0.00    +0.006 A 
ATOM     27  C   UNL     1       1.385 -14.089  -0.246  0.00  0.00    +0.033 A 
ATOM     28  C   UNL     1       0.198 -14.703   0.105  0.00  0.00    +0.126 A 
ATOM     29  C   UNL     1      -1.009 -14.126  -0.245  0.00  0.00    +0.033 A 
ATOM     30  C   UNL     1      -1.027 -12.934  -0.945  0.00  0.00    +0.006 A 
BRANCH  28  31
ATOM     31  N   UNL     1       0.217 -15.978   0.857  0.00  0.00    +0.056 N 
ATOM     32  O   UNL     1       1.273 -16.483   1.164  0.00  0.00    -0.126 OA
ATOM     33  O   UNL     1      -0.821 -16.514   1.165  0.00  0.00    -0.126 OA
ENDBRANCH  28  31
ENDBRANCH  24  25
ENDBRANCH  23  24
ENDBRANCH  22  23
ENDBRANCH  19  22
ENDBRANCH   2  18
TORSDOF 8
