REMARK  Name = ZINC01133728
REMARK  4 active torsions:
REMARK  status: ('A' for Active; 'I' for Inactive)
REMARK    1  A    between atoms: C_15  and  C_17
REMARK    2  A    between atoms: C_17  and  S_18
REMARK    3  A    between atoms: S_18  and  C_19
REMARK    4  A    between atoms: C_20  and  C_28
REMARK                            x       y       z     vdW  Elec       q    Type
REMARK                         _______ _______ _______ _____ _____    ______ ____
ROOT
ATOM      1  C   UNL     1      -0.213   1.427  -0.063  0.00  0.00    +0.002 A 
ATOM      2  C   UNL     1      -1.359   2.050   0.396  0.00  0.00    +0.001 A 
ATOM      3  C   UNL     1      -1.300   3.349   0.870  0.00  0.00    +0.017 A 
ATOM      4  C   UNL     1      -0.093   4.024   0.873  0.00  0.00    +0.035 A 
ATOM      5  C   UNL     1       1.066   3.401   0.404  0.00  0.00    +0.055 A 
ATOM      6  C   UNL     1       0.996   2.098  -0.063  0.00  0.00    +0.025 A 
ATOM      7  N   UNL     1       2.287   4.087   0.404  0.00  0.00    -0.237 N 
ATOM      8  C   UNL     1       2.367   5.454   0.106  0.00  0.00    +0.055 A 
ATOM      9  C   UNL     1       3.437   5.949  -0.623  0.00  0.00    +0.025 A 
ATOM     10  C   UNL     1       3.509   7.299  -0.914  0.00  0.00    +0.002 A 
ATOM     11  C   UNL     1       2.519   8.163  -0.483  0.00  0.00    +0.001 A 
ATOM     12  C   UNL     1       1.446   7.679   0.246  0.00  0.00    +0.017 A 
ATOM     13  C   UNL     1       1.369   6.330   0.539  0.00  0.00    +0.035 A 
ATOM     14  S   UNL     1       0.013   5.683   1.466  0.00  0.00    -0.086 S 
ATOM     15  C   UNL     1       3.417   3.414   0.700  0.00  0.00    +0.234 C 
ATOM     16  O   UNL     1       3.359   2.249   1.034  0.00  0.00    -0.274 OA
ENDROOT
BRANCH  15  17
ATOM     17  C   UNL     1       4.752   4.108   0.614  0.00  0.00    +0.172 C 
BRANCH  17  18
ATOM     18  S   UNL     1       5.984   3.163   1.543  0.00  0.00    -0.095 S 
BRANCH  18  19
ATOM     19  C   UNL     1       7.405   4.170   1.280  0.00  0.00    +0.115 A 
ATOM     20  C   UNL     1       8.640   3.800   1.844  0.00  0.00    +0.084 A 
ATOM     21  C   UNL     1       9.751   4.620   1.619  0.00  0.00    +0.027 A 
ATOM     22  C   UNL     1       9.588   5.760   0.850  0.00  0.00    -0.025 A 
ATOM     23  C   UNL     1       8.343   6.062   0.326  0.00  0.00    +0.046 A 
ATOM     24  N   UNL     1       7.307   5.268   0.549  0.00  0.00    -0.244 NA
ATOM     25  C   UNL     1       8.426   7.348  -0.471  0.00  0.00    +0.056 C 
ATOM     26  C   UNL     1       9.737   8.023  -0.015  0.00  0.00    +0.011 C 
ATOM     27  C   UNL     1      10.588   6.820   0.442  0.00  0.00    +0.037 C 
BRANCH  20  28
ATOM     28  C   UNL     1       8.756   2.611   2.632  0.00  0.00    +0.102 C 
ATOM     29  N   UNL     1       8.849   1.667   3.258  0.00  0.00    -0.191 NA
ENDBRANCH  20  28
ENDBRANCH  18  19
ENDBRANCH  17  18
ENDBRANCH  15  17
TORSDOF 4
