REMARK  Name = ZINC14246140
REMARK  10 active torsions:
REMARK  status: ('A' for Active; 'I' for Inactive)
REMARK    1  A    between atoms: C_1  and  C_2
REMARK    2  A    between atoms: C_3  and  N_9
REMARK    3  A    between atoms: C_10  and  C_12
REMARK    4  A    between atoms: C_12  and  N_13
REMARK    5  A    between atoms: C_14  and  C_16
REMARK    6  A    between atoms: C_16  and  C_18
REMARK    7  A    between atoms: C_16  and  N_19
REMARK    8  A    between atoms: C_20  and  O_22
REMARK    9  A    between atoms: O_22  and  C_23
REMARK   10  A    between atoms: C_23  and  C_24
REMARK                            x       y       z     vdW  Elec       q    Type
REMARK                         _______ _______ _______ _____ _____    ______ ____
ROOT
ATOM      1  N   UNL     1      -1.406   6.124  -0.264  0.00  0.00    -0.305 N 
ATOM      2  C   UNL     1      -1.662   7.443  -0.365  0.00  0.00    +0.234 C 
ATOM      3  O   UNL     1      -0.747   8.238  -0.389  0.00  0.00    -0.274 OA
ATOM      4  H   UNL     1      -2.138   5.487  -0.245  0.00  0.00    +0.149 HD
ENDROOT
BRANCH   2   5
ATOM      5  C   UNL     1      -3.086   7.930  -0.449  0.00  0.00    +0.159 C 
ATOM      6  C   UNL     1      -3.846   7.501   0.808  0.00  0.00    +0.038 C 
BRANCH   5   7
ATOM      7  N   UNL     1      -3.096   9.391  -0.551  0.00  0.00    -0.270 N 
ATOM      8  C   UNL     1      -4.142  10.019  -1.126  0.00  0.00    +0.401 C 
ATOM      9  O   UNL     1      -5.075   9.373  -1.560  0.00  0.00    -0.226 OA
ATOM     10  H   UNL     1      -2.352   9.907  -0.205  0.00  0.00    +0.153 HD
BRANCH   8  11
ATOM     11  O   UNL     1      -4.152  11.362  -1.220  0.00  0.00    -0.446 OA
BRANCH  11  12
ATOM     12  C   UNL     1      -5.309  11.970  -1.852  0.00  0.00    +0.269 C 
BRANCH  12  13
ATOM     13  C   UNL     1      -5.144  13.468  -1.867  0.00  0.00    -0.010 A 
ATOM     14  C   UNL     1      -5.617  14.226  -0.812  0.00  0.00    +0.007 A 
ATOM     15  C   UNL     1      -5.462  15.599  -0.824  0.00  0.00    +0.000 A 
ATOM     16  C   UNL     1      -4.842  16.216  -1.895  0.00  0.00    +0.000 A 
ATOM     17  C   UNL     1      -4.375  15.458  -2.952  0.00  0.00    +0.000 A 
ATOM     18  C   UNL     1      -4.525  14.084  -2.938  0.00  0.00    +0.007 A 
ENDBRANCH  12  13
ENDBRANCH  11  12
ENDBRANCH   8  11
ENDBRANCH   5   7
ENDBRANCH   2   5
BRANCH   1  19
ATOM     19  C   UNL     1      -0.022   5.650  -0.183  0.00  0.00    +0.200 C 
BRANCH  19  21
ATOM     20  N   UNL     1       1.161   3.486   0.010  0.00  0.00    -0.284 N 
ATOM     21  C   UNL     1      -0.011   4.147  -0.077  0.00  0.00    +0.234 C 
ATOM     22  O   UNL     1      -1.056   3.531  -0.071  0.00  0.00    -0.274 OA
ATOM     23  H   UNL     1       1.992   3.980   0.085  0.00  0.00    +0.155 HD
BRANCH  20  26
ATOM     24  C   UNL     1       3.359   2.153   1.228  0.00  0.00    +0.047 C 
ATOM     25  C   UNL     1       2.232   1.396   0.575  0.00  0.00    -0.011 A 
ATOM     26  C   UNL     1       1.178   2.087  -0.009  0.00  0.00    +0.038 A 
ATOM     27  C   UNL     1       0.141   1.387  -0.611  0.00  0.00    +0.023 A 
ATOM     28  C   UNL     1       0.160   0.005  -0.628  0.00  0.00    +0.003 A 
ATOM     29  C   UNL     1       1.210  -0.680  -0.047  0.00  0.00    +0.020 A 
ATOM     30  C   UNL     1       2.246   0.015   0.554  0.00  0.00    +0.046 A 
ATOM     31 CL   UNL     1       3.563  -0.850   1.283  0.00  0.00    -0.083 Cl
ENDBRANCH  20  26
ENDBRANCH  19  21
ENDBRANCH   1  19
TORSDOF 8
