REMARK  Name = ZINC28053203
REMARK  2 active torsions:
REMARK  status: ('A' for Active; 'I' for Inactive)
REMARK    1  A    between atoms: C_4  and  C_7
REMARK    2  A    between atoms: C_18  and  C_20
REMARK                            x       y       z     vdW  Elec       q    Type
REMARK                         _______ _______ _______ _____ _____    ______ ____
ROOT
ATOM      1  C   UNL     1      -3.345  -0.925  -0.244  0.00  0.00    +0.174 C 
ATOM      2  C   UNL     1      -2.128  -0.033  -0.250  0.00  0.00    +0.025 C 
ATOM      3  C   UNL     1      -0.918  -0.475   0.100  0.00  0.00    +0.050 C 
ATOM      4  C   UNL     1       0.216   0.479   0.073  0.00  0.00    +0.038 A 
ATOM      5  C   UNL     1       1.535   0.041   0.088  0.00  0.00    +0.013 A 
ATOM      6  C   UNL     1       2.560   0.967   0.069  0.00  0.00    +0.001 A 
ATOM      7  C   UNL     1       2.277   2.321   0.033  0.00  0.00    +0.004 A 
ATOM      8  C   UNL     1       0.968   2.766   0.015  0.00  0.00    +0.046 A 
ATOM      9  C   UNL     1      -0.068   1.850   0.034  0.00  0.00    +0.131 A 
ATOM     10  O   UNL     1      -1.367   2.245   0.009  0.00  0.00    -0.479 OA
ATOM     11  C   UNL     1      -2.290   1.407  -0.681  0.00  0.00    +0.234 C 
ATOM     12  N   UNL     1      -0.691  -1.798   0.498  0.00  0.00    -0.282 N 
ATOM     13  C   UNL     1      -1.802  -2.570   0.796  0.00  0.00    +0.240 A 
ATOM     14  N   UNL     1      -3.054  -2.166   0.459  0.00  0.00    -0.201 N 
ATOM     15  N   UNL     1      -3.905  -3.170   0.919  0.00  0.00    -0.042 NA
ATOM     16  N   UNL     1      -3.152  -4.068   1.468  0.00  0.00    -0.021 NA
ATOM     17  N   UNL     1      -1.912  -3.720   1.396  0.00  0.00    -0.092 NA
ATOM     18  H   UNL     1       0.337  -2.184   0.562  0.00  0.00    +0.155 HD
ENDROOT
BRANCH  11  19
ATOM     19  C   UNL     1      -2.041   1.513  -2.163  0.00  0.00    -0.000 A 
ATOM     20  C   UNL     1      -0.752   1.426  -2.656  0.00  0.00    +0.008 A 
ATOM     21  C   UNL     1      -0.523   1.518  -4.016  0.00  0.00    +0.003 A 
ATOM     22  C   UNL     1      -1.581   1.709  -4.884  0.00  0.00    +0.038 A 
ATOM     23  C   UNL     1      -2.872   1.801  -4.392  0.00  0.00    +0.124 A 
ATOM     24  C   UNL     1      -3.101   1.703  -3.029  0.00  0.00    +0.046 A 
ATOM     25  F   UNL     1      -3.907   1.987  -5.239  0.00  0.00    -0.205 F 
ENDBRANCH  11  19
BRANCH   1  29
ATOM     26  C   UNL     1      -4.472  -1.808  -4.269  0.00  0.00    +0.000 A 
ATOM     27  C   UNL     1      -5.353  -1.147  -3.434  0.00  0.00    +0.000 A 
ATOM     28  C   UNL     1      -4.989  -0.862  -2.131  0.00  0.00    +0.006 A 
ATOM     29  C   UNL     1      -3.743  -1.236  -1.664  0.00  0.00    -0.019 A 
ATOM     30  C   UNL     1      -2.859  -1.892  -2.502  0.00  0.00    +0.006 A 
ATOM     31  C   UNL     1      -3.225  -2.182  -3.803  0.00  0.00    +0.000 A 
ENDBRANCH   1  29
TORSDOF 2
