REMARK  Name = ZINC22431848
REMARK  11 active torsions:
REMARK  status: ('A' for Active; 'I' for Inactive)
REMARK    1  A    between atoms: C_1  and  C_2
REMARK    2  A    between atoms: C_5  and  S_8
REMARK    3  A    between atoms: S_8  and  N_11
REMARK    4  A    between atoms: N_11  and  C_12
REMARK    5  A    between atoms: N_11  and  C_29
REMARK    6  A    between atoms: C_12  and  C_13
REMARK    7  A    between atoms: N_15  and  C_16
REMARK    8  A    between atoms: C_16  and  C_17
REMARK    9  A    between atoms: C_22  and  N_23
REMARK   10  A    between atoms: C_27  and  C_28
REMARK   11  A    between atoms: C_34  and  C_35
REMARK                            x       y       z     vdW  Elec       q    Type
REMARK                         _______ _______ _______ _____ _____    ______ ____
ROOT
ATOM      1  N   UNL     1      -0.478  -3.838  -3.008  0.00  0.00    -0.194 N 
ENDROOT
BRANCH   1   2
ATOM      2  C   UNL     1      -1.559  -4.691  -2.774  0.00  0.00    +0.056 A 
ATOM      3  C   UNL     1      -1.959  -4.968  -1.473  0.00  0.00    +0.045 A 
ATOM      4  C   UNL     1      -3.032  -5.809  -1.246  0.00  0.00    +0.043 A 
ATOM      5  C   UNL     1      -3.702  -6.382  -2.313  0.00  0.00    +0.020 A 
ATOM      6  C   UNL     1      -3.303  -6.111  -3.609  0.00  0.00    +0.006 A 
ATOM      7  C   UNL     1      -2.234  -5.268  -3.843  0.00  0.00    -0.028 A 
ATOM      8  C   UNL     1      -1.799  -4.975  -5.256  0.00  0.00    +0.046 C 
ATOM      9 CL   UNL     1      -3.536  -6.152   0.379  0.00  0.00    -0.083 Cl
ENDBRANCH   1   2
BRANCH   1  10
ATOM     10  S   UNL     1       1.042  -4.464  -3.209  0.00  0.00    +0.075 S 
ATOM     11  O   UNL     1       0.876  -5.841  -3.518  0.00  0.00    -0.150 OA
ATOM     12  O   UNL     1       1.740  -3.570  -4.065  0.00  0.00    -0.150 OA
BRANCH  10  17
ATOM     13  C   UNL     1       3.796  -4.219   2.154  0.00  0.00    +0.044 C 
ATOM     14  C   UNL     1       3.108  -4.281   0.815  0.00  0.00    -0.050 A 
ATOM     15  C   UNL     1       2.439  -5.428   0.433  0.00  0.00    +0.005 A 
ATOM     16  C   UNL     1       1.808  -5.484  -0.796  0.00  0.00    +0.029 A 
ATOM     17  C   UNL     1       1.846  -4.393  -1.643  0.00  0.00    +0.109 A 
ATOM     18  C   UNL     1       2.519  -3.247  -1.263  0.00  0.00    +0.029 A 
ATOM     19  C   UNL     1       3.146  -3.189  -0.033  0.00  0.00    +0.005 A 
ENDBRANCH  10  17
ENDBRANCH   1  10
BRANCH   1  20
ATOM     20  C   UNL     1      -0.688  -2.390  -3.075  0.00  0.00    +0.227 C 
BRANCH  20  21
ATOM     21  C   UNL     1      -0.625  -1.808  -1.687  0.00  0.00    +0.232 C 
ATOM     22  O   UNL     1      -0.491  -2.539  -0.728  0.00  0.00    -0.274 OA
ATOM     23  N   UNL     1      -0.718  -0.475  -1.509  0.00  0.00    -0.310 N 
ATOM     24  H   UNL     1      -0.840   0.188  -2.378  0.00  0.00    +0.149 HD
BRANCH  23  25
ATOM     25  C   UNL     1      -0.657   0.090  -0.159  0.00  0.00    +0.141 C 
BRANCH  25  26
ATOM     26  C   UNL     1      -0.783   1.590  -0.237  0.00  0.00    -0.006 A 
ATOM     27  C   UNL     1       0.344   2.384  -0.158  0.00  0.00    +0.007 A 
ATOM     28  C   UNL     1       0.229   3.760  -0.229  0.00  0.00    +0.000 A 
ATOM     29  C   UNL     1      -1.014   4.346  -0.379  0.00  0.00    +0.002 A 
ATOM     30  C   UNL     1      -2.146   3.557  -0.458  0.00  0.00    +0.026 A 
ATOM     31  C   UNL     1      -2.032   2.175  -0.393  0.00  0.00    +0.052 A 
BRANCH  31  32
ATOM     32  N   UNL     1      -3.178   1.371  -0.480  0.00  0.00    -0.303 N 
ATOM     33  C   UNL     1      -4.007   1.248  -1.565  0.00  0.00    +0.112 A 
ATOM     34  C   UNL     1      -4.975   0.378  -1.220  0.00  0.00    +0.131 A 
ATOM     35  N   UNL     1      -4.754  -0.015   0.043  0.00  0.00    -0.241 NA
ATOM     36  C   UNL     1      -3.680   0.573   0.497  0.00  0.00    +0.111 A 
ATOM     37  C   UNL     1      -3.096   0.395   1.875  0.00  0.00    +0.086 C 
ENDBRANCH  31  32
ENDBRANCH  25  26
ENDBRANCH  23  25
ENDBRANCH  20  21
ENDBRANCH   1  20
TORSDOF 8
