REMARK  Name = ZINC06409852
REMARK  6 active torsions:
REMARK  status: ('A' for Active; 'I' for Inactive)
REMARK    1  A    between atoms: C_1  and  C_2
REMARK    2  A    between atoms: C_7  and  C_14
REMARK    3  A    between atoms: C_14  and  C_16
REMARK    4  A    between atoms: C_14  and  N_68
REMARK    5  A    between atoms: N_20  and  C_21
REMARK    6  A    between atoms: C_32  and  C_34
REMARK                            x       y       z     vdW  Elec       q    Type
REMARK                         _______ _______ _______ _____ _____    ______ ____
ROOT
ATOM      1  C   UNL     1       1.844   4.104   0.321  0.00  0.00    +0.039 C 
ENDROOT
BRANCH   1   8
ATOM      2  C   UNL     1       3.477   5.358  -7.385  0.00  0.00    +0.044 C 
ATOM      3  C   UNL     1       3.057   5.327  -5.938  0.00  0.00    -0.048 A 
ATOM      4  C   UNL     1       2.318   6.378  -5.413  0.00  0.00    +0.004 A 
ATOM      5  C   UNL     1       1.928   6.369  -4.104  0.00  0.00    +0.010 A 
ATOM      6  C   UNL     1       2.276   5.291  -3.285  0.00  0.00    -0.001 A 
ATOM      7  C   UNL     1       1.874   5.249  -1.877  0.00  0.00    +0.017 A 
ATOM      8  C   UNL     1       2.241   4.178  -1.131  0.00  0.00    +0.011 A 
ATOM      9  C   UNL     1       2.998   3.135  -1.707  0.00  0.00    +0.251 A 
ATOM     10  O   UNL     1       3.321   2.184  -1.017  0.00  0.00    -0.268 OA
ATOM     11  N   UNL     1       3.366   3.162  -3.000  0.00  0.00    -0.322 N 
ATOM     12  H   UNL     1       3.883   2.427  -3.365  0.00  0.00    +0.169 HD
ATOM     13  C   UNL     1       3.025   4.223  -3.812  0.00  0.00    +0.049 A 
ATOM     14  C   UNL     1       3.412   4.254  -5.148  0.00  0.00    +0.029 A 
ENDBRANCH   1   8
BRANCH   1  22
ATOM     15  C   UNL     1       2.659   3.605   2.546  0.00  0.00    -0.058 C 
ATOM     16  C   UNL     1       3.883   3.115   3.327  0.00  0.00    +0.089 C 
ATOM     17  N   UNL     1       4.990   4.055   3.099  0.00  0.00    -0.299 N 
ATOM     18  C   UNL     1       5.329   4.407   1.711  0.00  0.00    +0.089 C 
ATOM     19  C   UNL     1       4.048   4.846   0.994  0.00  0.00    -0.058 C 
ATOM     20  C   UNL     1       5.676   4.580   4.133  0.00  0.00    +0.282 C 
ATOM     21  O   UNL     1       6.510   5.444   3.934  0.00  0.00    -0.267 OA
ATOM     22  N   UNL     1       3.038   3.774   1.126  0.00  0.00    +0.391 N 
ATOM     23  H   UNL     1       3.440   2.894   0.782  0.00  0.00    -0.080 HD
BRANCH  20  24
ATOM     24  C   UNL     1       5.418   4.110   5.498  0.00  0.00    +0.189 A 
ATOM     25  C   UNL     1       5.941   4.642   6.642  0.00  0.00    +0.054 A 
ATOM     26  C   UNL     1       5.429   3.887   7.709  0.00  0.00    +0.042 A 
ATOM     27  C   UNL     1       4.627   2.939   7.176  0.00  0.00    +0.196 A 
ATOM     28  O   UNL     1       4.619   3.080   5.844  0.00  0.00    -0.458 OA
ENDBRANCH  20  24
ENDBRANCH   1  22
BRANCH   1  29
ATOM     29  C   UNL     1       0.814   3.019   0.506  0.00  0.00    +0.143 A 
ATOM     30  N   UNL     1       1.031   1.726   0.503  0.00  0.00    -0.115 NA
ATOM     31  N   UNL     1      -0.098   1.133   0.690  0.00  0.00    -0.023 NA
ATOM     32  N   UNL     1      -1.028   2.014   0.813  0.00  0.00    -0.044 NA
ATOM     33  N   UNL     1      -0.506   3.189   0.705  0.00  0.00    -0.227 N 
BRANCH  33  34
ATOM     34  C   UNL     1      -1.217   4.468   0.779  0.00  0.00    +0.111 C 
ATOM     35  C   UNL     1      -1.900   4.593   2.142  0.00  0.00    +0.027 C 
ATOM     36  C   UNL     1      -2.643   5.929   2.219  0.00  0.00    +0.002 C 
ATOM     37  C   UNL     1      -3.697   5.991   1.112  0.00  0.00    +0.000 C 
ATOM     38  C   UNL     1      -3.014   5.865  -0.251  0.00  0.00    +0.002 C 
ATOM     39  C   UNL     1      -2.271   4.530  -0.328  0.00  0.00    +0.027 C 
ENDBRANCH  33  34
ENDBRANCH   1  29
TORSDOF 5
