REMARK  Name = ZINC44998767
REMARK  7 active torsions:
REMARK  status: ('A' for Active; 'I' for Inactive)
REMARK    1  A    between atoms: C_4  and  C_7
REMARK    2  A    between atoms: C_9  and  C_34
REMARK    3  A    between atoms: N_10  and  C_12
REMARK    4  A    between atoms: C_17  and  C_18
REMARK    5  A    between atoms: N_20  and  C_21
REMARK    6  A    between atoms: C_21  and  C_22
REMARK    7  A    between atoms: C_22  and  N_23
REMARK                            x       y       z     vdW  Elec       q    Type
REMARK                         _______ _______ _______ _____ _____    ______ ____
ROOT
ATOM      1  C   UNL     1       7.117  -1.645  -0.547  0.00  0.00    +0.078 A 
ATOM      2  C   UNL     1       7.668  -2.918  -0.595  0.00  0.00    +0.028 A 
ATOM      3  C   UNL     1       9.013  -3.081  -0.861  0.00  0.00    +0.002 A 
ATOM      4  C   UNL     1       9.822  -1.978  -1.082  0.00  0.00    +0.001 A 
ATOM      5  C   UNL     1       9.292  -0.706  -1.038  0.00  0.00    +0.015 A 
ATOM      6  C   UNL     1       7.932  -0.527  -0.776  0.00  0.00    +0.062 A 
ENDROOT
BRANCH   1  10
ATOM      7  C   UNL     1       3.621  -1.025  -0.574  0.00  0.00    +0.094 A 
ATOM      8  C   UNL     1       3.817  -1.419   0.761  0.00  0.00    +0.058 A 
ATOM      9  C   UNL     1       5.143  -1.696   0.923  0.00  0.00    +0.075 A 
ATOM     10  N   UNL     1       5.758  -1.480  -0.279  0.00  0.00    -0.231 N 
ATOM     11  N   UNL     1       4.782  -1.067  -1.195  0.00  0.00    -0.166 NA
BRANCH   7  15
ATOM     12  C   UNL     1      -0.093   0.095  -2.317  0.00  0.00    +0.000 A 
ATOM     13  C   UNL     1       1.057   0.095  -3.086  0.00  0.00    +0.001 A 
ATOM     14  C   UNL     1       2.265  -0.267  -2.526  0.00  0.00    +0.010 A 
ATOM     15  C   UNL     1       2.325  -0.633  -1.182  0.00  0.00    +0.002 A 
ATOM     16  C   UNL     1       1.163  -0.631  -0.413  0.00  0.00    +0.010 A 
ATOM     17  C   UNL     1      -0.039  -0.267  -0.984  0.00  0.00    +0.001 A 
ENDBRANCH   7  15
BRANCH   9  18
ATOM     18  C   UNL     1       5.796  -2.146   2.172  0.00  0.00    +0.000 A 
ATOM     19  C   UNL     1       7.173  -1.993   2.336  0.00  0.00    +0.010 A 
ATOM     20  C   UNL     1       7.776  -2.415   3.503  0.00  0.00    +0.001 A 
ATOM     21  C   UNL     1       7.019  -2.988   4.509  0.00  0.00    +0.000 A 
ATOM     22  C   UNL     1       5.653  -3.142   4.352  0.00  0.00    +0.001 A 
ATOM     23  C   UNL     1       5.037  -2.720   3.192  0.00  0.00    +0.010 A 
ENDBRANCH   9  18
ENDBRANCH   1  10
BRANCH   6  24
ATOM     24  C   UNL     1       7.356   0.831  -0.733  0.00  0.00    +0.246 C 
ATOM     25  O   UNL     1       6.197   0.990  -0.405  0.00  0.00    -0.270 OA
ATOM     26  N   UNL     1       8.117   1.896  -1.058  0.00  0.00    -0.310 N 
ATOM     27  H   UNL     1       9.042   1.769  -1.320  0.00  0.00    +0.149 HD
BRANCH  26  28
ATOM     28  C   UNL     1       7.546   3.244  -1.016  0.00  0.00    +0.126 C 
BRANCH  28  29
ATOM     29  C   UNL     1       8.611   4.262  -1.427  0.00  0.00    +0.145 C 
BRANCH  29  30
ATOM     30  N   UNL     1       8.040   5.611  -1.385  0.00  0.00    -0.291 N 
ATOM     31  C   UNL     1       7.399   6.258  -2.439  0.00  0.00    +0.070 A 
ATOM     32  C   UNL     1       7.110   5.892  -3.745  0.00  0.00    +0.028 A 
ATOM     33  C   UNL     1       6.444   6.774  -4.574  0.00  0.00    +0.002 A 
ATOM     34  C   UNL     1       6.063   8.020  -4.106  0.00  0.00    +0.002 A 
ATOM     35  C   UNL     1       6.347   8.393  -2.807  0.00  0.00    +0.028 A 
ATOM     36  C   UNL     1       7.015   7.514  -1.967  0.00  0.00    +0.067 A 
ATOM     37  N   UNL     1       7.435   7.592  -0.641  0.00  0.00    -0.306 N 
ATOM     38  H   UNL     1       7.309   8.350  -0.049  0.00  0.00    +0.170 HD
ATOM     39  C   UNL     1       8.041   6.434  -0.320  0.00  0.00    +0.328 A 
ATOM     40  O   UNL     1       8.520   6.172   0.768  0.00  0.00    -0.247 OA
ENDBRANCH  29  30
ENDBRANCH  28  29
ENDBRANCH  26  28
ENDBRANCH   6  24
TORSDOF 7
