REMARK  Name = ZINC02655674
REMARK  9 active torsions:
REMARK  status: ('A' for Active; 'I' for Inactive)
REMARK    1  A    between atoms: C_1  and  C_2
REMARK    2  A    between atoms: C_2  and  O_3
REMARK    3  A    between atoms: O_3  and  C_4
REMARK    4  A    between atoms: C_4  and  C_6
REMARK    5  A    between atoms: C_10  and  N_11
REMARK    6  A    between atoms: C_12  and  C_14
REMARK    7  A    between atoms: C_15  and  C_16
REMARK    8  A    between atoms: N_18  and  C_27
REMARK    9  A    between atoms: C_20  and  C_21
REMARK                            x       y       z     vdW  Elec       q    Type
REMARK                         _______ _______ _______ _____ _____    ______ ____
ROOT
ATOM      1  C   UNL     1       4.220   4.834   2.036  0.00  0.00    +0.068 C 
ATOM      2  C   UNL     1       3.386   3.930   1.475  0.00  0.00    +0.016 C 
ENDROOT
BRANCH   2   3
ATOM      3  C   UNL     1       2.238   4.385   0.681  0.00  0.00    +0.021 A 
ATOM      4  C   UNL     1       1.879   5.694   0.418  0.00  0.00    +0.123 A 
ATOM      5  N   UNL     1       0.770   5.671  -0.343  0.00  0.00    -0.239 N 
ATOM      6  N   UNL     1       0.396   4.348  -0.589  0.00  0.00    -0.166 NA
ATOM      7  C   UNL     1       1.243   3.541   0.009  0.00  0.00    +0.102 A 
BRANCH   7   8
ATOM      8  C   UNL     1       1.205   2.059   0.002  0.00  0.00    +0.021 A 
ATOM      9  C   UNL     1      -0.017   1.380   0.010  0.00  0.00    +0.013 A 
ATOM     10  C   UNL     1       0.002  -0.004   0.002  0.00  0.00    +0.020 A 
ATOM     11  C   UNL     1       1.218  -0.664  -0.013  0.00  0.00    +0.111 A 
ATOM     12  N   UNL     1       2.355   0.004  -0.021  0.00  0.00    -0.263 NA
ATOM     13  C   UNL     1       2.387   1.321  -0.014  0.00  0.00    +0.120 A 
ENDBRANCH   7   8
BRANCH   5  14
ATOM     14  C   UNL     1       0.095   6.803  -0.820  0.00  0.00    +0.065 A 
ATOM     15  C   UNL     1       0.562   8.073  -0.509  0.00  0.00    +0.028 A 
ATOM     16  C   UNL     1      -0.103   9.187  -0.985  0.00  0.00    +0.002 A 
ATOM     17  C   UNL     1      -1.237   9.037  -1.762  0.00  0.00    +0.000 A 
ATOM     18  C   UNL     1      -1.707   7.773  -2.068  0.00  0.00    +0.002 A 
ATOM     19  C   UNL     1      -1.044   6.656  -1.600  0.00  0.00    +0.028 A 
ENDBRANCH   5  14
ENDBRANCH   2   3
BRANCH   1  21
ATOM     20  N   UNL     1       6.160   5.296   3.362  0.00  0.00    -0.276 N 
ATOM     21  C   UNL     1       5.328   4.395   2.803  0.00  0.00    +0.241 C 
ATOM     22  O   UNL     1       5.528   3.204   2.956  0.00  0.00    -0.270 OA
ATOM     23  H   UNL     1       6.000   6.245   3.240  0.00  0.00    +0.156 HD
BRANCH  20  28
ATOM     24  C   UNL     1       8.205   5.634   4.755  0.00  0.00    +0.091 A 
ATOM     25  C   UNL     1       9.246   4.929   5.485  0.00  0.00    -0.021 A 
ATOM     26  C   UNL     1       9.165   3.582   5.446  0.00  0.00    -0.004 A 
ATOM     27  S   UNL     1       7.729   3.242   4.466  0.00  0.00    -0.077 S 
ATOM     28  C   UNL     1       7.242   4.867   4.111  0.00  0.00    +0.087 A 
ATOM     29  C   UNL     1      10.093   2.602   6.094  0.00  0.00    +0.043 C 
ATOM     30  C   UNL     1      11.373   3.345   6.503  0.00  0.00    +0.005 C 
ATOM     31  C   UNL     1      10.983   4.634   7.234  0.00  0.00    +0.005 C 
ATOM     32  C   UNL     1      10.368   5.626   6.245  0.00  0.00    +0.037 C 
BRANCH  24  33
ATOM     33  C   UNL     1       8.170   7.096   4.703  0.00  0.00    +0.342 C 
ATOM     34  O   UNL     1       7.562   7.720   5.552  0.00  0.00    -0.245 OA
BRANCH  33  35
ATOM     35  O   UNL     1       8.813   7.752   3.715  0.00  0.00    -0.461 OA
BRANCH  35  37
ATOM     36  C   UNL     1       9.520   9.764   2.539  0.00  0.00    +0.048 C 
ATOM     37  C   UNL     1       8.736   9.202   3.727  0.00  0.00    +0.229 C 
ENDBRANCH  35  37
ENDBRANCH  33  35
ENDBRANCH  24  33
ENDBRANCH  20  28
ENDBRANCH   1  21
TORSDOF 8
