REMARK  Name = ZINC30123099
REMARK  9 active torsions:
REMARK  status: ('A' for Active; 'I' for Inactive)
REMARK    1  A    between atoms: C_1  and  C_2
REMARK    2  A    between atoms: C_7  and  C_8
REMARK    3  A    between atoms: C_8  and  C_10
REMARK    4  A    between atoms: C_8  and  N_29
REMARK    5  A    between atoms: C_10  and  C_11
REMARK    6  A    between atoms: N_13  and  C_14
REMARK    7  A    between atoms: C_14  and  C_16
REMARK    8  A    between atoms: C_14  and  C_23
REMARK    9  A    between atoms: C_16  and  C_17
REMARK                            x       y       z     vdW  Elec       q    Type
REMARK                         _______ _______ _______ _____ _____    ______ ____
ROOT
ATOM      1  C   UNL     1      -3.446   1.970   3.533  0.00  0.00    +0.216 C 
ATOM      2  O   UNL     1      -3.079   1.028   4.203  0.00  0.00    -0.276 OA
ATOM      3  N   UNL     1      -3.698   1.806   2.219  0.00  0.00    -0.308 N 
ATOM      4  H   UNL     1      -4.031   2.660   1.611  0.00  0.00    +0.149 HD
ENDROOT
BRANCH   1   5
ATOM      5  C   UNL     1      -3.621   3.325   4.169  0.00  0.00    +0.123 C 
BRANCH   5   6
ATOM      6  C   UNL     1      -3.272   3.239   5.657  0.00  0.00    +0.114 C 
BRANCH   6  13
ATOM      7  C   UNL     1      -3.380   3.419   8.538  0.00  0.00    +0.044 C 
ATOM      8  C   UNL     1      -3.615   4.647   7.697  0.00  0.00    -0.045 A 
ATOM      9  C   UNL     1      -3.882   5.860   8.304  0.00  0.00    +0.004 A 
ATOM     10  C   UNL     1      -4.097   6.986   7.533  0.00  0.00    +0.000 A 
ATOM     11  C   UNL     1      -4.045   6.900   6.154  0.00  0.00    +0.000 A 
ATOM     12  C   UNL     1      -3.774   5.689   5.547  0.00  0.00    +0.006 A 
ATOM     13  C   UNL     1      -3.564   4.561   6.319  0.00  0.00    -0.024 A 
ENDBRANCH   6  13
BRANCH   6  14
ATOM     14  N   UNL     1      -1.850   2.920   5.807  0.00  0.00    -0.292 N 
ATOM     15  C   UNL     1      -0.919   3.712   5.240  0.00  0.00    +0.298 C 
ATOM     16  O   UNL     1      -1.252   4.738   4.681  0.00  0.00    -0.253 OA
ATOM     17  N   UNL     1       0.383   3.365   5.293  0.00  0.00    -0.313 N 
ATOM     18  H   UNL     1      -1.543   2.034   6.383  0.00  0.00    +0.151 HD
ATOM     19  H   UNL     1       1.143   4.011   4.831  0.00  0.00    +0.146 HD
ATOM     20  H   UNL     1       0.684   2.436   5.799  0.00  0.00    +0.146 HD
ENDBRANCH   6  14
ENDBRANCH   5   6
ENDBRANCH   1   5
BRANCH   3  21
ATOM     21  C   UNL     1      -3.529   0.489   1.600  0.00  0.00    +0.107 C 
BRANCH  21  22
ATOM     22  C   UNL     1      -4.783  -0.323   1.795  0.00  0.00    -0.027 A 
ATOM     23  C   UNL     1      -6.021   0.280   1.681  0.00  0.00    +0.005 A 
ATOM     24  C   UNL     1      -7.172  -0.465   1.855  0.00  0.00    +0.000 A 
ATOM     25  C   UNL     1      -7.085  -1.812   2.152  0.00  0.00    +0.000 A 
ATOM     26  C   UNL     1      -5.846  -2.415   2.272  0.00  0.00    +0.000 A 
ATOM     27  C   UNL     1      -4.696  -1.670   2.093  0.00  0.00    +0.005 A 
ENDBRANCH  21  22
BRANCH  21  28
ATOM     28  C   UNL     1      -3.258   0.659   0.104  0.00  0.00    +0.062 C 
BRANCH  28  29
ATOM     29  C   UNL     1      -1.941   1.364  -0.091  0.00  0.00    -0.045 A 
ATOM     30  C   UNL     1      -0.774   0.631  -0.200  0.00  0.00    +0.004 A 
ATOM     31  C   UNL     1       0.434   1.277  -0.385  0.00  0.00    +0.000 A 
ATOM     32  C   UNL     1       0.475   2.657  -0.456  0.00  0.00    +0.000 A 
ATOM     33  C   UNL     1      -0.691   3.391  -0.342  0.00  0.00    +0.000 A 
ATOM     34  C   UNL     1      -1.899   2.744  -0.157  0.00  0.00    +0.004 A 
ENDBRANCH  28  29
ENDBRANCH  21  28
ENDBRANCH   3  21
TORSDOF 8
