REMARK  Name = ZINC13117921
REMARK  6 active torsions:
REMARK  status: ('A' for Active; 'I' for Inactive)
REMARK    1  A    between atoms: C_1  and  C_2
REMARK    2  A    between atoms: C_5  and  C_9
REMARK    3  A    between atoms: C_7  and  C_8
REMARK    4  A    between atoms: C_9  and  C_30
REMARK    5  A    between atoms: N_12  and  C_16
REMARK    6  A    between atoms: C_16  and  C_17
REMARK                            x       y       z     vdW  Elec       q    Type
REMARK                         _______ _______ _______ _____ _____    ______ ____
ROOT
ATOM      1  C   UNL     1       0.059  -4.275  -0.021  0.00  0.00    +0.164 C 
ATOM      2  C   UNL     1      -1.344  -4.797   0.214  0.00  0.00    +0.256 C 
ATOM      3  O   UNL     1      -2.323  -4.602  -0.474  0.00  0.00    -0.272 OA
ATOM      4  N   UNL     1      -1.277  -5.524   1.347  0.00  0.00    -0.215 N 
ATOM      5  C   UNL     1      -0.039  -5.533   1.855  0.00  0.00    +0.310 C 
ATOM      6  O   UNL     1       0.269  -6.122   2.873  0.00  0.00    -0.252 OA
ATOM      7  N   UNL     1       0.826  -4.819   1.113  0.00  0.00    -0.278 N 
ATOM      8  H   UNL     1       1.771  -4.689   1.289  0.00  0.00    +0.152 HD
ENDROOT
BRANCH   1  13
ATOM      9  C   UNL     1       0.124   1.502   0.065  0.00  0.00    +0.044 C 
ATOM     10  C   UNL     1       0.107  -0.004   0.043  0.00  0.00    -0.048 A 
ATOM     11  C   UNL     1       1.086  -0.717   0.711  0.00  0.00    +0.004 A 
ATOM     12  C   UNL     1       1.070  -2.099   0.690  0.00  0.00    +0.007 A 
ATOM     13  C   UNL     1       0.076  -2.769   0.002  0.00  0.00    -0.010 A 
ATOM     14  C   UNL     1      -0.903  -2.057  -0.665  0.00  0.00    +0.010 A 
ATOM     15  C   UNL     1      -0.890  -0.674  -0.641  0.00  0.00    -0.047 A 
ATOM     16  C   UNL     1      -1.960   0.102  -1.364  0.00  0.00    +0.044 C 
ENDBRANCH   1  13
BRANCH   1  17
ATOM     17  C   UNL     1       0.608  -4.790  -1.328  0.00  0.00    -0.011 A 
ATOM     18  C   UNL     1       1.677  -5.666  -1.331  0.00  0.00    +0.006 A 
ATOM     19  C   UNL     1       2.179  -6.138  -2.530  0.00  0.00    +0.000 A 
ATOM     20  C   UNL     1       1.613  -5.734  -3.724  0.00  0.00    +0.000 A 
ATOM     21  C   UNL     1       0.543  -4.858  -3.720  0.00  0.00    +0.000 A 
ATOM     22  C   UNL     1       0.037  -4.390  -2.522  0.00  0.00    +0.006 A 
ENDBRANCH   1  17
BRANCH   4  23
ATOM     23  C   UNL     1      -2.419  -6.217   1.949  0.00  0.00    +0.214 C 
BRANCH  23  24
ATOM     24  C   UNL     1      -2.508  -7.615   1.394  0.00  0.00    +0.238 C 
ATOM     25  O   UNL     1      -1.697  -7.995   0.575  0.00  0.00    -0.273 OA
ATOM     26  N   UNL     1      -3.488  -8.443   1.806  0.00  0.00    -0.260 N 
ATOM     27  C   UNL     1      -4.487  -8.004   2.792  0.00  0.00    +0.209 C 
ATOM     28  C   UNL     1      -4.727  -9.120   3.777  0.00  0.00    +0.235 C 
ATOM     29  O   UNL     1      -5.062  -8.855   4.913  0.00  0.00    -0.274 OA
ATOM     30  N   UNL     1      -4.576 -10.407   3.412  0.00  0.00    -0.283 N 
ATOM     31  C   UNL     1      -4.144 -10.739   2.123  0.00  0.00    +0.055 A 
ATOM     32  C   UNL     1      -3.592  -9.749   1.303  0.00  0.00    +0.058 A 
ATOM     33  C   UNL     1      -3.158 -10.060   0.028  0.00  0.00    +0.025 A 
ATOM     34  C   UNL     1      -3.278 -11.357  -0.441  0.00  0.00    +0.002 A 
ATOM     35  C   UNL     1      -3.829 -12.338   0.362  0.00  0.00    +0.002 A 
ATOM     36  C   UNL     1      -4.259 -12.035   1.649  0.00  0.00    +0.025 A 
ATOM     37  H   UNL     1      -4.769 -11.112   4.050  0.00  0.00    +0.155 HD
ENDBRANCH  23  24
ENDBRANCH   4  23
TORSDOF 4
