REMARK  Name = ZINC40003343
REMARK  9 active torsions:
REMARK  status: ('A' for Active; 'I' for Inactive)
REMARK    1  A    between atoms: C_1  and  C_2
REMARK    2  A    between atoms: C_9  and  C_37
REMARK    3  A    between atoms: C_10  and  C_11
REMARK    4  A    between atoms: C_11  and  C_13
REMARK    5  A    between atoms: C_18  and  C_20
REMARK    6  A    between atoms: C_23  and  O_26
REMARK    7  A    between atoms: C_29  and  C_35
REMARK    8  A    between atoms: C_30  and  C_32
REMARK    9  A    between atoms: C_32  and  C_34
REMARK                            x       y       z     vdW  Elec       q    Type
REMARK                         _______ _______ _______ _____ _____    ______ ____
ROOT
ATOM      1  C   UNL     1       0.035  -3.453   4.597  0.00  0.00    +0.078 C 
ATOM      2  C   UNL     1       0.032  -4.608   5.301  0.00  0.00    +0.250 C 
ATOM      3  C   UNL     1       0.141  -4.301   6.739  0.00  0.00    +0.293 C 
ATOM      4  O   UNL     1       0.164  -5.129   7.628  0.00  0.00    -0.266 OA
ATOM      5  N   UNL     1       0.210  -2.970   6.921  0.00  0.00    -0.232 N 
ATOM      6  C   UNL     1       0.156  -2.331   5.601  0.00  0.00    +0.152 C 
ATOM      7  C   UNL     1       0.320  -2.321   8.135  0.00  0.00    +0.169 A 
ATOM      8  N   UNL     1       0.385  -1.020   8.364  0.00  0.00    -0.229 NA
ATOM      9  C   UNL     1       0.487  -0.542   9.575  0.00  0.00    +0.058 A 
ATOM     10  C   UNL     1       0.523  -1.480  10.607  0.00  0.00    +0.078 A 
ATOM     11  S   UNL     1       0.394  -2.997   9.674  0.00  0.00    -0.049 S 
ATOM     12  C   UNL     1       0.562   0.939   9.843  0.00  0.00    +0.067 C 
ATOM     13  O   UNL     1      -0.058  -5.850   4.769  0.00  0.00    -0.282 OA
ENDROOT
BRANCH   6  14
ATOM     14  C   UNL     1      -1.046  -1.426   5.516  0.00  0.00    -0.022 A 
ATOM     15  C   UNL     1      -2.261  -1.843   6.027  0.00  0.00    +0.009 A 
ATOM     16  C   UNL     1      -3.365  -1.015   5.950  0.00  0.00    +0.046 A 
ATOM     17  C   UNL     1      -3.253   0.235   5.359  0.00  0.00    +0.117 A 
ATOM     18  C   UNL     1      -2.033   0.651   4.846  0.00  0.00    +0.046 A 
ATOM     19  C   UNL     1      -0.931  -0.178   4.931  0.00  0.00    +0.009 A 
BRANCH  17  20
ATOM     20  O   UNL     1      -4.338   1.050   5.280  0.00  0.00    -0.507 OA
ATOM     21  H   UNL     1      -4.443   1.638   6.041  0.00  0.00    +0.292 HD
ENDBRANCH  17  20
ENDBRANCH   6  14
BRANCH  10  22
ATOM     22  C   UNL     1       0.627  -1.284  11.998  0.00  0.00    +0.168 C 
ATOM     23  O   UNL     1       0.701  -0.158  12.449  0.00  0.00    -0.292 OA
ATOM     24  C   UNL     1       0.646  -2.471  12.927  0.00  0.00    +0.092 C 
ENDBRANCH  10  22
BRANCH   1  25
ATOM     25  C   UNL     1      -0.056  -3.316   3.138  0.00  0.00    +0.213 C 
ATOM     26  O   UNL     1      -1.147  -3.235   2.600  0.00  0.00    -0.285 OA
BRANCH  25  36
ATOM     27  C   UNL     1       4.375  -3.032  -1.066  0.00  0.00    +0.047 C 
ATOM     28  C   UNL     1       2.917  -3.013  -0.688  0.00  0.00    -0.008 A 
ATOM     29  C   UNL     1       1.959  -2.865  -1.648  0.00  0.00    +0.008 A 
ATOM     30  C   UNL     1       0.607  -2.849  -1.280  0.00  0.00    +0.018 A 
ATOM     31  C   UNL     1       0.255  -2.981   0.020  0.00  0.00    +0.093 A 
ATOM     32  N   UNL     1       1.204  -3.129   0.982  0.00  0.00    -0.296 N 
ATOM     33  C   UNL     1       2.530  -3.155   0.656  0.00  0.00    +0.141 A 
ATOM     34  N   UNL     1       3.241  -3.317   1.772  0.00  0.00    -0.232 NA
ATOM     35  C   UNL     1       2.430  -3.404   2.812  0.00  0.00    +0.068 A 
ATOM     36  C   UNL     1       1.124  -3.279   2.355  0.00  0.00    +0.116 A 
ATOM     37  C   UNL     1       2.850  -3.591   4.247  0.00  0.00    +0.068 C 
ENDBRANCH  25  36
ENDBRANCH   1  25
TORSDOF 5
