REMARK  Name = ZINC20603506
REMARK  15 active torsions:
REMARK  status: ('A' for Active; 'I' for Inactive)
REMARK    1  A    between atoms: C_1  and  C_2
REMARK    2  A    between atoms: C_2  and  C_3
REMARK    3  A    between atoms: C_3  and  N_4
REMARK    4  A    between atoms: C_13  and  O_14
REMARK    5  A    between atoms: C_15  and  N_16
REMARK    6  A    between atoms: C_17  and  C_19
REMARK    7  A    between atoms: C_21  and  O_31
REMARK    8  A    between atoms: C_22  and  O_28
REMARK    9  A    between atoms: C_23  and  O_25
REMARK   10  A    between atoms: O_25  and  C_26
REMARK   11  A    between atoms: C_26  and  C_27
REMARK   12  A    between atoms: O_28  and  C_29
REMARK   13  A    between atoms: C_29  and  C_30
REMARK   14  A    between atoms: O_31  and  C_32
REMARK   15  A    between atoms: C_32  and  C_33
REMARK                            x       y       z     vdW  Elec       q    Type
REMARK                         _______ _______ _______ _____ _____    ______ ____
ROOT
ATOM      1  N   UNL     1      -0.061   8.229   3.997  0.00  0.00    -0.274 N 
ATOM      2  C   UNL     1      -0.693   7.138   3.521  0.00  0.00    +0.249 C 
ATOM      3  O   UNL     1      -1.520   7.251   2.637  0.00  0.00    -0.270 OA
ATOM      4  H   UNL     1       0.598   8.145   4.874  0.00  0.00    +0.155 HD
ENDROOT
BRANCH   1  15
ATOM      5  N   UNL     1       2.137   9.722   3.092  0.00  0.00    -0.382 N 
ATOM      6  C   UNL     1       0.851  10.200   2.930  0.00  0.00    +0.075 A 
ATOM      7  C   UNL     1       0.599  11.498   2.284  0.00  0.00    +0.042 A 
ATOM      8  C   UNL     1       1.653  12.284   1.814  0.00  0.00    +0.013 A 
ATOM      9  C   UNL     1       1.385  13.494   1.214  0.00  0.00    +0.001 A 
ATOM     10  C   UNL     1       0.076  13.931   1.075  0.00  0.00    +0.004 A 
ATOM     11  C   UNL     1      -0.974  13.165   1.534  0.00  0.00    +0.047 A 
ATOM     12  C   UNL     1      -0.726  11.941   2.143  0.00  0.00    +0.141 A 
ATOM     13  O   UNL     1      -1.745  11.181   2.598  0.00  0.00    -0.424 OA
ATOM     14  C   UNL     1      -1.537   9.992   3.185  0.00  0.00    +0.309 A 
ATOM     15  C   UNL     1      -0.242   9.474   3.372  0.00  0.00    +0.139 A 
ATOM     16  H   UNL     1       2.665   9.876   4.045  0.00  0.00    +0.160 HD
BRANCH  14  17
ATOM     17  O   UNL     1      -2.496   9.345   3.571  0.00  0.00    -0.479 OA
ATOM     18  H   UNL     1      -2.342   8.369   4.054  0.00  0.00    +0.295 HD
ENDBRANCH  14  17
BRANCH   5  19
ATOM     19  C   UNL     1       2.603   9.043   1.875  0.00  0.00    +0.112 C 
BRANCH  19  21
ATOM     20  C   UNL     1       4.486   7.761   0.849  0.00  0.00    +0.005 C 
ATOM     21  C   UNL     1       4.000   8.467   2.116  0.00  0.00    +0.017 C 
ENDBRANCH  19  21
ENDBRANCH   5  19
ENDBRANCH   1  15
BRANCH   2  22
ATOM     22  C   UNL     1      -0.382   5.805   4.074  0.00  0.00    +0.044 A 
ATOM     23  C   UNL     1      -1.037   4.673   3.582  0.00  0.00    +0.062 A 
ATOM     24  C   UNL     1      -0.744   3.426   4.101  0.00  0.00    +0.166 A 
ATOM     25  C   UNL     1       0.204   3.297   5.113  0.00  0.00    +0.204 A 
ATOM     26  C   UNL     1       0.854   4.425   5.609  0.00  0.00    +0.166 A 
ATOM     27  C   UNL     1       0.568   5.673   5.090  0.00  0.00    +0.062 A 
BRANCH  26  28
ATOM     28  O   UNL     1       1.775   4.296   6.601  0.00  0.00    -0.488 OA
BRANCH  28  29
ATOM     29  C   UNL     1       2.404   5.494   7.062  0.00  0.00    +0.226 C 
ATOM     30  C   UNL     1       3.401   5.152   8.171  0.00  0.00    +0.048 C 
ENDBRANCH  28  29
ENDBRANCH  26  28
BRANCH  25  31
ATOM     31  O   UNL     1       0.491   2.070   5.622  0.00  0.00    -0.485 OA
BRANCH  31  32
ATOM     32  C   UNL     1       1.541   1.335   4.991  0.00  0.00    +0.226 C 
ATOM     33  C   UNL     1       1.717  -0.011   5.696  0.00  0.00    +0.048 C 
ENDBRANCH  31  32
ENDBRANCH  25  31
BRANCH  24  34
ATOM     34  O   UNL     1      -1.381   2.324   3.623  0.00  0.00    -0.488 OA
BRANCH  34  35
ATOM     35  C   UNL     1      -2.341   2.529   2.585  0.00  0.00    +0.226 C 
ATOM     36  C   UNL     1      -2.948   1.185   2.179  0.00  0.00    +0.048 C 
ENDBRANCH  34  35
ENDBRANCH  24  34
ENDBRANCH   2  22
TORSDOF 11
