REMARK  Name = ZINC50441538
REMARK  8 active torsions:
REMARK  status: ('A' for Active; 'I' for Inactive)
REMARK    1  A    between atoms: C_1  and  C_2
REMARK    2  A    between atoms: C_2  and  C_3
REMARK    3  A    between atoms: C_2  and  C_16
REMARK    4  A    between atoms: C_2  and  N_19
REMARK    5  A    between atoms: C_3  and  O_4
REMARK    6  A    between atoms: O_4  and  C_5
REMARK    7  A    between atoms: C_8  and  N_12
REMARK    8  A    between atoms: N_19  and  C_20
REMARK                            x       y       z     vdW  Elec       q    Type
REMARK                         _______ _______ _______ _____ _____    ______ ____
ROOT
ATOM      1  O   UNL     1       2.025  -0.120   1.218  0.00  0.00    -0.491 OA
ENDROOT
BRANCH   1   2
ATOM      2  C   UNL     1       2.815  -0.499   2.256  0.00  0.00    +0.148 A 
ATOM      3  C   UNL     1       2.887   0.287   3.398  0.00  0.00    +0.063 A 
ATOM      4  C   UNL     1       3.691  -0.102   4.453  0.00  0.00    +0.051 A 
ATOM      5  C   UNL     1       4.424  -1.271   4.372  0.00  0.00    +0.129 A 
ATOM      6  C   UNL     1       4.354  -2.056   3.236  0.00  0.00    +0.051 A 
ATOM      7  C   UNL     1       3.547  -1.676   2.180  0.00  0.00    +0.063 A 
ATOM      8 BR   UNL     1       3.446  -2.754   0.629  0.00  0.00    -0.046 Br
ATOM      9 BR   UNL     1       1.887   1.887   3.510  0.00  0.00    -0.046 Br
BRANCH   5  10
ATOM     10  N   UNL     1       5.285  -1.684   5.503  0.00  0.00    +0.056 N 
ATOM     11  O   UNL     1       5.347  -0.999   6.497  0.00  0.00    -0.126 OA
ATOM     12  O   UNL     1       5.926  -2.707   5.433  0.00  0.00    -0.126 OA
ENDBRANCH   5  10
ENDBRANCH   1   2
BRANCH   1  13
ATOM     13  C   UNL     1       0.672  -0.579   1.230  0.00  0.00    +0.228 C 
BRANCH  13  15
ATOM     14  C   UNL     1      -0.037   1.475  -0.003  0.00  0.00    +0.005 C 
ATOM     15  C   UNL     1      -0.056  -0.055  -0.009  0.00  0.00    +0.067 C 
BRANCH  15  16
ATOM     16  N   UNL     1      -1.447  -0.527   0.004  0.00  0.00    +0.390 N 
ATOM     17  C   UNL     1      -2.153   0.061   1.151  0.00  0.00    -0.099 C 
ATOM     18  H   UNL     1      -1.905  -0.249  -0.851  0.00  0.00    -0.085 HD
ATOM     19  H   UNL     1      -1.460  -1.533   0.081  0.00  0.00    -0.085 HD
ENDBRANCH  15  16
BRANCH  15  20
ATOM     20  C   UNL     1       0.634  -0.562  -1.249  0.00  0.00    +0.348 C 
ATOM     21  O   UNL     1       1.768  -0.196  -1.508  0.00  0.00    -0.248 OA
ATOM     22  O   UNL     1       0.059  -1.337  -1.994  0.00  0.00    -0.248 OA
ENDBRANCH  15  20
ENDBRANCH  13  15
ENDBRANCH   1  13
TORSDOF 6
