REMARK  Name = ZINC13980672
REMARK  9 active torsions:
REMARK  status: ('A' for Active; 'I' for Inactive)
REMARK    1  A    between atoms: C_1  and  C_2
REMARK    2  A    between atoms: C_2  and  C_3
REMARK    3  A    between atoms: C_3  and  C_5
REMARK    4  A    between atoms: C_3  and  C_6
REMARK    5  A    between atoms: C_9  and  O_32
REMARK    6  A    between atoms: C_10  and  N_12
REMARK    7  A    between atoms: N_13  and  C_14
REMARK    8  A    between atoms: C_17  and  S_20
REMARK    9  A    between atoms: S_20  and  N_23
REMARK                            x       y       z     vdW  Elec       q    Type
REMARK                         _______ _______ _______ _____ _____    ______ ____
ROOT
ATOM      1  C   UNL     1       5.768  -4.421   1.163  0.00  0.00    +0.086 A 
ATOM      2  C   UNL     1       5.887  -5.811   1.092  0.00  0.00    +0.031 A 
ATOM      3  C   UNL     1       7.137  -6.394   1.091  0.00  0.00    +0.031 A 
ATOM      4  C   UNL     1       8.272  -5.605   1.161  0.00  0.00    +0.109 A 
ATOM      5  C   UNL     1       8.162  -4.228   1.232  0.00  0.00    +0.031 A 
ATOM      6  C   UNL     1       6.919  -3.630   1.227  0.00  0.00    +0.031 A 
ENDROOT
BRANCH   4   7
ATOM      7  S   UNL     1       9.864  -6.359   1.160  0.00  0.00    +0.075 S 
ATOM      8  O   UNL     1      10.750  -5.438   1.782  0.00  0.00    -0.150 OA
ATOM      9  O   UNL     1       9.686  -7.685   1.637  0.00  0.00    -0.150 OA
BRANCH   7  10
ATOM     10  N   UNL     1      10.346  -6.484  -0.419  0.00  0.00    -0.202 N 
ATOM     11  C   UNL     1      10.072  -7.630  -1.292  0.00  0.00    +0.136 C 
ATOM     12  C   UNL     1      10.717  -7.271  -2.641  0.00  0.00    +0.058 C 
ATOM     13  C   UNL     1      11.326  -5.905  -2.420  0.00  0.00    -0.023 A 
ATOM     14  C   UNL     1      11.066  -5.513  -1.115  0.00  0.00    +0.054 A 
ATOM     15  C   UNL     1      11.530  -4.271  -0.676  0.00  0.00    +0.025 A 
ATOM     16  C   UNL     1      12.232  -3.449  -1.532  0.00  0.00    +0.002 A 
ATOM     17  C   UNL     1      12.482  -3.848  -2.832  0.00  0.00    +0.000 A 
ATOM     18  C   UNL     1      12.033  -5.080  -3.272  0.00  0.00    +0.005 A 
ENDBRANCH   7  10
ENDBRANCH   4   7
BRANCH   1  20
ATOM     19  N   UNL     1       3.472  -4.569   1.105  0.00  0.00    -0.146 NA
ATOM     20  N   UNL     1       4.532  -3.836   1.164  0.00  0.00    -0.149 NA
BRANCH  19  25
ATOM     21  C   UNL     1       0.870  -2.011   1.172  0.00  0.00    -0.042 A 
ATOM     22  C   UNL     1      -0.268  -2.798   1.109  0.00  0.00    +0.007 A 
ATOM     23  C   UNL     1      -0.165  -4.174   1.044  0.00  0.00    +0.048 A 
ATOM     24  C   UNL     1       1.083  -4.777   1.042  0.00  0.00    +0.144 A 
ATOM     25  C   UNL     1       2.239  -3.985   1.106  0.00  0.00    +0.128 A 
ATOM     26  C   UNL     1       2.119  -2.593   1.166  0.00  0.00    +0.037 A 
BRANCH  21  27
ATOM     27  C   UNL     1       0.742  -0.511   1.242  0.00  0.00    +0.016 C 
ATOM     28  C   UNL     1      -0.042  -0.124   2.497  0.00  0.00    +0.012 C 
BRANCH  27  30
ATOM     29  C   UNL     1      -0.019   1.526   0.010  0.00  0.00    +0.004 C 
ATOM     30  C   UNL     1       0.002  -0.004   0.002  0.00  0.00    +0.004 C 
ENDBRANCH  27  30
ENDBRANCH  21  27
BRANCH  24  31
ATOM     31  O   UNL     1       1.186  -6.130   0.979  0.00  0.00    -0.505 OA
ATOM     32  H   UNL     1       1.235  -6.479   0.079  0.00  0.00    +0.292 HD
ENDBRANCH  24  31
ENDBRANCH  19  25
ENDBRANCH   1  20
TORSDOF 7
