REMARK  Name = ZINC20150611
REMARK  6 active torsions:
REMARK  status: ('A' for Active; 'I' for Inactive)
REMARK    1  A    between atoms: C_1  and  O_2
REMARK    2  A    between atoms: O_2  and  C_3
REMARK    3  A    between atoms: C_3  and  C_5
REMARK    4  A    between atoms: C_5  and  C_29
REMARK    5  A    between atoms: C_10  and  C_13
REMARK    6  A    between atoms: N_20  and  C_23
REMARK                            x       y       z     vdW  Elec       q    Type
REMARK                         _______ _______ _______ _____ _____    ______ ____
ROOT
ATOM      1  C   UNL     1      -1.244  -2.135   0.003  0.00  0.00    +0.155 C 
ATOM      2  C   UNL     1      -2.535  -2.608  -0.644  0.00  0.00    +0.125 C 
ATOM      3  C   UNL     1      -2.061  -2.597  -2.148  0.00  0.00    +0.112 C 
ATOM      4  C   UNL     1      -0.778  -3.316  -2.068  0.00  0.00    +0.104 C 
ATOM      5  N   UNL     1      -0.145  -2.691  -0.844  0.00  0.00    -0.289 NA
ATOM      6  C   UNL     1      -3.318  -2.652  -2.851  0.00  0.00    +0.232 C 
ATOM      7  O   UNL     1      -3.549  -3.205  -3.905  0.00  0.00    -0.274 OA
ATOM      8  N   UNL     1      -4.197  -1.944  -2.069  0.00  0.00    -0.210 N 
ATOM      9  C   UNL     1      -3.709  -1.693  -0.806  0.00  0.00    +0.233 C 
ATOM     10  O   UNL     1      -4.132  -0.897   0.005  0.00  0.00    -0.274 OA
ATOM     11  H   UNL     1       0.515  -1.971  -1.098  0.00  0.00    +0.124 HD
ENDROOT
BRANCH   8  12
ATOM     12  C   UNL     1      -5.463  -1.528  -2.504  0.00  0.00    +0.044 A 
ATOM     13  C   UNL     1      -6.290  -0.809  -1.652  0.00  0.00    +0.024 A 
ATOM     14  C   UNL     1      -7.536  -0.400  -2.083  0.00  0.00    +0.002 A 
ATOM     15  C   UNL     1      -7.961  -0.706  -3.363  0.00  0.00    +0.000 A 
ATOM     16  C   UNL     1      -7.139  -1.422  -4.215  0.00  0.00    +0.002 A 
ATOM     17  C   UNL     1      -5.889  -1.829  -3.791  0.00  0.00    +0.024 A 
ENDBRANCH   8  12
BRANCH   1  18
ATOM     18  C   UNL     1      -1.138  -2.667   1.409  0.00  0.00    -0.016 A 
ATOM     19  C   UNL     1      -2.282  -2.885   2.153  0.00  0.00    +0.006 A 
ATOM     20  C   UNL     1      -2.185  -3.373   3.443  0.00  0.00    +0.000 A 
ATOM     21  C   UNL     1      -0.944  -3.644   3.988  0.00  0.00    +0.000 A 
ATOM     22  C   UNL     1       0.200  -3.427   3.243  0.00  0.00    +0.000 A 
ATOM     23  C   UNL     1       0.103  -2.943   1.952  0.00  0.00    +0.006 A 
ENDBRANCH   1  18
BRANCH   4  24
ATOM     24  C   UNL     1      -1.003  -4.795  -1.887  0.00  0.00    +0.007 A 
ATOM     25  C   UNL     1      -0.951  -5.786  -2.810  0.00  0.00    +0.013 A 
ATOM     26  C   UNL     1      -1.195  -7.087  -2.412  0.00  0.00    +0.008 A 
ATOM     27  C   UNL     1      -1.478  -7.333  -1.109  0.00  0.00    +0.045 A 
ATOM     28  S   UNL     1      -1.400  -5.697  -0.398  0.00  0.00    -0.100 S 
ENDBRANCH   4  24
BRANCH   1  29
ATOM     29  C   UNL     1      -1.185  -0.630   0.010  0.00  0.00    +0.333 C 
ATOM     30  O   UNL     1      -2.208   0.015   0.023  0.00  0.00    -0.248 OA
BRANCH  29  32
ATOM     31  C   UNL     1      -0.017   1.425   0.010  0.00  0.00    +0.280 C 
ATOM     32  O   UNL     1       0.002  -0.004   0.002  0.00  0.00    -0.466 OA
ENDBRANCH  29  32
ENDBRANCH   1  29
TORSDOF 5
