REMARK  Name = ZINC03064498
REMARK  9 active torsions:
REMARK  status: ('A' for Active; 'I' for Inactive)
REMARK    1  A    between atoms: C_1  and  O_2
REMARK    2  A    between atoms: O_2  and  C_3
REMARK    3  A    between atoms: C_6  and  C_20
REMARK    4  A    between atoms: C_8  and  C_9
REMARK    5  A    between atoms: C_9  and  N_10
REMARK    6  A    between atoms: N_21  and  N_22
REMARK    7  A    between atoms: C_23  and  C_25
REMARK    8  A    between atoms: C_28  and  O_32
REMARK    9  A    between atoms: C_30  and  O_31
REMARK                            x       y       z     vdW  Elec       q    Type
REMARK                         _______ _______ _______ _____ _____    ______ ____
ROOT
ATOM      1  C   UNL     1      -0.040   0.936  -0.138  0.00  0.00    +0.125 A 
ATOM      2  C   UNL     1       1.255   1.436  -0.196  0.00  0.00    +0.046 A 
ATOM      3  C   UNL     1       1.474   2.795  -0.146  0.00  0.00    +0.013 A 
ATOM      4  C   UNL     1       0.391   3.672  -0.037  0.00  0.00    -0.005 A 
ATOM      5  C   UNL     1      -0.910   3.165   0.021  0.00  0.00    +0.018 A 
ATOM      6  C   UNL     1      -1.119   1.804  -0.035  0.00  0.00    +0.012 A 
ENDROOT
BRANCH   1   8
ATOM      7  C   UNL     1       0.903  -1.240  -0.301  0.00  0.00    +0.277 C 
ATOM      8  O   UNL     1      -0.251  -0.405  -0.189  0.00  0.00    -0.495 OA
ENDBRANCH   1   8
BRANCH   4   9
ATOM      9  C   UNL     1       0.620   5.127   0.017  0.00  0.00    +0.138 C 
ATOM     10  N   UNL     1       1.829   5.596  -0.036  0.00  0.00    -0.187 NA
BRANCH  10  11
ATOM     11  N   UNL     1       2.047   6.979   0.015  0.00  0.00    -0.203 N 
ATOM     12  C   UNL     1       3.302   7.466  -0.041  0.00  0.00    +0.267 C 
ATOM     13  O   UNL     1       4.246   6.705  -0.136  0.00  0.00    -0.268 OA
ATOM     14  H   UNL     1       1.193   7.668   0.101  0.00  0.00    +0.178 HD
BRANCH  12  15
ATOM     15  C   UNL     1       3.531   8.920   0.013  0.00  0.00    +0.080 A 
ATOM     16  C   UNL     1       2.448   9.798   0.123  0.00  0.00    +0.020 A 
ATOM     17  C   UNL     1       2.666  11.155   0.173  0.00  0.00    +0.046 A 
ATOM     18  C   UNL     1       3.962  11.659   0.117  0.00  0.00    +0.120 A 
ATOM     19  C   UNL     1       5.043  10.798   0.009  0.00  0.00    +0.091 A 
ATOM     20  C   UNL     1       4.837   9.430  -0.038  0.00  0.00    +0.132 A 
BRANCH  20  21
ATOM     21  O   UNL     1       5.894   8.585  -0.139  0.00  0.00    -0.506 OA
ATOM     22  H   UNL     1       6.918   8.987  -0.179  0.00  0.00    +0.292 HD
ENDBRANCH  20  21
BRANCH  18  23
ATOM     23  O   UNL     1       4.168  13.000   0.168  0.00  0.00    -0.507 OA
ATOM     24  H   UNL     1       5.191  13.401   0.124  0.00  0.00    +0.292 HD
ENDBRANCH  18  23
ENDBRANCH  12  15
ENDBRANCH  10  11
ENDBRANCH   4   9
BRANCH   6  25
ATOM     25  C   UNL     1      -2.522   1.256   0.021  0.00  0.00    +0.144 C 
BRANCH  25  26
ATOM     26  N   UNL     1      -2.812   0.791   1.384  0.00  0.00    -0.325 N 
ATOM     27  C   UNL     1      -2.442   1.804   2.374  0.00  0.00    +0.106 C 
ATOM     28  C   UNL     1      -2.792   1.276   3.771  0.00  0.00    +0.024 C 
ATOM     29  C   UNL     1      -4.317   1.208   3.880  0.00  0.00    +0.038 C 
ATOM     30  C   UNL     1      -4.883   0.541   2.652  0.00  0.00    -0.026 A 
ATOM     31  C   UNL     1      -4.137   0.372   1.498  0.00  0.00    +0.033 A 
ATOM     32  C   UNL     1      -4.719  -0.244   0.390  0.00  0.00    +0.023 A 
ATOM     33  C   UNL     1      -6.024  -0.685   0.442  0.00  0.00    +0.002 A 
ATOM     34  C   UNL     1      -6.764  -0.518   1.598  0.00  0.00    +0.000 A 
ATOM     35  C   UNL     1      -6.194   0.092   2.698  0.00  0.00    +0.005 A 
ENDBRANCH  25  26
ENDBRANCH   6  25
TORSDOF 8
