REMARK  Name = ZINC40030174
REMARK  8 active torsions:
REMARK  status: ('A' for Active; 'I' for Inactive)
REMARK    1  A    between atoms: C_2  and  C_3
REMARK    2  A    between atoms: C_3  and  N_4
REMARK    3  A    between atoms: C_5  and  C_29
REMARK    4  A    between atoms: C_7  and  C_12
REMARK    5  A    between atoms: C_12  and  C_14
REMARK    6  A    between atoms: C_18  and  O_20
REMARK    7  A    between atoms: O_20  and  C_21
REMARK    8  A    between atoms: C_21  and  C_22
REMARK                            x       y       z     vdW  Elec       q    Type
REMARK                         _______ _______ _______ _____ _____    ______ ____
ROOT
ATOM      1  N   UNL     1       1.818  -2.294   0.943  0.00  0.00    -0.280 N 
ATOM      2  C   UNL     1       2.677  -2.292   2.132  0.00  0.00    +0.149 C 
ATOM      3  C   UNL     1       1.775  -2.596   3.305  0.00  0.00    +0.076 C 
ATOM      4  C   UNL     1       0.526  -2.752   2.806  0.00  0.00    +0.249 C 
ATOM      5  C   UNL     1       0.560  -2.558   1.341  0.00  0.00    +0.288 C 
ATOM      6  O   UNL     1      -0.404  -2.630   0.606  0.00  0.00    -0.266 OA
ATOM      7  O   UNL     1      -0.579  -3.036   3.534  0.00  0.00    -0.282 OA
ENDROOT
BRANCH   2   8
ATOM      8  C   UNL     1       3.740  -3.353   2.005  0.00  0.00    +0.031 A 
ATOM      9  C   UNL     1       3.400  -4.626   1.578  0.00  0.00    +0.130 A 
ATOM     10  C   UNL     1       4.377  -5.600   1.462  0.00  0.00    +0.039 A 
ATOM     11  C   UNL     1       5.691  -5.302   1.772  0.00  0.00    +0.004 A 
ATOM     12  C   UNL     1       6.029  -4.032   2.199  0.00  0.00    +0.020 A 
ATOM     13  C   UNL     1       5.055  -3.055   2.310  0.00  0.00    +0.049 A 
ATOM     14 CL   UNL     1       5.483  -1.458   2.839  0.00  0.00    -0.083 Cl
ATOM     15  F   UNL     1       2.116  -4.917   1.275  0.00  0.00    -0.205 F 
ENDBRANCH   2   8
BRANCH   3  16
ATOM     16  C   UNL     1       2.174  -2.702   4.711  0.00  0.00    +0.195 C 
ATOM     17  O   UNL     1       2.100  -3.772   5.286  0.00  0.00    -0.287 OA
BRANCH  16  18
ATOM     18  C   UNL     1       2.668  -1.509   5.431  0.00  0.00    +0.026 A 
ATOM     19  C   UNL     1       2.638  -0.256   4.815  0.00  0.00    +0.012 A 
ATOM     20  C   UNL     1       3.099   0.855   5.490  0.00  0.00    +0.004 A 
ATOM     21  C   UNL     1       3.593   0.733   6.777  0.00  0.00    +0.046 A 
ATOM     22  C   UNL     1       3.627  -0.509   7.397  0.00  0.00    +0.122 A 
ATOM     23  C   UNL     1       3.161  -1.630   6.731  0.00  0.00    +0.057 A 
BRANCH  22  24
ATOM     24  O   UNL     1       4.113  -0.623   8.661  0.00  0.00    -0.487 OA
BRANCH  24  25
ATOM     25  C   UNL     1       4.572   0.575   9.291  0.00  0.00    +0.266 C 
BRANCH  25  26
ATOM     26  C   UNL     1       5.071   0.256  10.676  0.00  0.00    +0.008 A 
ATOM     27  C   UNL     1       5.038  -1.046  11.139  0.00  0.00    +0.008 A 
ATOM     28  C   UNL     1       5.496  -1.340  12.410  0.00  0.00    +0.000 A 
ATOM     29  C   UNL     1       5.987  -0.331  13.219  0.00  0.00    +0.001 A 
ATOM     30  C   UNL     1       6.021   0.971  12.756  0.00  0.00    +0.020 A 
ATOM     31  C   UNL     1       5.568   1.264  11.482  0.00  0.00    +0.047 A 
ATOM     32 CL   UNL     1       5.616   2.898  10.899  0.00  0.00    -0.083 Cl
ENDBRANCH  25  26
ENDBRANCH  24  25
ENDBRANCH  22  24
ENDBRANCH  16  18
ENDBRANCH   3  16
BRANCH   1  33
ATOM     33  C   UNL     1       2.251  -2.046  -0.435  0.00  0.00    +0.136 C 
BRANCH  33  35
ATOM     34  C   UNL     1       3.216   0.074  -1.168  0.00  0.00    +0.005 C 
ATOM     35  C   UNL     1       2.163  -0.571  -0.731  0.00  0.00    -0.016 C 
ENDBRANCH  33  35
ENDBRANCH   1  33
TORSDOF 8
