REMARK  Name = ZINC19794711
REMARK  6 active torsions:
REMARK  status: ('A' for Active; 'I' for Inactive)
REMARK    1  A    between atoms: C_6  and  C_7
REMARK    2  A    between atoms: C_9  and  C_19
REMARK    3  A    between atoms: N_13  and  C_14
REMARK    4  A    between atoms: C_14  and  C_15
REMARK    5  A    between atoms: C_19  and  C_21
REMARK    6  A    between atoms: C_24  and  N_27
REMARK                            x       y       z     vdW  Elec       q    Type
REMARK                         _______ _______ _______ _____ _____    ______ ____
ROOT
ATOM      1  C   UNL     1       2.976   3.021   0.038  0.00  0.00    +0.145 C 
ATOM      2  C   UNL     1       1.470   2.903   0.038  0.00  0.00    +0.076 C 
ATOM      3  C   UNL     1       1.181   1.585  -0.071  0.00  0.00    +0.249 C 
ATOM      4  C   UNL     1       2.441   0.817  -0.152  0.00  0.00    +0.288 C 
ATOM      5  O   UNL     1       2.515  -0.391  -0.260  0.00  0.00    -0.266 OA
ATOM      6  N   UNL     1       3.493   1.653  -0.089  0.00  0.00    -0.273 N 
ATOM      7  O   UNL     1      -0.064   1.056  -0.105  0.00  0.00    -0.282 OA
ENDROOT
BRANCH   1  13
ATOM      8  C   UNL     1       3.391   2.914   2.504  0.00  0.00    +0.007 A 
ATOM      9  C   UNL     1       3.835   3.478   3.686  0.00  0.00    +0.015 A 
ATOM     10  C   UNL     1       4.330   4.769   3.693  0.00  0.00    +0.018 A 
ATOM     11  C   UNL     1       4.387   5.494   2.516  0.00  0.00    +0.015 A 
ATOM     12  C   UNL     1       3.949   4.928   1.334  0.00  0.00    +0.007 A 
ATOM     13  C   UNL     1       3.454   3.637   1.327  0.00  0.00    -0.022 A 
ATOM     14 BR   UNL     1       4.929   5.543   5.311  0.00  0.00    -0.050 Br
ENDBRANCH   1  13
BRANCH   2  15
ATOM     15  C   UNL     1       0.507   4.004   0.139  0.00  0.00    +0.195 C 
ATOM     16  O   UNL     1      -0.209   4.098   1.118  0.00  0.00    -0.287 OA
BRANCH  15  17
ATOM     17  C   UNL     1       0.406   5.000  -0.949  0.00  0.00    +0.022 A 
ATOM     18  C   UNL     1       1.144   4.834  -2.123  0.00  0.00    +0.014 A 
ATOM     19  C   UNL     1       1.040   5.764  -3.136  0.00  0.00    +0.033 A 
ATOM     20  C   UNL     1       0.217   6.866  -2.986  0.00  0.00    +0.126 A 
ATOM     21  C   UNL     1      -0.512   7.040  -1.823  0.00  0.00    +0.033 A 
ATOM     22  C   UNL     1      -0.423   6.115  -0.804  0.00  0.00    +0.014 A 
BRANCH  20  23
ATOM     23  N   UNL     1       0.116   7.863  -4.076  0.00  0.00    +0.056 N 
ATOM     24  O   UNL     1      -0.609   8.834  -3.947  0.00  0.00    -0.126 OA
ATOM     25  O   UNL     1       0.756   7.713  -5.101  0.00  0.00    -0.126 OA
ENDBRANCH  20  23
ENDBRANCH  15  17
ENDBRANCH   2  15
BRANCH   6  26
ATOM     26  C   UNL     1       4.905   1.266  -0.138  0.00  0.00    +0.234 C 
BRANCH  26  27
ATOM     27  C   UNL     1       5.375   1.260  -1.570  0.00  0.00    +0.373 C 
ATOM     28  O   UNL     1       4.609   1.548  -2.459  0.00  0.00    -0.245 OA
ATOM     29  O   UNL     1       6.645   0.933  -1.859  0.00  0.00    -0.245 OA
ENDBRANCH  26  27
ENDBRANCH   6  26
TORSDOF 6
