REMARK  Name = ZINC17601099
REMARK  10 active torsions:
REMARK  status: ('A' for Active; 'I' for Inactive)
REMARK    1  A    between atoms: C_1  and  C_2
REMARK    2  A    between atoms: C_4  and  C_14
REMARK    3  A    between atoms: C_5  and  C_13
REMARK    4  A    between atoms: N_6  and  C_7
REMARK    5  A    between atoms: C_7  and  C_8
REMARK    6  A    between atoms: C_14  and  O_16
REMARK    7  A    between atoms: O_16  and  C_17
REMARK    8  A    between atoms: C_17  and  C_18
REMARK    9  A    between atoms: N_20  and  C_21
REMARK   10  A    between atoms: C_26  and  N_27
REMARK                            x       y       z     vdW  Elec       q    Type
REMARK                         _______ _______ _______ _____ _____    ______ ____
ROOT
ATOM      1  O   UNL     1       2.910   0.277  -0.020  0.00  0.00    -0.452 OA
ENDROOT
BRANCH   1   2
ATOM      2  C   UNL     1       2.570   1.581   0.001  0.00  0.00    +0.341 C 
ATOM      3  O   UNL     1       3.436   2.435   0.012  0.00  0.00    -0.245 OA
BRANCH   2   7
ATOM      4  C   UNL     1      -2.527   1.390  -0.006  0.00  0.00    +0.063 C 
ATOM      5  C   UNL     1      -1.098   1.868   0.006  0.00  0.00    +0.017 A 
ATOM      6  C   UNL     1      -0.011   1.077  -0.002  0.00  0.00    +0.037 A 
ATOM      7  C   UNL     1       1.152   1.972   0.009  0.00  0.00    +0.080 A 
ATOM      8  C   UNL     1       0.644   3.253   0.029  0.00  0.00    +0.030 A 
ATOM      9  N   UNL     1      -0.700   3.173   0.030  0.00  0.00    -0.340 N 
ATOM     10  C   UNL     1       1.453   4.524   0.046  0.00  0.00    +0.064 C 
BRANCH   9  11
ATOM     11  C   UNL     1      -1.607   4.323   0.049  0.00  0.00    +0.196 C 
BRANCH  11  12
ATOM     12  C   UNL     1      -1.920   4.739  -1.366  0.00  0.00    +0.124 A 
ATOM     13  C   UNL     1      -2.937   4.277  -2.115  0.00  0.00    +0.046 A 
ATOM     14  C   UNL     1      -2.857   4.933  -3.364  0.00  0.00    +0.041 A 
ATOM     15  C   UNL     1      -1.791   5.751  -3.307  0.00  0.00    +0.195 A 
ATOM     16  O   UNL     1      -1.227   5.629  -2.094  0.00  0.00    -0.466 OA
ENDBRANCH  11  12
ENDBRANCH   9  11
ENDBRANCH   2   7
ENDBRANCH   1   2
BRANCH   1  17
ATOM     17  C   UNL     1       4.328  -0.034  -0.027  0.00  0.00    +0.328 C 
BRANCH  17  18
ATOM     18  C   UNL     1       4.514  -1.530  -0.050  0.00  0.00    +0.255 C 
ATOM     19  O   UNL     1       3.546  -2.261  -0.059  0.00  0.00    -0.272 OA
ATOM     20  N   UNL     1       5.755  -2.055  -0.060  0.00  0.00    -0.281 N 
ATOM     21  H   UNL     1       6.527  -1.472  -0.134  0.00  0.00    +0.155 HD
BRANCH  20  22
ATOM     22  C   UNL     1       5.930  -3.440   0.036  0.00  0.00    +0.064 A 
ATOM     23  C   UNL     1       4.959  -4.223   0.647  0.00  0.00    +0.027 A 
ATOM     24  C   UNL     1       5.134  -5.590   0.740  0.00  0.00    +0.022 A 
ATOM     25  C   UNL     1       6.275  -6.179   0.225  0.00  0.00    +0.043 A 
ATOM     26  C   UNL     1       7.244  -5.402  -0.385  0.00  0.00    +0.054 A 
ATOM     27  C   UNL     1       7.071  -4.035  -0.486  0.00  0.00    +0.149 A 
ATOM     28 CL   UNL     1       6.492  -7.898   0.344  0.00  0.00    -0.083 Cl
BRANCH  27  29
ATOM     29  N   UNL     1       8.105  -3.204  -1.143  0.00  0.00    +0.058 N 
ATOM     30  O   UNL     1       9.062  -3.734  -1.679  0.00  0.00    -0.126 OA
ATOM     31  O   UNL     1       7.998  -1.991  -1.149  0.00  0.00    -0.126 OA
ENDBRANCH  27  29
ENDBRANCH  20  22
ENDBRANCH  17  18
ENDBRANCH   1  17
TORSDOF 8
