REMARK  Name = ZINC13811634
REMARK  3 active torsions:
REMARK  status: ('A' for Active; 'I' for Inactive)
REMARK    1  A    between atoms: C_1  and  C_2
REMARK    2  A    between atoms: N_27  and  C_30
REMARK    3  A    between atoms: C_30  and  C_31
REMARK                            x       y       z     vdW  Elec       q    Type
REMARK                         _______ _______ _______ _____ _____    ______ ____
ROOT
ATOM      1  C   UNL     1      -0.191   1.258  -0.218  0.00  0.00    +0.047 C 
ATOM      2  C   UNL     1      -0.165  -0.247  -0.168  0.00  0.00    -0.009 A 
ATOM      3  C   UNL     1      -0.187  -0.974  -1.319  0.00  0.00    +0.008 A 
ATOM      4  C   UNL     1      -0.162  -2.375  -1.255  0.00  0.00    +0.019 A 
ATOM      5  C   UNL     1      -0.124  -2.999  -0.058  0.00  0.00    +0.096 A 
ATOM      6  N   UNL     1      -0.108  -2.283   1.101  0.00  0.00    -0.269 N 
ATOM      7  C   UNL     1      -0.111  -0.916   1.070  0.00  0.00    +0.122 A 
ATOM      8  N   UNL     1      -0.068  -0.209   2.196  0.00  0.00    -0.329 N 
ATOM      9  C   UNL     1      -0.027  -0.805   3.386  0.00  0.00    +0.109 A 
ATOM     10  C   UNL     1      -0.025  -2.195   3.464  0.00  0.00    +0.057 A 
ATOM     11  C   UNL     1      -0.082  -2.934   2.284  0.00  0.00    +0.263 A 
ATOM     12  O   UNL     1      -0.093  -4.155   2.318  0.00  0.00    -0.267 OA
ATOM     13  C   UNL     1       0.036  -2.903   4.788  0.00  0.00    +0.071 C 
ATOM     14  C   UNL     1      -0.471  -1.996   5.912  0.00  0.00    +0.146 C 
ATOM     15  C   UNL     1       0.265  -0.648   5.834  0.00  0.00    +0.099 C 
ATOM     16  N   UNL     1       0.015  -0.060   4.540  0.00  0.00    -0.312 N 
ATOM     17  C   UNL     1      -0.210   1.426   4.486  0.00  0.00    +0.107 C 
ATOM     18  C   UNL     1       1.064   2.002   4.957  0.00  0.00    +0.019 C 
ATOM     19  C   UNL     1       1.519   1.544   6.330  0.00  0.00    +0.002 C 
ATOM     20  C   UNL     1       2.464   0.452   5.934  0.00  0.00    +0.002 C 
ATOM     21  C   UNL     1       1.775  -0.941   6.170  0.00  0.00    +0.024 C 
ATOM     22  C   UNL     1      -0.185  -2.637   7.240  0.00  0.00    +0.238 C 
ATOM     23  O   UNL     1       0.961  -2.909   7.528  0.00  0.00    -0.274 OA
ATOM     24  N   UNL     1      -1.159  -2.916   8.116  0.00  0.00    -0.239 N 
ATOM     25  C   UNL     1      -2.448  -2.648   7.856  0.00  0.00    +0.315 C 
ATOM     26  N   UNL     1      -2.827  -2.090   6.697  0.00  0.00    -0.220 N 
ATOM     27  C   UNL     1      -1.945  -1.763   5.742  0.00  0.00    +0.240 C 
ATOM     28  O   UNL     1      -2.349  -1.264   4.714  0.00  0.00    -0.274 OA
ATOM     29  O   UNL     1      -3.290  -2.918   8.689  0.00  0.00    -0.252 OA
ATOM     30  H   UNL     1      -0.926  -3.324   8.965  0.00  0.00    +0.159 HD
ATOM     31  H   UNL     1      -0.066   0.760   2.149  0.00  0.00    +0.168 HD
ENDROOT
BRANCH  26  32
ATOM     32  C   UNL     1      -4.250  -1.830   6.467  0.00  0.00    +0.154 C 
BRANCH  32  33
ATOM     33  C   UNL     1      -4.839  -2.947   5.644  0.00  0.00    -0.011 A 
ATOM     34  C   UNL     1      -4.904  -2.833   4.268  0.00  0.00    +0.006 A 
ATOM     35  C   UNL     1      -5.443  -3.857   3.513  0.00  0.00    +0.000 A 
ATOM     36  C   UNL     1      -5.918  -4.998   4.134  0.00  0.00    +0.001 A 
ATOM     37  C   UNL     1      -5.853  -5.114   5.510  0.00  0.00    +0.020 A 
ATOM     38  C   UNL     1      -5.308  -4.091   6.265  0.00  0.00    +0.046 A 
ATOM     39 CL   UNL     1      -5.221  -4.239   7.993  0.00  0.00    -0.083 Cl
ENDBRANCH  32  33
ENDBRANCH  26  32
TORSDOF 2
