REMARK  Name = ZINC18198855
REMARK  7 active torsions:
REMARK  status: ('A' for Active; 'I' for Inactive)
REMARK    1  A    between atoms: C_1  and  C_2
REMARK    2  A    between atoms: C_5  and  C_9
REMARK    3  A    between atoms: C_7  and  C_8
REMARK    4  A    between atoms: C_12  and  C_38
REMARK    5  A    between atoms: N_14  and  C_30
REMARK    6  A    between atoms: C_22  and  C_25
REMARK    7  A    between atoms: C_35  and  C_36
REMARK                            x       y       z     vdW  Elec       q    Type
REMARK                         _______ _______ _______ _____ _____    ______ ____
ROOT
ATOM      1  C   UNL     1       0.140  -0.952  -0.113  0.00  0.00    +0.089 C 
ATOM      2  C   UNL     1       1.519  -1.091  -0.694  0.00  0.00    +0.027 A 
ATOM      3  C   UNL     1       2.005  -2.002  -1.622  0.00  0.00    +0.066 A 
ATOM      4  N   UNL     1       3.275  -1.744  -1.829  0.00  0.00    -0.170 NA
ATOM      5  N   UNL     1       3.643  -0.648  -1.031  0.00  0.00    -0.217 N 
ATOM      6  C   UNL     1       2.549  -0.259  -0.343  0.00  0.00    +0.131 A 
ATOM      7  N   UNL     1       2.369   0.772   0.570  0.00  0.00    -0.302 N 
ATOM      8  C   UNL     1       1.087   1.149   0.887  0.00  0.00    +0.017 C 
ATOM      9  C   UNL     1       0.015   0.381   0.593  0.00  0.00    +0.024 C 
ATOM     10  C   UNL     1      -1.284   0.792   0.941  0.00  0.00    +0.162 C 
ATOM     11  O   UNL     1      -2.228   0.080   0.659  0.00  0.00    -0.292 OA
ATOM     12  C   UNL     1      -1.532   2.094   1.649  0.00  0.00    +0.088 C 
ATOM     13  C   UNL     1      -0.303   2.435   2.498  0.00  0.00    +0.039 C 
ATOM     14  C   UNL     1       0.918   2.482   1.579  0.00  0.00    +0.060 C 
ATOM     15  C   UNL     1       1.209  -3.099  -2.280  0.00  0.00    +0.068 C 
ATOM     16  H   UNL     1       3.130   1.216   0.975  0.00  0.00    +0.153 HD
ENDROOT
BRANCH   1  21
ATOM     17  C   UNL     1      -0.791  -5.222   3.668  0.00  0.00    +0.044 C 
ATOM     18  C   UNL     1      -0.548  -4.109   2.682  0.00  0.00    -0.048 A 
ATOM     19  C   UNL     1       0.490  -3.219   2.886  0.00  0.00    +0.004 A 
ATOM     20  C   UNL     1       0.712  -2.197   1.982  0.00  0.00    +0.005 A 
ATOM     21  C   UNL     1      -0.102  -2.066   0.873  0.00  0.00    -0.035 A 
ATOM     22  C   UNL     1      -1.143  -2.953   0.671  0.00  0.00    +0.008 A 
ATOM     23  C   UNL     1      -1.363  -3.978   1.573  0.00  0.00    -0.047 A 
ATOM     24  C   UNL     1      -2.494  -4.948   1.350  0.00  0.00    +0.044 C 
ENDBRANCH   1  21
BRANCH   5  25
ATOM     25  C   UNL     1       4.911  -0.067  -0.963  0.00  0.00    +0.082 A 
ATOM     26  C   UNL     1       5.195   1.075  -1.698  0.00  0.00    +0.029 A 
ATOM     27  C   UNL     1       6.448   1.651  -1.625  0.00  0.00    +0.002 A 
ATOM     28  C   UNL     1       7.432   1.090  -0.828  0.00  0.00    +0.001 A 
ATOM     29  C   UNL     1       7.170  -0.047  -0.095  0.00  0.00    +0.017 A 
ATOM     30  C   UNL     1       5.905  -0.638  -0.155  0.00  0.00    +0.089 A 
BRANCH  30  31
ATOM     31  C   UNL     1       5.618  -1.855   0.626  0.00  0.00    +0.389 C 
ATOM     32  O   UNL     1       4.492  -2.311   0.648  0.00  0.00    -0.241 OA
ATOM     33  O   UNL     1       6.604  -2.462   1.315  0.00  0.00    -0.241 OA
ENDBRANCH  30  31
ENDBRANCH   5  25
BRANCH  13  34
ATOM     34  C   UNL     1      -0.496   3.778   3.155  0.00  0.00    -0.006 A 
ATOM     35  C   UNL     1      -0.497   4.092   4.473  0.00  0.00    +0.011 A 
ATOM     36  C   UNL     1      -0.695   5.407   4.849  0.00  0.00    +0.008 A 
ATOM     37  C   UNL     1      -0.883   6.344   3.888  0.00  0.00    +0.045 A 
ATOM     38  S   UNL     1      -0.776   5.370   2.396  0.00  0.00    -0.101 S 
ENDBRANCH  13  34
TORSDOF 4
