REMARK  Name = ZINC39944947
REMARK  10 active torsions:
REMARK  status: ('A' for Active; 'I' for Inactive)
REMARK    1  A    between atoms: C_1  and  C_2
REMARK    2  A    between atoms: C_2  and  C_3
REMARK    3  A    between atoms: C_3  and  C_5
REMARK    4  A    between atoms: C_3  and  C_6
REMARK    5  A    between atoms: C_9  and  C_12
REMARK    6  A    between atoms: C_14  and  C_22
REMARK    7  A    between atoms: C_22  and  O_24
REMARK    8  A    between atoms: O_24  and  C_25
REMARK    9  A    between atoms: C_25  and  C_26
REMARK   10  A    between atoms: C_26  and  C_28
REMARK                            x       y       z     vdW  Elec       q    Type
REMARK                         _______ _______ _______ _____ _____    ______ ____
ROOT
ATOM      1  C   UNL     1       0.403  -6.256   1.450  0.00  0.00    +0.072 A 
ATOM      2  C   UNL     1      -0.217  -6.858   2.555  0.00  0.00    +0.044 A 
ATOM      3  C   UNL     1      -0.291  -8.242   2.624  0.00  0.00    +0.070 A 
ATOM      4  C   UNL     1       0.293  -9.002   1.518  0.00  0.00    +0.014 A 
ATOM      5  C   UNL     1       0.267 -10.401   1.498  0.00  0.00    +0.011 A 
ATOM      6  C   UNL     1       0.823 -11.069   0.448  0.00  0.00    +0.001 A 
ATOM      7  C   UNL     1       1.418 -10.377  -0.605  0.00  0.00    +0.002 A 
ATOM      8  C   UNL     1       1.461  -9.017  -0.617  0.00  0.00    +0.028 A 
ATOM      9  C   UNL     1       0.896  -8.292   0.450  0.00  0.00    +0.072 A 
ATOM     10  N   UNL     1       0.918  -6.958   0.463  0.00  0.00    -0.247 NA
ENDROOT
BRANCH   1  14
ATOM     11  C   UNL     1       0.609  -2.013   1.272  0.00  0.00    -0.045 A 
ATOM     12  C   UNL     1       1.144  -2.772   0.247  0.00  0.00    +0.004 A 
ATOM     13  C   UNL     1       1.080  -4.150   0.299  0.00  0.00    +0.010 A 
ATOM     14  C   UNL     1       0.475  -4.776   1.388  0.00  0.00    +0.000 A 
ATOM     15  C   UNL     1      -0.062  -4.006   2.418  0.00  0.00    +0.010 A 
ATOM     16  C   UNL     1       0.012  -2.629   2.357  0.00  0.00    +0.004 A 
BRANCH  11  17
ATOM     17  C   UNL     1       0.681  -0.509   1.208  0.00  0.00    +0.016 C 
ATOM     18  C   UNL     1       2.145  -0.071   1.141  0.00  0.00    +0.012 C 
BRANCH  17  20
ATOM     19  C   UNL     1      -0.091   1.515  -0.037  0.00  0.00    +0.004 C 
ATOM     20  C   UNL     1      -0.057  -0.015  -0.038  0.00  0.00    +0.004 C 
ENDBRANCH  17  20
ENDBRANCH  11  17
ENDBRANCH   1  14
BRANCH   3  21
ATOM     21  C   UNL     1      -0.934  -8.921   3.768  0.00  0.00    +0.340 C 
ATOM     22  O   UNL     1      -1.077 -10.127   3.756  0.00  0.00    -0.245 OA
BRANCH  21  23
ATOM     23  O   UNL     1      -1.361  -8.203   4.825  0.00  0.00    -0.453 OA
BRANCH  23  24
ATOM     24  C   UNL     1      -1.973  -8.925   5.896  0.00  0.00    +0.311 C 
BRANCH  24  25
ATOM     25  C   UNL     1      -2.384  -7.962   6.980  0.00  0.00    +0.199 C 
ATOM     26  O   UNL     1      -2.173  -6.774   6.849  0.00  0.00    -0.289 OA
BRANCH  25  27
ATOM     27  C   UNL     1      -3.013  -8.442   8.148  0.00  0.00    +0.026 C 
ATOM     28  C   UNL     1      -3.454  -7.698   9.227  0.00  0.00    +0.006 A 
ATOM     29  C   UNL     1      -3.430  -6.312   9.514  0.00  0.00    +0.010 A 
ATOM     30  C   UNL     1      -3.945  -5.848  10.675  0.00  0.00    +0.001 A 
ATOM     31  C   UNL     1      -4.518  -6.695  11.638  0.00  0.00    +0.002 A 
ATOM     32  C   UNL     1      -4.590  -8.032  11.461  0.00  0.00    +0.026 A 
ATOM     33  C   UNL     1      -4.053  -8.620  10.223  0.00  0.00    +0.043 A 
ATOM     34  N   UNL     1      -3.991  -9.851   9.800  0.00  0.00    -0.380 N 
ATOM     35  C   UNL     1      -3.354  -9.879   8.480  0.00  0.00    +0.152 C 
ATOM     36  H   UNL     1      -4.319 -10.627  10.281  0.00  0.00    +0.160 HD
ENDBRANCH  25  27
ENDBRANCH  24  25
ENDBRANCH  23  24
ENDBRANCH  21  23
ENDBRANCH   3  21
TORSDOF 8
