REMARK  Name = ZINC09339256
REMARK  7 active torsions:
REMARK  status: ('A' for Active; 'I' for Inactive)
REMARK    1  A    between atoms: C_6  and  C_7
REMARK    2  A    between atoms: C_7  and  C_9
REMARK    3  A    between atoms: C_7  and  N_59
REMARK    4  A    between atoms: C_9  and  N_10
REMARK    5  A    between atoms: C_11  and  C_13
REMARK    6  A    between atoms: C_16  and  N_22
REMARK    7  A    between atoms: C_17  and  N_19
REMARK                            x       y       z     vdW  Elec       q    Type
REMARK                         _______ _______ _______ _____ _____    ______ ____
ROOT
ATOM      1  N   UNL     1      -0.832   0.626  -1.294  0.00  0.00    -0.313 N 
ATOM      2  C   UNL     1      -0.379   0.207  -2.493  0.00  0.00    +0.244 C 
ATOM      3  O   UNL     1       0.794  -0.080  -2.633  0.00  0.00    -0.270 OA
ATOM      4  H   UNL     1      -1.768   0.855  -1.183  0.00  0.00    +0.149 HD
ENDROOT
BRANCH   2   5
ATOM      5  C   UNL     1      -1.307   0.097  -3.634  0.00  0.00    +0.039 A 
ATOM      6  C   UNL     1      -2.657   0.422  -3.473  0.00  0.00    +0.015 A 
ATOM      7  C   UNL     1      -3.519   0.325  -4.542  0.00  0.00    +0.026 A 
ATOM      8  C   UNL     1      -3.050  -0.109  -5.779  0.00  0.00    +0.060 A 
ATOM      9  C   UNL     1      -1.707  -0.438  -5.941  0.00  0.00    +0.148 A 
ATOM     10  C   UNL     1      -0.839  -0.337  -4.878  0.00  0.00    +0.047 A 
BRANCH   8  11
ATOM     11  N   UNL     1      -3.925  -0.212  -6.855  0.00  0.00    -0.328 N 
ATOM     12  C   UNL     1      -5.099  -1.052  -6.508  0.00  0.00    +0.105 C 
ATOM     13  C   UNL     1      -6.158  -0.633  -7.558  0.00  0.00    +0.020 C 
ATOM     14  C   UNL     1      -5.916   0.886  -7.706  0.00  0.00    +0.020 C 
ATOM     15  C   UNL     1      -4.471   1.112  -7.223  0.00  0.00    +0.105 C 
ENDBRANCH   8  11
BRANCH   9  16
ATOM     16  N   UNL     1      -1.213  -0.897  -7.258  0.00  0.00    +0.058 N 
ATOM     17  O   UNL     1      -0.061  -1.276  -7.378  0.00  0.00    -0.126 OA
ATOM     18  O   UNL     1      -1.957  -0.897  -8.222  0.00  0.00    -0.126 OA
ENDBRANCH   9  16
ENDBRANCH   2   5
BRANCH   1  19
ATOM     19  C   UNL     1       0.090   0.735  -0.161  0.00  0.00    +0.094 C 
BRANCH  19  20
ATOM     20  C   UNL     1      -0.632   1.384   1.022  0.00  0.00    -0.020 C 
BRANCH  20  26
ATOM     21  C   UNL     1       1.175   2.474   2.368  0.00  0.00    +0.005 A 
ATOM     22  C   UNL     1       2.018   2.514   3.462  0.00  0.00    +0.038 A 
ATOM     23  C   UNL     1       1.984   1.494   4.399  0.00  0.00    +0.123 A 
ATOM     24  C   UNL     1       1.102   0.439   4.240  0.00  0.00    +0.038 A 
ATOM     25  C   UNL     1       0.256   0.405   3.147  0.00  0.00    +0.005 A 
ATOM     26  C   UNL     1       0.291   1.423   2.213  0.00  0.00    -0.059 A 
ATOM     27  F   UNL     1       2.812   1.528   5.466  0.00  0.00    -0.205 F 
ENDBRANCH  20  26
BRANCH  20  33
ATOM     28  C   UNL     1      -2.398   2.785   0.136  0.00  0.00    -0.049 C 
ATOM     29  C   UNL     1      -2.788   4.234  -0.168  0.00  0.00    +0.141 C 
ATOM     30  O   UNL     1      -1.843   4.795  -1.083  0.00  0.00    -0.383 OA
ATOM     31  C   UNL     1      -0.497   4.781  -0.601  0.00  0.00    +0.141 C 
ATOM     32  C   UNL     1      -0.083   3.337  -0.301  0.00  0.00    -0.049 C 
ATOM     33  N   UNL     1      -1.026   2.769   0.685  0.00  0.00    +0.388 N 
ATOM     34  H   UNL     1      -1.001   3.340   1.538  0.00  0.00    -0.081 HD
ENDBRANCH  20  33
ENDBRANCH  19  20
ENDBRANCH   1  19
TORSDOF 7
