REMARK  Name = ZINC57003821
REMARK  3 active torsions:
REMARK  status: ('A' for Active; 'I' for Inactive)
REMARK    1  A    between atoms: C_9  and  N_11
REMARK    2  A    between atoms: N_14  and  C_15
REMARK    3  A    between atoms: C_24  and  O_26
REMARK                            x       y       z     vdW  Elec       q    Type
REMARK                         _______ _______ _______ _____ _____    ______ ____
ROOT
ATOM      1  N   UNL     1       4.577  -0.496  -0.997  0.00  0.00    -0.293 N 
ATOM      2  C   UNL     1       5.524   0.384  -0.617  0.00  0.00    +0.301 C 
ATOM      3  O   UNL     1       5.538   0.808   0.522  0.00  0.00    -0.253 OA
ATOM      4  N   UNL     1       6.456   0.794  -1.500  0.00  0.00    -0.290 N 
ATOM      5  H   UNL     1       4.566  -0.835  -1.906  0.00  0.00    +0.151 HD
ATOM      6  H   UNL     1       6.445   0.456  -2.409  0.00  0.00    +0.151 HD
ENDROOT
BRANCH   1  15
ATOM      7  C   UNL     1      -0.017   1.377   0.010  0.00  0.00    +0.000 A 
ATOM      8  C   UNL     1       1.172   2.083   0.002  0.00  0.00    +0.000 A 
ATOM      9  C   UNL     1       2.376   1.406  -0.013  0.00  0.00    +0.006 A 
ATOM     10  C   UNL     1       2.396   0.021  -0.021  0.00  0.00    -0.024 A 
ATOM     11  C   UNL     1       1.208  -0.685  -0.013  0.00  0.00    -0.042 A 
ATOM     12  C   UNL     1       0.002  -0.004   0.002  0.00  0.00    +0.004 A 
ATOM     13  C   UNL     1       1.496  -2.171  -0.025  0.00  0.00    +0.037 C 
ATOM     14  C   UNL     1       2.966  -2.294  -0.480  0.00  0.00    +0.032 C 
ATOM     15  C   UNL     1       3.564  -0.942  -0.037  0.00  0.00    +0.105 C 
ENDBRANCH   1  15
BRANCH   4  16
ATOM     16  C   UNL     1       7.486   1.751  -1.087  0.00  0.00    +0.134 C 
ATOM     17  C   UNL     1       6.992   3.169  -1.278  0.00  0.00    -0.021 A 
ATOM     18  C   UNL     1       6.130   3.931  -0.506  0.00  0.00    +0.006 A 
ATOM     19  C   UNL     1       5.817   5.222  -0.883  0.00  0.00    +0.000 A 
ATOM     20  C   UNL     1       6.366   5.757  -2.033  0.00  0.00    +0.000 A 
ATOM     21  C   UNL     1       7.225   4.999  -2.804  0.00  0.00    +0.004 A 
ATOM     22  C   UNL     1       7.540   3.704  -2.428  0.00  0.00    -0.040 A 
ATOM     23  C   UNL     1       8.440   2.682  -3.089  0.00  0.00    +0.069 C 
ATOM     24  C   UNL     1       8.727   1.628  -1.996  0.00  0.00    +0.143 C 
BRANCH  24  25
ATOM     25  O   UNL     1       8.815   0.318  -2.560  0.00  0.00    -0.389 OA
ATOM     26  H   UNL     1       9.579   0.190  -3.140  0.00  0.00    +0.210 HD
ENDBRANCH  24  25
ENDBRANCH   4  16
TORSDOF 3
