REMARK  Name = ZINC59310271
REMARK  7 active torsions:
REMARK  status: ('A' for Active; 'I' for Inactive)
REMARK    1  A    between atoms: C_4  and  C_7
REMARK    2  A    between atoms: C_7  and  N_8
REMARK    3  A    between atoms: C_9  and  C_11
REMARK    4  A    between atoms: C_11  and  S_12
REMARK    5  A    between atoms: S_12  and  C_13
REMARK    6  A    between atoms: N_18  and  N_19
REMARK    7  A    between atoms: C_20  and  C_21
REMARK                            x       y       z     vdW  Elec       q    Type
REMARK                         _______ _______ _______ _____ _____    ______ ____
ROOT
ATOM      1  C   UNL     1       7.765  -2.904   4.668  0.00  0.00    +0.211 A 
ATOM      2  N   UNL     1       8.853  -3.520   5.144  0.00  0.00    -0.186 NA
ATOM      3  C   UNL     1       8.821  -3.520   6.460  0.00  0.00    +0.232 A 
ATOM      4  N   UNL     1       7.691  -2.893   6.850  0.00  0.00    -0.245 N 
ATOM      5  N   UNL     1       7.029  -2.500   5.675  0.00  0.00    -0.144 NA
ATOM      6  N   UNL     1       9.777  -4.068   7.296  0.00  0.00    -0.205 N 
ATOM      7  H   UNL     1       9.665  -4.019   8.259  0.00  0.00    +0.177 HD
ATOM      8  H   UNL     1       7.396  -2.740   7.761  0.00  0.00    +0.192 HD
ENDROOT
BRANCH   6   9
ATOM      9  N   UNL     1      10.907  -4.694   6.754  0.00  0.00    -0.188 NA
ATOM     10  C   UNL     1      11.792  -5.200   7.528  0.00  0.00    +0.139 C 
BRANCH  10  11
ATOM     11  C   UNL     1      12.980  -5.858   6.957  0.00  0.00    +0.002 A 
ATOM     12  C   UNL     1      14.060  -6.330   7.843  0.00  0.00    +0.010 A 
ATOM     13  C   UNL     1      15.126  -6.920   7.343  0.00  0.00    +0.009 A 
ATOM     14  C   UNL     1      15.241  -7.110   5.887  0.00  0.00    -0.017 A 
ATOM     15  C   UNL     1      16.420  -7.766   5.298  0.00  0.00    +0.009 A 
ATOM     16  C   UNL     1      16.503  -7.928   3.991  0.00  0.00    +0.009 A 
ATOM     17  C   UNL     1      15.417  -7.452   3.117  0.00  0.00    -0.017 A 
ATOM     18  C   UNL     1      15.488  -7.622   1.656  0.00  0.00    +0.008 A 
ATOM     19  C   UNL     1      14.502  -7.188   0.899  0.00  0.00    +0.001 A 
ATOM     20  C   UNL     1      13.327  -6.532   1.502  0.00  0.00    +0.008 A 
ATOM     21  C   UNL     1      13.260  -6.379   2.807  0.00  0.00    -0.017 A 
ATOM     22  C   UNL     1      14.368  -6.868   3.647  0.00  0.00    -0.002 A 
ATOM     23  C   UNL     1      14.275  -6.688   5.105  0.00  0.00    -0.002 A 
ATOM     24  C   UNL     1      13.077  -6.031   5.657  0.00  0.00    -0.008 A 
ATOM     25  C   UNL     1      12.017  -5.579   4.744  0.00  0.00    +0.010 A 
ATOM     26  C   UNL     1      12.104  -5.730   3.443  0.00  0.00    +0.009 A 
ENDBRANCH  10  11
ENDBRANCH   6   9
BRANCH   1  27
ATOM     27  S   UNL     1       7.386  -2.668   2.963  0.00  0.00    -0.075 S 
BRANCH  27  28
ATOM     28  C   UNL     1       5.808  -1.774   2.984  0.00  0.00    +0.173 C 
BRANCH  28  30
ATOM     29  N   UNL     1       4.210  -0.849   1.339  0.00  0.00    -0.311 N 
ATOM     30  C   UNL     1       5.364  -1.505   1.570  0.00  0.00    +0.224 C 
ATOM     31  O   UNL     1       6.046  -1.879   0.639  0.00  0.00    -0.275 OA
ATOM     32  H   UNL     1       3.664  -0.550   2.083  0.00  0.00    +0.149 HD
BRANCH  29  33
ATOM     33  C   UNL     1       3.778  -0.587  -0.036  0.00  0.00    +0.139 C 
BRANCH  33  37
ATOM     34  C   UNL     1       0.061   1.517   0.011  0.00  0.00    +0.000 A 
ATOM     35  C   UNL     1       1.252   2.218   0.018  0.00  0.00    +0.000 A 
ATOM     36  C   UNL     1       2.455   1.538   0.003  0.00  0.00    +0.005 A 
ATOM     37  C   UNL     1       2.467   0.155  -0.019  0.00  0.00    -0.030 A 
ATOM     38  C   UNL     1       1.276  -0.546  -0.025  0.00  0.00    +0.005 A 
ATOM     39  C   UNL     1       0.073   0.135  -0.011  0.00  0.00    +0.000 A 
ENDBRANCH  33  37
ENDBRANCH  29  33
ENDBRANCH  28  30
ENDBRANCH  27  28
ENDBRANCH   1  27
TORSDOF 7
