REMARK  Name = ZINC02755748
REMARK  5 active torsions:
REMARK  status: ('A' for Active; 'I' for Inactive)
REMARK    1  A    between atoms: C_4  and  C_7
REMARK    2  A    between atoms: C_10  and  C_33
REMARK    3  A    between atoms: C_14  and  C_17
REMARK    4  A    between atoms: N_19  and  C_20
REMARK    5  A    between atoms: C_21  and  C_30
REMARK                            x       y       z     vdW  Elec       q    Type
REMARK                         _______ _______ _______ _____ _____    ______ ____
ROOT
ATOM      1  C   UNL     1       3.711  -0.707  -0.038  0.00  0.00    +0.104 C 
ATOM      2  C   UNL     1       4.048  -1.193   1.377  0.00  0.00    +0.063 C 
ATOM      3  C   UNL     1       2.916  -2.082   1.904  0.00  0.00    +0.215 C 
ATOM      4  N   UNL     1       2.593  -3.090   0.890  0.00  0.00    -0.238 N 
ATOM      5  C   UNL     1       2.929  -2.975  -0.417  0.00  0.00    +0.130 A 
ATOM      6  C   UNL     1       2.469  -4.104  -1.068  0.00  0.00    +0.096 A 
ATOM      7  C   UNL     1       1.835  -4.910  -0.089  0.00  0.00    +0.149 A 
ATOM      8  N   UNL     1       1.917  -4.297   1.061  0.00  0.00    -0.177 NA
ATOM      9  N   UNL     1       3.612  -1.880  -0.928  0.00  0.00    -0.322 N 
ATOM     10  H   UNL     1       4.003  -1.883  -1.816  0.00  0.00    +0.148 HD
ENDROOT
BRANCH   1  14
ATOM     11  C   UNL     1      -0.017   1.378   0.010  0.00  0.00    +0.000 A 
ATOM     12  C   UNL     1       1.171   2.086   0.002  0.00  0.00    +0.000 A 
ATOM     13  C   UNL     1       2.377   1.411  -0.013  0.00  0.00    +0.005 A 
ATOM     14  C   UNL     1       2.396   0.029  -0.020  0.00  0.00    -0.027 A 
ATOM     15  C   UNL     1       1.208  -0.679  -0.012  0.00  0.00    +0.005 A 
ATOM     16  C   UNL     1       0.002  -0.004   0.002  0.00  0.00    +0.000 A 
ENDBRANCH   1  14
BRANCH   6  17
ATOM     17  C   UNL     1       2.608  -4.409  -2.497  0.00  0.00    +0.253 C 
ATOM     18  O   UNL     1       3.178  -3.626  -3.233  0.00  0.00    -0.270 OA
ATOM     19  N   UNL     1       2.106  -5.557  -2.993  0.00  0.00    -0.275 N 
ATOM     20  H   UNL     1       1.652  -6.182  -2.405  0.00  0.00    +0.156 HD
BRANCH  19  21
ATOM     21  C   UNL     1       2.238  -5.846  -4.343  0.00  0.00    +0.090 A 
ATOM     22  C   UNL     1       1.784  -6.962  -5.023  0.00  0.00    +0.084 A 
ATOM     23  C   UNL     1       2.052  -7.031  -6.452  0.00  0.00    -0.018 A 
ATOM     24  C   UNL     1       2.731  -5.968  -6.934  0.00  0.00    -0.004 A 
ATOM     25  S   UNL     1       2.978  -4.918  -5.529  0.00  0.00    -0.077 S 
ATOM     26  C   UNL     1       3.181  -5.731  -8.341  0.00  0.00    +0.043 C 
ATOM     27  C   UNL     1       2.005  -5.982  -9.295  0.00  0.00    +0.005 C 
ATOM     28  C   UNL     1       2.006  -7.455  -9.693  0.00  0.00    +0.001 C 
ATOM     29  C   UNL     1       2.519  -8.313  -8.539  0.00  0.00    +0.005 C 
ATOM     30  C   UNL     1       1.597  -8.188  -7.330  0.00  0.00    +0.037 C 
BRANCH  22  31
ATOM     31  C   UNL     1       1.080  -8.010  -4.347  0.00  0.00    +0.102 C 
ATOM     32  N   UNL     1       0.521  -8.841  -3.811  0.00  0.00    -0.191 NA
ENDBRANCH  22  31
ENDBRANCH  19  21
ENDBRANCH   6  17
BRANCH   3  33
ATOM     33  C   UNL     1       3.364  -2.772   3.194  0.00  0.00    +0.412 C 
ATOM     34  F   UNL     1       3.683  -1.806   4.154  0.00  0.00    -0.168 F 
ATOM     35  F   UNL     1       2.329  -3.582   3.673  0.00  0.00    -0.168 F 
ATOM     36  F   UNL     1       4.490  -3.560   2.933  0.00  0.00    -0.168 F 
ENDBRANCH   3  33
TORSDOF 5
