REMARK  Name = ZINC47534871
REMARK  6 active torsions:
REMARK  status: ('A' for Active; 'I' for Inactive)
REMARK    1  A    between atoms: C_1  and  C_2
REMARK    2  A    between atoms: C_6  and  C_8
REMARK    3  A    between atoms: C_9  and  C_10
REMARK    4  A    between atoms: N_12  and  C_13
REMARK    5  A    between atoms: C_13  and  C_15
REMARK    6  A    between atoms: C_13  and  C_16
REMARK                            x       y       z     vdW  Elec       q    Type
REMARK                         _______ _______ _______ _____ _____    ______ ____
ROOT
ATOM      1  C   UNL     1      -0.210  -6.973  -0.123  0.00  0.00    +0.100 C 
ATOM      2  C   UNL     1       1.230  -7.315  -0.512  0.00  0.00    +0.033 C 
ENDROOT
BRANCH   1   3
ATOM      3  C   UNL     1      -1.008  -8.244   0.019  0.00  0.00    -0.025 A 
ATOM      4  C   UNL     1      -0.912  -8.990   1.181  0.00  0.00    +0.007 A 
ATOM      5  C   UNL     1      -1.639 -10.156   1.321  0.00  0.00    +0.028 A 
ATOM      6  C   UNL     1      -2.468 -10.581   0.293  0.00  0.00    +0.067 A 
ATOM      7  C   UNL     1      -2.564  -9.828  -0.878  0.00  0.00    +0.067 A 
ATOM      8  C   UNL     1      -1.834  -8.655  -1.008  0.00  0.00    +0.033 A 
ATOM      9  N   UNL     1      -3.458 -10.494  -1.713  0.00  0.00    -0.306 N 
ATOM     10  H   UNL     1      -3.726 -10.209  -2.600  0.00  0.00    +0.170 HD
ATOM     11  C   UNL     1      -3.887 -11.601  -1.078  0.00  0.00    +0.325 A 
ATOM     12  O   UNL     1      -4.677 -12.407  -1.532  0.00  0.00    -0.247 OA
ATOM     13  N   UNL     1      -3.307 -11.681   0.135  0.00  0.00    -0.306 N 
ATOM     14  H   UNL     1      -3.450 -12.385   0.786  0.00  0.00    +0.170 HD
ENDBRANCH   1   3
BRANCH   1  17
ATOM     15  C   UNL     1      -0.028  -4.914   1.167  0.00  0.00    +0.237 C 
ATOM     16  O   UNL     1       0.142  -4.310   0.124  0.00  0.00    -0.271 OA
ATOM     17  N   UNL     1      -0.213  -6.249   1.150  0.00  0.00    -0.305 N 
ATOM     18  H   UNL     1      -0.349  -6.730   1.982  0.00  0.00    +0.150 HD
BRANCH  15  20
ATOM     19  C   UNL     1       0.005  -2.843   2.449  0.00  0.00    +0.013 C 
ATOM     20  C   UNL     1      -0.031  -4.191   2.440  0.00  0.00    +0.068 C 
BRANCH  19  26
ATOM     21  C   UNL     1      -2.420  -2.157  -1.853  0.00  0.00    +0.044 C 
ATOM     22  C   UNL     1      -1.341  -1.758  -0.879  0.00  0.00    -0.050 A 
ATOM     23  C   UNL     1      -0.518  -0.682  -1.163  0.00  0.00    +0.003 A 
ATOM     24  C   UNL     1       0.475  -0.308  -0.275  0.00  0.00    +0.001 A 
ATOM     25  C   UNL     1       0.651  -1.005   0.901  0.00  0.00    +0.008 A 
ATOM     26  C   UNL     1      -0.177  -2.093   1.196  0.00  0.00    -0.025 A 
ATOM     27  C   UNL     1      -1.181  -2.462   0.295  0.00  0.00    +0.011 A 
ENDBRANCH  19  26
ENDBRANCH  15  20
ENDBRANCH   1  17
TORSDOF 4
