REMARK  Name = ZINC16855266
REMARK  1 active torsions:
REMARK  status: ('A' for Active; 'I' for Inactive)
REMARK    1  A    between atoms: C_1  and  C_2
REMARK                            x       y       z     vdW  Elec       q    Type
REMARK                         _______ _______ _______ _____ _____    ______ ____
ROOT
ATOM      1  C   UNL     1      -2.875   2.267   8.550  0.00  0.00    +0.075 C 
ATOM      2  C   UNL     1      -3.229   1.975   7.115  0.00  0.00    +0.101 A 
ATOM      3  N   UNL     1      -2.465   1.961   6.040  0.00  0.00    -0.145 NA
ATOM      4  N   UNL     1      -2.921   1.689   4.896  0.00  0.00    -0.126 NA
ATOM      5  C   UNL     1      -4.202   1.410   4.702  0.00  0.00    +0.188 A 
ATOM      6  S   UNL     1      -4.806   1.549   6.382  0.00  0.00    -0.036 S 
ATOM      7  N   UNL     1      -4.881   1.094   3.531  0.00  0.00    -0.263 N 
ATOM      8  C   UNL     1      -4.205   1.045   2.339  0.00  0.00    +0.202 A 
ATOM      9  N   UNL     1      -4.880   0.734   1.198  0.00  0.00    -0.295 N 
ATOM     10  H   UNL     1      -5.832   0.552   1.228  0.00  0.00    +0.172 HD
ATOM     11  C   UNL     1      -4.215   0.681   0.027  0.00  0.00    +0.256 A 
ATOM     12  O   UNL     1      -4.802   0.405  -1.006  0.00  0.00    -0.267 OA
ATOM     13  C   UNL     1      -2.829   0.950   0.012  0.00  0.00    +0.038 A 
ATOM     14  C   UNL     1      -2.208   1.262   1.178  0.00  0.00    +0.053 A 
ATOM     15  N   UNL     1      -2.916   1.298   2.314  0.00  0.00    -0.220 NA
ATOM     16  C   UNL     1      -0.738   1.584   1.257  0.00  0.00    +0.056 C 
ATOM     17  C   UNL     1      -0.013   1.086   0.008  0.00  0.00    +0.006 C 
ATOM     18  C   UNL     1      -0.765   1.599  -1.226  0.00  0.00    +0.005 C 
ATOM     19  C   UNL     1      -2.107   0.874  -1.306  0.00  0.00    +0.042 C 
ATOM     20  H   UNL     1      -5.833   0.908   3.557  0.00  0.00    +0.157 HD
ENDROOT
TORSDOF 0
