REMARK  Name = ZINC15276831
REMARK  11 active torsions:
REMARK  status: ('A' for Active; 'I' for Inactive)
REMARK    1  A    between atoms: C_1  and  C_2
REMARK    2  A    between atoms: C_5  and  C_11
REMARK    3  A    between atoms: C_7  and  N_8
REMARK    4  A    between atoms: C_16  and  C_21
REMARK    5  A    between atoms: C_27  and  C_36
REMARK    6  A    between atoms: C_28  and  C_29
REMARK    7  A    between atoms: C_29  and  O_31
REMARK    8  A    between atoms: O_31  and  C_32
REMARK    9  A    between atoms: C_32  and  C_33
REMARK   10  A    between atoms: C_33  and  O_34
REMARK   11  A    between atoms: O_34  and  C_35
REMARK                            x       y       z     vdW  Elec       q    Type
REMARK                         _______ _______ _______ _____ _____    ______ ____
ROOT
ATOM      1  C   UNL     1       0.972   3.796  -0.250  0.00  0.00    +0.092 C 
ATOM      2  C   UNL     1       1.314   3.812   1.219  0.00  0.00    +0.024 C 
ATOM      3  C   UNL     1       2.595   3.922   1.628  0.00  0.00    +0.016 C 
ATOM      4  C   UNL     1       2.946   3.919   3.095  0.00  0.00    +0.060 C 
ATOM      5  C   UNL     1       1.798   4.536   3.899  0.00  0.00    +0.039 C 
ATOM      6  C   UNL     1       0.525   3.727   3.628  0.00  0.00    +0.088 C 
ATOM      7  C   UNL     1       0.262   3.709   2.147  0.00  0.00    +0.162 C 
ATOM      8  O   UNL     1      -0.879   3.604   1.746  0.00  0.00    -0.292 OA
ATOM      9  N   UNL     1       3.609   4.037   0.715  0.00  0.00    -0.321 N 
ATOM     10  C   UNL     1       3.349   4.429  -0.569  0.00  0.00    +0.016 C 
ATOM     11  C   UNL     1       2.106   4.335  -1.071  0.00  0.00    +0.065 C 
ATOM     12  C   UNL     1       4.464   4.969  -1.426  0.00  0.00    +0.061 C 
ATOM     13  H   UNL     1       4.644   3.813   1.011  0.00  0.00    +0.152 HD
ENDROOT
BRANCH   1  18
ATOM     14  C   UNL     1      -0.137  -1.636  -1.882  0.00  0.00    +0.046 C 
ATOM     15  C   UNL     1       0.152  -0.219  -1.456  0.00  0.00    -0.020 A 
ATOM     16  C   UNL     1       1.401   0.113  -0.964  0.00  0.00    +0.006 A 
ATOM     17  C   UNL     1       1.666   1.413  -0.575  0.00  0.00    +0.005 A 
ATOM     18  C   UNL     1       0.683   2.379  -0.675  0.00  0.00    -0.033 A 
ATOM     19  C   UNL     1      -0.565   2.047  -1.168  0.00  0.00    +0.037 A 
ATOM     20  C   UNL     1      -0.830   0.748  -1.558  0.00  0.00    +0.129 A 
BRANCH  20  21
ATOM     21  N   UNL     1      -2.167   0.392  -2.086  0.00  0.00    +0.057 N 
ATOM     22  O   UNL     1      -3.066   1.213  -2.071  0.00  0.00    -0.126 OA
ATOM     23  O   UNL     1      -2.367  -0.723  -2.534  0.00  0.00    -0.126 OA
ENDBRANCH  20  21
ENDBRANCH   1  18
BRANCH   5  24
ATOM     24  C   UNL     1       2.126   4.486   5.369  0.00  0.00    -0.006 A 
ATOM     25  C   UNL     1       2.231   5.507   6.255  0.00  0.00    +0.011 A 
ATOM     26  C   UNL     1       2.545   5.223   7.571  0.00  0.00    +0.008 A 
ATOM     27  C   UNL     1       2.739   3.932   7.936  0.00  0.00    +0.045 A 
ATOM     28  S   UNL     1       2.469   3.068   6.398  0.00  0.00    -0.101 S 
ENDBRANCH   5  24
BRANCH  11  29
ATOM     29  C   UNL     1       1.862   4.753  -2.401  0.00  0.00    +0.338 C 
ATOM     30  O   UNL     1       2.740   5.306  -3.036  0.00  0.00    -0.245 OA
BRANCH  29  31
ATOM     31  O   UNL     1       0.654   4.540  -2.964  0.00  0.00    -0.459 OA
BRANCH  31  32
ATOM     32  C   UNL     1       0.478   4.988  -4.309  0.00  0.00    +0.260 C 
BRANCH  32  33
ATOM     33  C   UNL     1      -0.943   4.661  -4.773  0.00  0.00    +0.200 C 
BRANCH  33  34
ATOM     34  O   UNL     1      -1.881   5.410  -3.999  0.00  0.00    -0.380 OA
ATOM     35  C   UNL     1      -3.246   5.177  -4.354  0.00  0.00    +0.194 C 
ENDBRANCH  33  34
ENDBRANCH  32  33
ENDBRANCH  31  32
ENDBRANCH  29  31
ENDBRANCH  11  29
TORSDOF 8
