REMARK  Name = ZINC56904206
REMARK  6 active torsions:
REMARK  status: ('A' for Active; 'I' for Inactive)
REMARK    1  A    between atoms: C_1  and  C_2
REMARK    2  A    between atoms: C_10  and  C_11
REMARK    3  A    between atoms: C_11  and  C_13
REMARK    4  A    between atoms: C_11  and  N_14
REMARK    5  A    between atoms: N_17  and  N_18
REMARK    6  A    between atoms: N_21  and  C_22
REMARK                            x       y       z     vdW  Elec       q    Type
REMARK                         _______ _______ _______ _____ _____    ______ ____
ROOT
ATOM      1  N   UNL     1      -0.913  -1.153   3.288  0.00  0.00    -0.289 N 
ATOM      2  C   UNL     1      -1.457  -0.644   4.412  0.00  0.00    +0.317 C 
ATOM      3  O   UNL     1      -1.147   0.470   4.787  0.00  0.00    -0.251 OA
ATOM      4  N   UNL     1      -2.344  -1.371   5.119  0.00  0.00    -0.217 N 
ATOM      5  H   UNL     1      -1.160  -2.041   2.989  0.00  0.00    +0.151 HD
ATOM      6  H   UNL     1      -2.736  -1.006   5.928  0.00  0.00    +0.174 HD
ENDROOT
BRANCH   4   7
ATOM      7  N   UNL     1      -2.701  -2.655   4.687  0.00  0.00    -0.217 N 
ATOM      8  C   UNL     1      -3.589  -3.382   5.394  0.00  0.00    +0.320 C 
ATOM      9  O   UNL     1      -3.898  -4.496   5.019  0.00  0.00    -0.251 OA
ATOM     10  N   UNL     1      -4.133  -2.874   6.518  0.00  0.00    -0.268 N 
ATOM     11  H   UNL     1      -2.310  -3.021   3.878  0.00  0.00    +0.174 HD
ATOM     12  H   UNL     1      -3.836  -2.014   6.854  0.00  0.00    +0.156 HD
BRANCH  10  13
ATOM     13  C   UNL     1      -5.125  -3.587   7.199  0.00  0.00    +0.035 A 
ATOM     14  C   UNL     1      -6.163  -2.909   7.826  0.00  0.00    +0.023 A 
ATOM     15  C   UNL     1      -7.141  -3.616   8.498  0.00  0.00    +0.002 A 
ATOM     16  C   UNL     1      -7.088  -4.997   8.547  0.00  0.00    +0.000 A 
ATOM     17  C   UNL     1      -6.055  -5.675   7.924  0.00  0.00    +0.002 A 
ATOM     18  C   UNL     1      -5.078  -4.974   7.245  0.00  0.00    +0.023 A 
ENDBRANCH  10  13
ENDBRANCH   4   7
BRANCH   1  19
ATOM     19  C   UNL     1       0.051  -0.362   2.519  0.00  0.00    +0.138 C 
ATOM     20  C   UNL     1       1.451  -0.553   3.107  0.00  0.00    +0.036 C 
BRANCH  19  30
ATOM     21  C   UNL     1       0.017   1.502   0.032  0.00  0.00    +0.048 C 
ATOM     22  C   UNL     1       0.029  -0.005   0.019  0.00  0.00    +0.000 A 
ATOM     23  C   UNL     1       0.033  -0.876  -1.163  0.00  0.00    +0.023 A 
ATOM     24  C   UNL     1       0.027  -0.652  -2.539  0.00  0.00    +0.012 A 
ATOM     25  C   UNL     1       0.033  -1.715  -3.399  0.00  0.00    +0.001 A 
ATOM     26  C   UNL     1       0.044  -3.014  -2.910  0.00  0.00    +0.004 A 
ATOM     27  C   UNL     1       0.050  -3.255  -1.553  0.00  0.00    +0.047 A 
ATOM     28  C   UNL     1       0.044  -2.188  -0.662  0.00  0.00    +0.136 A 
ATOM     29  O   UNL     1       0.047  -2.103   0.683  0.00  0.00    -0.458 OA
ATOM     30  C   UNL     1       0.044  -0.819   1.083  0.00  0.00    +0.129 A 
ENDBRANCH  19  30
ENDBRANCH   1  19
TORSDOF 4
