REMARK  Name = ZINC02788535
REMARK  12 active torsions:
REMARK  status: ('A' for Active; 'I' for Inactive)
REMARK    1  A    between atoms: C_1  and  C_2
REMARK    2  A    between atoms: C_3  and  C_32
REMARK    3  A    between atoms: C_4  and  C_23
REMARK    4  A    between atoms: C_10  and  C_15
REMARK    5  A    between atoms: C_20  and  O_21
REMARK    6  A    between atoms: O_21  and  C_22
REMARK    7  A    between atoms: C_27  and  N_29
REMARK    8  A    between atoms: C_32  and  O_34
REMARK    9  A    between atoms: O_34  and  C_35
REMARK   10  A    between atoms: C_35  and  C_36
REMARK   11  A    between atoms: C_36  and  O_37
REMARK   12  A    between atoms: O_37  and  C_38
REMARK                            x       y       z     vdW  Elec       q    Type
REMARK                         _______ _______ _______ _____ _____    ______ ____
ROOT
ATOM      1  C   UNL     1      -2.698   6.763  -2.430  0.00  0.00    +0.061 C 
ATOM      2  C   UNL     1      -2.030   6.287  -1.166  0.00  0.00    +0.016 C 
ATOM      3  C   UNL     1      -0.764   5.836  -1.208  0.00  0.00    +0.065 C 
ATOM      4  C   UNL     1      -0.070   5.347   0.030  0.00  0.00    +0.092 C 
ATOM      5  C   UNL     1      -0.778   5.827   1.272  0.00  0.00    +0.024 C 
ATOM      6  C   UNL     1      -2.047   6.282   1.211  0.00  0.00    +0.016 C 
ATOM      7  N   UNL     1      -2.716   6.316   0.017  0.00  0.00    -0.321 N 
ATOM      8  C   UNL     1      -2.760   6.766   2.449  0.00  0.00    +0.060 C 
ATOM      9  C   UNL     1      -2.241   6.006   3.672  0.00  0.00    +0.035 C 
ATOM     10  C   UNL     1      -0.728   6.227   3.776  0.00  0.00    +0.088 C 
ATOM     11  C   UNL     1      -0.080   5.784   2.492  0.00  0.00    +0.162 C 
ATOM     12  O   UNL     1       1.067   5.383   2.510  0.00  0.00    -0.292 OA
ATOM     13  H   UNL     1      -3.814   6.369   0.015  0.00  0.00    +0.152 HD
ENDROOT
BRANCH   9  14
ATOM     14  C   UNL     1      -2.916   6.525   4.915  0.00  0.00    -0.002 A 
ATOM     15  C   UNL     1      -2.799   7.859   5.259  0.00  0.00    +0.007 A 
ATOM     16  C   UNL     1      -3.418   8.336   6.399  0.00  0.00    +0.001 A 
ATOM     17  C   UNL     1      -4.154   7.481   7.199  0.00  0.00    +0.004 A 
ATOM     18  C   UNL     1      -4.275   6.148   6.859  0.00  0.00    +0.046 A 
ATOM     19  C   UNL     1      -3.658   5.667   5.712  0.00  0.00    +0.124 A 
BRANCH  19  20
ATOM     20  O   UNL     1      -3.779   4.357   5.373  0.00  0.00    -0.495 OA
ATOM     21  C   UNL     1      -4.559   3.531   6.241  0.00  0.00    +0.277 C 
ENDBRANCH  19  20
ENDBRANCH   9  14
BRANCH   4  22
ATOM     22  C   UNL     1      -0.050   3.840   0.022  0.00  0.00    -0.033 A 
ATOM     23  C   UNL     1      -1.238   3.133   0.030  0.00  0.00    +0.005 A 
ATOM     24  C   UNL     1      -1.219   1.751   0.017  0.00  0.00    +0.003 A 
ATOM     25  C   UNL     1      -0.013   1.076   0.008  0.00  0.00    +0.033 A 
ATOM     26  C   UNL     1       1.175   1.783   0.000  0.00  0.00    +0.126 A 
ATOM     27  C   UNL     1       1.156   3.166   0.008  0.00  0.00    +0.037 A 
BRANCH  26  28
ATOM     28  N   UNL     1       2.467   1.060  -0.016  0.00  0.00    +0.056 N 
ATOM     29  O   UNL     1       2.483  -0.157  -0.023  0.00  0.00    -0.126 OA
ATOM     30  O   UNL     1       3.513   1.684  -0.022  0.00  0.00    -0.126 OA
ENDBRANCH  26  28
ENDBRANCH   4  22
BRANCH   3  31
ATOM     31  C   UNL     1      -0.073   5.823  -2.442  0.00  0.00    +0.338 C 
ATOM     32  O   UNL     1      -0.625   6.218  -3.452  0.00  0.00    -0.245 OA
BRANCH  31  33
ATOM     33  O   UNL     1       1.198   5.374  -2.498  0.00  0.00    -0.459 OA
BRANCH  33  34
ATOM     34  C   UNL     1       1.835   5.389  -3.777  0.00  0.00    +0.260 C 
BRANCH  34  35
ATOM     35  C   UNL     1       3.260   4.847  -3.644  0.00  0.00    +0.200 C 
BRANCH  35  36
ATOM     36  O   UNL     1       3.212   3.471  -3.262  0.00  0.00    -0.380 OA
ATOM     37  C   UNL     1       4.498   2.866  -3.109  0.00  0.00    +0.194 C 
ENDBRANCH  35  36
ENDBRANCH  34  35
ENDBRANCH  33  34
ENDBRANCH  31  33
ENDBRANCH   3  31
TORSDOF 9
