REMARK  Name = ZINC10450580
REMARK  7 active torsions:
REMARK  status: ('A' for Active; 'I' for Inactive)
REMARK    1  A    between atoms: C_5  and  C_7
REMARK    2  A    between atoms: N_9  and  N_10
REMARK    3  A    between atoms: N_10  and  C_11
REMARK    4  A    between atoms: C_11  and  N_13
REMARK    5  A    between atoms: C_14  and  C_16
REMARK    6  A    between atoms: C_17  and  C_18
REMARK    7  A    between atoms: C_22  and  N_24
REMARK                            x       y       z     vdW  Elec       q    Type
REMARK                         _______ _______ _______ _____ _____    ______ ____
ROOT
ATOM      1  C   UNL     1      -2.462   9.444   0.074  0.00  0.00    +0.153 C 
ATOM      2  S   UNL     1      -0.991  10.320   0.066  0.00  0.00    -0.017 S 
ENDROOT
BRANCH   1   3
ATOM      3  N   UNL     1      -2.443   8.097   0.067  0.00  0.00    -0.263 N 
ATOM      4  C   UNL     1      -1.267   7.439   0.053  0.00  0.00    +0.242 C 
ATOM      5  O   UNL     1      -0.222   8.061   0.046  0.00  0.00    -0.270 OA
ATOM      6  H   UNL     1      -3.277   7.600   0.072  0.00  0.00    +0.157 HD
BRANCH   4   7
ATOM      7  C   UNL     1      -1.247   5.976   0.045  0.00  0.00    +0.068 C 
ATOM      8  C   UNL     1      -0.070   5.317   0.030  0.00  0.00    +0.013 C 
BRANCH   8   9
ATOM      9  C   UNL     1      -0.050   3.846   0.022  0.00  0.00    -0.023 A 
ATOM     10  C   UNL     1      -1.250   3.126   0.030  0.00  0.00    +0.008 A 
ATOM     11  C   UNL     1      -1.223   1.748   0.017  0.00  0.00    +0.003 A 
ATOM     12  C   UNL     1      -0.013   1.076   0.008  0.00  0.00    +0.033 A 
ATOM     13  C   UNL     1       1.179   1.780   0.000  0.00  0.00    +0.127 A 
ATOM     14  C   UNL     1       1.168   3.159   0.007  0.00  0.00    +0.040 A 
BRANCH  13  15
ATOM     15  N   UNL     1       2.467   1.052  -0.015  0.00  0.00    +0.056 N 
ATOM     16  O   UNL     1       2.478  -0.166  -0.021  0.00  0.00    -0.126 OA
ATOM     17  O   UNL     1       3.516   1.671  -0.022  0.00  0.00    -0.126 OA
ENDBRANCH  13  15
ENDBRANCH   8   9
ENDBRANCH   4   7
ENDBRANCH   1   3
BRANCH   1  18
ATOM     18  N   UNL     1      -3.638  10.102   0.089  0.00  0.00    -0.245 N 
ATOM     19  H   UNL     1      -3.651  11.072   0.094  0.00  0.00    +0.172 HD
BRANCH  18  22
ATOM     20  C   UNL     1      -6.018  10.043   0.110  0.00  0.00    +0.261 C 
ATOM     21  O   UNL     1      -6.034  11.258   0.117  0.00  0.00    -0.269 OA
ATOM     22  N   UNL     1      -4.841   9.385   0.096  0.00  0.00    -0.231 N 
ATOM     23  H   UNL     1      -4.828   8.415   0.091  0.00  0.00    +0.173 HD
BRANCH  20  28
ATOM     24  C   UNL     1      -8.461   7.191   0.117  0.00  0.00    +0.001 A 
ATOM     25  C   UNL     1      -9.667   7.869   0.132  0.00  0.00    +0.001 A 
ATOM     26  C   UNL     1      -9.690   9.252   0.140  0.00  0.00    +0.015 A 
ATOM     27  C   UNL     1      -8.508   9.965   0.133  0.00  0.00    +0.026 A 
ATOM     28  C   UNL     1      -7.287   9.287   0.118  0.00  0.00    +0.051 A 
ATOM     29  C   UNL     1      -7.272   7.891   0.104  0.00  0.00    +0.014 A 
ATOM     30  I   UNL     1      -8.545  12.060   0.143  0.00  0.00    -0.043 I 
ENDBRANCH  20  28
ENDBRANCH  18  22
ENDBRANCH   1  18
TORSDOF 7
