REMARK  Name = ZINC11999339
REMARK  12 active torsions:
REMARK  status: ('A' for Active; 'I' for Inactive)
REMARK    1  A    between atoms: C_1  and  C_2
REMARK    2  A    between atoms: C_2  and  C_3
REMARK    3  A    between atoms: C_3  and  C_5
REMARK    4  A    between atoms: C_3  and  N_6
REMARK    5  A    between atoms: N_6  and  S_7
REMARK    6  A    between atoms: S_7  and  C_10
REMARK    7  A    between atoms: C_11  and  C_30
REMARK    8  A    between atoms: C_18  and  C_19
REMARK    9  A    between atoms: C_18  and  N_61
REMARK   10  A    between atoms: N_22  and  C_24
REMARK   11  A    between atoms: C_30  and  O_32
REMARK   12  A    between atoms: O_32  and  C_33
REMARK                            x       y       z     vdW  Elec       q    Type
REMARK                         _______ _______ _______ _____ _____    ______ ____
ROOT
ATOM      1  C   UNL     1       1.989   2.588   1.215  0.00  0.00    +0.157 A 
ATOM      2  C   UNL     1       1.398   2.424  -0.020  0.00  0.00    +0.096 A 
ATOM      3  C   UNL     1       2.093   2.956  -1.175  0.00  0.00    -0.025 A 
ATOM      4  C   UNL     1       3.274   3.562  -0.909  0.00  0.00    -0.021 A 
ATOM      5  S   UNL     1       3.458   3.430   0.845  0.00  0.00    -0.074 S 
ATOM      6  C   UNL     1       4.193   4.193  -1.907  0.00  0.00    -0.035 C 
ATOM      7  C   UNL     1       2.345   3.903  -3.447  0.00  0.00    -0.073 C 
ATOM      8  C   UNL     1       1.582   2.872  -2.609  0.00  0.00    +0.018 C 
ATOM      9  N   UNL     1       3.797   3.714  -3.254  0.00  0.00    +0.386 N 
ATOM     10  H   UNL     1       4.018   2.714  -3.331  0.00  0.00    -0.081 HD
ENDROOT
BRANCH   1  11
ATOM     11  S   UNL     1       1.395   2.065   2.790  0.00  0.00    +0.066 S 
ATOM     12  O   UNL     1       0.731   3.182   3.364  0.00  0.00    -0.153 OA
ATOM     13  O   UNL     1       0.749   0.816   2.586  0.00  0.00    -0.153 OA
BRANCH  11  14
ATOM     14  N   UNL     1       2.720   1.764   3.737  0.00  0.00    -0.187 NA
ATOM     15  H   UNL     1       2.893   2.313   4.518  0.00  0.00    +0.148 HD
BRANCH  14  16
ATOM     16  C   UNL     1       3.631   0.668   3.396  0.00  0.00    +0.073 C 
ATOM     17  C   UNL     1       3.213  -0.596   4.149  0.00  0.00    +0.025 C 
BRANCH  16  19
ATOM     18  C   UNL     1       5.521   2.239   2.947  0.00  0.00    +0.005 C 
ATOM     19  C   UNL     1       5.058   1.050   3.792  0.00  0.00    +0.017 C 
ENDBRANCH  16  19
ENDBRANCH  14  16
ENDBRANCH  11  14
ENDBRANCH   1  11
BRANCH   2  20
ATOM     20  C   UNL     1       0.105   1.738  -0.160  0.00  0.00    +0.342 C 
ATOM     21  O   UNL     1       0.071   0.536  -0.339  0.00  0.00    -0.245 OA
BRANCH  20  22
ATOM     22  O   UNL     1      -1.042   2.442  -0.094  0.00  0.00    -0.464 OA
ATOM     23  C   UNL     1      -2.281   1.700  -0.246  0.00  0.00    +0.280 C 
ENDBRANCH  20  22
ENDBRANCH   2  20
BRANCH   9  24
ATOM     24  C   UNL     1       4.546   4.453  -4.294  0.00  0.00    -0.039 C 
BRANCH  24  25
ATOM     25  C   UNL     1       6.002   4.074  -4.207  0.00  0.00    -0.026 A 
ATOM     26  C   UNL     1       6.979   4.728  -3.448  0.00  0.00    +0.136 A 
ATOM     27  N   UNL     1       8.118   4.109  -3.625  0.00  0.00    -0.175 NA
ATOM     28  N   UNL     1       7.905   3.045  -4.511  0.00  0.00    -0.240 N 
ATOM     29  C   UNL     1       6.597   3.046  -4.854  0.00  0.00    +0.116 A 
BRANCH  28  30
ATOM     30  C   UNL     1       8.877   2.141  -4.963  0.00  0.00    +0.065 A 
ATOM     31  C   UNL     1       8.526   1.125  -5.842  0.00  0.00    +0.028 A 
ATOM     32  C   UNL     1       9.486   0.239  -6.290  0.00  0.00    +0.002 A 
ATOM     33  C   UNL     1      10.793   0.356  -5.855  0.00  0.00    +0.000 A 
ATOM     34  C   UNL     1      11.145   1.364  -4.975  0.00  0.00    +0.002 A 
ATOM     35  C   UNL     1      10.190   2.256  -4.528  0.00  0.00    +0.028 A 
ENDBRANCH  28  30
ENDBRANCH  24  25
ENDBRANCH   9  24
TORSDOF 9
