REMARK  Name = ZINC49363121
REMARK  8 active torsions:
REMARK  status: ('A' for Active; 'I' for Inactive)
REMARK    1  A    between atoms: C_1  and  C_2
REMARK    2  A    between atoms: C_2  and  O_3
REMARK    3  A    between atoms: O_3  and  C_4
REMARK    4  A    between atoms: C_9  and  N_10
REMARK    5  A    between atoms: C_11  and  C_13
REMARK    6  A    between atoms: C_13  and  N_14
REMARK    7  A    between atoms: C_17  and  C_20
REMARK    8  A    between atoms: C_23  and  C_25
REMARK                            x       y       z     vdW  Elec       q    Type
REMARK                         _______ _______ _______ _____ _____    ______ ____
ROOT
ATOM      1  N   UNL     1      -7.559  -2.012  -0.250  0.00  0.00    +0.385 N 
ATOM      2  C   UNL     1      -7.731  -2.770   0.995  0.00  0.00    -0.078 C 
ATOM      3  C   UNL     1      -8.953  -3.683   0.876  0.00  0.00    -0.008 C 
ATOM      4  C   UNL     1     -10.198  -2.829   0.620  0.00  0.00    +0.043 C 
ATOM      5  C   UNL     1      -9.978  -1.987  -0.641  0.00  0.00    -0.008 C 
ATOM      6  C   UNL     1      -8.718  -1.137  -0.465  0.00  0.00    -0.078 C 
ATOM      7  H   UNL     1      -7.475  -2.654  -1.024  0.00  0.00    -0.081 HD
ENDROOT
BRANCH   4   8
ATOM      8  C   UNL     1     -11.393  -3.726   0.423  0.00  0.00    +0.106 A 
ATOM      9  N   UNL     1     -11.587  -4.657  -0.482  0.00  0.00    -0.146 NA
ATOM     10  N   UNL     1     -12.649  -5.340  -0.529  0.00  0.00    -0.138 NA
ATOM     11  C   UNL     1     -13.600  -5.104   0.372  0.00  0.00    +0.167 A 
ATOM     12  S   UNL     1     -12.822  -3.799   1.314  0.00  0.00    -0.047 S 
BRANCH  11  13
ATOM     13  C   UNL     1     -14.915  -5.741   0.547  0.00  0.00    +0.161 A 
ATOM     14  C   UNL     1     -15.426  -6.745  -0.218  0.00  0.00    +0.052 A 
ATOM     15  C   UNL     1     -16.700  -7.044   0.302  0.00  0.00    +0.042 A 
ATOM     16  C   UNL     1     -16.904  -6.218   1.348  0.00  0.00    +0.196 A 
ATOM     17  O   UNL     1     -15.822  -5.436   1.496  0.00  0.00    -0.461 OA
ENDBRANCH  11  13
ENDBRANCH   4   8
BRANCH   1  18
ATOM     18  C   UNL     1      -6.341  -1.195  -0.160  0.00  0.00    +0.019 C 
BRANCH  18  20
ATOM     19  N   UNL     1      -3.903  -1.566   0.030  0.00  0.00    -0.284 N 
ATOM     20  C   UNL     1      -5.138  -2.097  -0.062  0.00  0.00    +0.201 C 
ATOM     21  O   UNL     1      -5.280  -3.302  -0.067  0.00  0.00    -0.278 OA
ATOM     22  H   UNL     1      -3.793  -0.606   0.115  0.00  0.00    +0.155 HD
BRANCH  19  28
ATOM     23  C   UNL     1      -1.584  -1.981   0.589  0.00  0.00    +0.142 A 
ATOM     24  C   UNL     1      -0.476  -2.812   0.565  0.00  0.00    +0.047 A 
ATOM     25  C   UNL     1      -0.554  -4.051  -0.043  0.00  0.00    +0.004 A 
ATOM     26  C   UNL     1      -1.736  -4.465  -0.628  0.00  0.00    +0.002 A 
ATOM     27  C   UNL     1      -2.846  -3.643  -0.608  0.00  0.00    +0.027 A 
ATOM     28  C   UNL     1      -2.777  -2.400   0.004  0.00  0.00    +0.076 A 
BRANCH  23  29
ATOM     29  O   UNL     1      -1.509  -0.762   1.187  0.00  0.00    -0.490 OA
BRANCH  29  31
ATOM     30  C   UNL     1      -0.362   0.995   2.386  0.00  0.00    +0.048 C 
ATOM     31  C   UNL     1      -0.254  -0.400   1.765  0.00  0.00    +0.226 C 
ENDBRANCH  29  31
ENDBRANCH  23  29
ENDBRANCH  19  28
ENDBRANCH  18  20
ENDBRANCH   1  18
TORSDOF 7
