REMARK  Name = ZINC66890919
REMARK  10 active torsions:
REMARK  status: ('A' for Active; 'I' for Inactive)
REMARK    1  A    between atoms: C_1  and  C_2
REMARK    2  A    between atoms: C_3  and  C_7
REMARK    3  A    between atoms: N_9  and  C_10
REMARK    4  A    between atoms: N_13  and  C_16
REMARK    5  A    between atoms: C_16  and  C_18
REMARK    6  A    between atoms: C_16  and  C_19
REMARK    7  A    between atoms: N_21  and  C_22
REMARK    8  A    between atoms: C_27  and  C_28
REMARK    9  A    between atoms: C_28  and  C_29
REMARK   10  A    between atoms: C_28  and  C_30
REMARK                            x       y       z     vdW  Elec       q    Type
REMARK                         _______ _______ _______ _____ _____    ______ ____
ROOT
ATOM      1  C   UNL     1      -5.011  -0.395  -0.239  0.00  0.00    +0.070 C 
ATOM      2  C   UNL     1      -5.340  -0.556   1.248  0.00  0.00    +0.004 C 
ATOM      3  C   UNL     1      -6.836  -0.318   1.462  0.00  0.00    -0.076 C 
ATOM      4  N   UNL     1      -7.607  -1.292   0.681  0.00  0.00    +0.387 N 
ATOM      5  C   UNL     1      -7.352  -1.095  -0.751  0.00  0.00    -0.076 C 
ATOM      6  C   UNL     1      -5.875  -1.363  -1.051  0.00  0.00    +0.004 C 
ATOM      7  H   UNL     1      -7.334  -2.227   0.945  0.00  0.00    -0.081 HD
ENDROOT
BRANCH   1  10
ATOM      8  C   UNL     1      -2.667   0.267  -0.294  0.00  0.00    +0.248 C 
ATOM      9  O   UNL     1      -3.004   1.385   0.044  0.00  0.00    -0.270 OA
ATOM     10  N   UNL     1      -3.595  -0.696  -0.463  0.00  0.00    -0.309 N 
ATOM     11  H   UNL     1      -3.326  -1.588  -0.733  0.00  0.00    +0.149 HD
BRANCH   8  14
ATOM     12  C   UNL     1      -0.271   2.269   0.009  0.00  0.00    +0.087 C 
ATOM     13  C   UNL     1      -0.187   0.819  -0.393  0.00  0.00    +0.114 A 
ATOM     14  C   UNL     1      -1.242  -0.036  -0.520  0.00  0.00    +0.077 A 
ATOM     15  C   UNL     1      -0.661  -1.324  -0.928  0.00  0.00    +0.054 A 
ATOM     16  C   UNL     1       0.663  -1.122  -1.006  0.00  0.00    +0.196 A 
ATOM     17  O   UNL     1       0.933   0.154  -0.692  0.00  0.00    -0.467 OA
ENDBRANCH   8  14
ENDBRANCH   1  10
BRANCH   4  18
ATOM     18  C   UNL     1      -9.040  -1.110   0.950  0.00  0.00    +0.016 C 
ATOM     19  C   UNL     1      -9.289  -1.189   2.458  0.00  0.00    -0.004 C 
BRANCH  18  20
ATOM     20  C   UNL     1      -9.824  -2.192   0.254  0.00  0.00    +0.203 C 
ATOM     21  O   UNL     1      -9.251  -3.161  -0.198  0.00  0.00    -0.277 OA
ATOM     22  N   UNL     1     -11.162  -2.084   0.133  0.00  0.00    -0.287 N 
ATOM     23  H   UNL     1     -11.611  -1.276   0.426  0.00  0.00    +0.155 HD
BRANCH  22  24
ATOM     24  C   UNL     1     -11.903  -3.137  -0.414  0.00  0.00    +0.037 A 
ATOM     25  C   UNL     1     -11.358  -3.919  -1.425  0.00  0.00    +0.023 A 
ATOM     26  C   UNL     1     -12.092  -4.958  -1.963  0.00  0.00    +0.002 A 
ATOM     27  C   UNL     1     -13.367  -5.220  -1.497  0.00  0.00    +0.000 A 
ATOM     28  C   UNL     1     -13.912  -4.443  -0.492  0.00  0.00    +0.006 A 
ATOM     29  C   UNL     1     -13.181  -3.406   0.056  0.00  0.00    -0.024 A 
BRANCH  29  30
ATOM     30  C   UNL     1     -13.773  -2.565   1.157  0.00  0.00    +0.015 C 
ATOM     31  C   UNL     1     -15.112  -1.988   0.694  0.00  0.00    +0.012 C 
ATOM     32  C   UNL     1     -13.993  -3.431   2.399  0.00  0.00    +0.012 C 
ENDBRANCH  29  30
ENDBRANCH  22  24
ENDBRANCH  18  20
ENDBRANCH   4  18
TORSDOF 6
