REMARK  Name = ZINC09908615
REMARK  8 active torsions:
REMARK  status: ('A' for Active; 'I' for Inactive)
REMARK    1  A    between atoms: C_6  and  S_7
REMARK    2  A    between atoms: S_7  and  N_10
REMARK    3  A    between atoms: C_14  and  C_16
REMARK    4  A    between atoms: C_16  and  O_18
REMARK    5  A    between atoms: O_18  and  C_19
REMARK    6  A    between atoms: C_19  and  C_20
REMARK    7  A    between atoms: N_22  and  C_23
REMARK    8  A    between atoms: C_23  and  C_29
REMARK                            x       y       z     vdW  Elec       q    Type
REMARK                         _______ _______ _______ _____ _____    ______ ____
ROOT
ATOM      1  C   UNL     1      -8.474   0.926   2.437  0.00  0.00    +0.327 C 
ATOM      2  O   UNL     1      -9.007   0.226   1.608  0.00  0.00    -0.249 OA
ENDROOT
BRANCH   1   7
ATOM      3  N   UNL     1     -10.611   0.834   3.605  0.00  0.00    -0.163 NA
ATOM      4  C   UNL     1     -10.813  -0.044   4.772  0.00  0.00    +0.110 C 
ATOM      5  C   UNL     1      -9.790   0.453   5.824  0.00  0.00    +0.019 C 
ATOM      6  C   UNL     1      -8.577   0.820   4.929  0.00  0.00    +0.033 C 
ATOM      7  C   UNL     1      -9.244   1.373   3.653  0.00  0.00    +0.188 C 
BRANCH   3   8
ATOM      8  S   UNL     1     -11.737   1.160   2.435  0.00  0.00    +0.062 S 
ATOM      9  O   UNL     1     -13.010   0.932   3.023  0.00  0.00    -0.153 OA
ATOM     10  O   UNL     1     -11.375   2.407   1.860  0.00  0.00    -0.153 OA
BRANCH   8  16
ATOM     11  C   UNL     1     -10.682   0.183   0.115  0.00  0.00    +0.030 A 
ATOM     12  C   UNL     1     -10.524  -0.771  -0.873  0.00  0.00    +0.022 A 
ATOM     13  C   UNL     1     -11.234  -1.957  -0.810  0.00  0.00    +0.041 A 
ATOM     14  C   UNL     1     -12.097  -2.190   0.246  0.00  0.00    +0.022 A 
ATOM     15  C   UNL     1     -12.250  -1.238   1.236  0.00  0.00    +0.030 A 
ATOM     16  C   UNL     1     -11.541  -0.053   1.172  0.00  0.00    +0.106 A 
ATOM     17 CL   UNL     1     -11.041  -3.152  -2.054  0.00  0.00    -0.084 Cl
ENDBRANCH   8  16
ENDBRANCH   3   8
ENDBRANCH   1   7
BRANCH   1  18
ATOM     18  O   UNL     1      -7.197   1.305   2.274  0.00  0.00    -0.454 OA
BRANCH  18  19
ATOM     19  C   UNL     1      -6.517   0.837   1.080  0.00  0.00    +0.327 C 
BRANCH  19  20
ATOM     20  C   UNL     1      -5.103   1.358   1.069  0.00  0.00    +0.252 C 
ATOM     21  O   UNL     1      -4.707   2.056   1.979  0.00  0.00    -0.272 OA
ATOM     22  N   UNL     1      -4.279   1.049   0.049  0.00  0.00    -0.295 N 
ATOM     23  H   UNL     1      -4.595   0.491  -0.679  0.00  0.00    +0.150 HD
BRANCH  22  24
ATOM     24  C   UNL     1      -2.904   1.556   0.038  0.00  0.00    +0.121 C 
ATOM     25  C   UNL     1      -2.188   1.063  -1.221  0.00  0.00    +0.041 C 
ATOM     26  C   UNL     1      -0.753   1.593  -1.232  0.00  0.00    +0.003 C 
ATOM     27  C   UNL     1      -0.013   1.086   0.008  0.00  0.00    +0.000 C 
ATOM     28  C   UNL     1      -0.729   1.579   1.267  0.00  0.00    +0.003 C 
ATOM     29  C   UNL     1      -2.164   1.050   1.278  0.00  0.00    +0.041 C 
BRANCH  24  30
ATOM     30  C   UNL     1      -2.924   3.028   0.046  0.00  0.00    +0.088 C 
ATOM     31  N   UNL     1      -2.940   4.164   0.052  0.00  0.00    -0.194 NA
ENDBRANCH  24  30
ENDBRANCH  22  24
ENDBRANCH  19  20
ENDBRANCH  18  19
ENDBRANCH   1  18
TORSDOF 8
