REMARK  Name = ZINC28707422
REMARK  7 active torsions:
REMARK  status: ('A' for Active; 'I' for Inactive)
REMARK    1  A    between atoms: C_3  and  N_22
REMARK    2  A    between atoms: N_7  and  C_10
REMARK    3  A    between atoms: C_10  and  C_12
REMARK    4  A    between atoms: C_10  and  C_16
REMARK    5  A    between atoms: C_12  and  C_13
REMARK    6  A    between atoms: N_22  and  C_23
REMARK    7  A    between atoms: C_23  and  C_24
REMARK                            x       y       z     vdW  Elec       q    Type
REMARK                         _______ _______ _______ _____ _____    ______ ____
ROOT
ATOM      1  C   UNL     1      -0.490   5.959   3.469  0.00  0.00    +0.004 A 
ATOM      2  C   UNL     1       0.422   6.205   4.485  0.00  0.00    +0.023 A 
ATOM      3  C   UNL     1       1.717   5.729   4.392  0.00  0.00    +0.037 A 
ATOM      4  C   UNL     1       2.107   5.005   3.256  0.00  0.00    +0.021 A 
ATOM      5  C   UNL     1       3.361   4.383   2.828  0.00  0.00    +0.029 A 
ATOM      6  C   UNL     1       3.132   3.821   1.630  0.00  0.00    +0.087 A 
ATOM      7  N   UNL     1       1.832   4.035   1.258  0.00  0.00    -0.339 N 
ATOM      8  C   UNL     1       1.180   4.761   2.229  0.00  0.00    +0.051 A 
ATOM      9  C   UNL     1      -0.120   5.245   2.350  0.00  0.00    +0.026 A 
ENDROOT
BRANCH   3  10
ATOM     10  N   UNL     1       2.634   5.981   5.414  0.00  0.00    -0.338 N 
ATOM     11  H   UNL     1       3.666   5.610   5.330  0.00  0.00    +0.146 HD
BRANCH  10  12
ATOM     12  C   UNL     1       2.221   6.738   6.598  0.00  0.00    +0.154 C 
BRANCH  12  13
ATOM     13  C   UNL     1       3.389   6.869   7.542  0.00  0.00    +0.034 A 
ATOM     14  C   UNL     1       4.182   7.998   7.494  0.00  0.00    +0.023 A 
ATOM     15  C   UNL     1       5.252   8.113   8.369  0.00  0.00    +0.008 A 
ATOM     16  C   UNL     1       5.496   7.079   9.259  0.00  0.00    -0.009 A 
ATOM     17  C   UNL     1       4.660   5.971   9.252  0.00  0.00    +0.100 A 
ATOM     18  N   UNL     1       3.643   5.902   8.401  0.00  0.00    -0.345 N 
ATOM     19  N   UNL     1       4.871   4.917  10.137  0.00  0.00    -0.330 N 
ATOM     20  C   UNL     1       6.146   4.840  10.862  0.00  0.00    +0.103 C 
ATOM     21  C   UNL     1       6.471   6.242  11.393  0.00  0.00    +0.023 C 
ATOM     22  C   UNL     1       6.660   7.187  10.206  0.00  0.00    +0.040 C 
ATOM     23  H   UNL     1       4.100   4.149  10.298  0.00  0.00    +0.147 HD
ATOM     24  H   UNL     1       3.005   5.006   8.426  0.00  0.00    +0.167 HD
ENDBRANCH  12  13
ENDBRANCH  10  12
ENDBRANCH   3  10
BRANCH   7  25
ATOM     25  C   UNL     1       1.226   3.565   0.009  0.00  0.00    +0.129 C 
BRANCH  25  26
ATOM     26  C   UNL     1       1.178   2.059   0.009  0.00  0.00    -0.006 A 
ATOM     27  C   UNL     1       2.350   1.319  -0.037  0.00  0.00    +0.008 A 
ATOM     28  C   UNL     1       2.257  -0.064  -0.035  0.00  0.00    +0.020 A 
ATOM     29  C   UNL     1       1.009  -0.656   0.014  0.00  0.00    +0.111 A 
ATOM     30  N   UNL     1      -0.085   0.080   0.058  0.00  0.00    -0.263 NA
ATOM     31  C   UNL     1      -0.035   1.398   0.057  0.00  0.00    +0.116 A 
ENDBRANCH  25  26
BRANCH  25  32
ATOM     32  C   UNL     1       2.063   4.048  -1.177  0.00  0.00    +0.155 C 
BRANCH  32  33
ATOM     33  C   UNL     1       1.375   3.671  -2.464  0.00  0.00    +0.358 C 
ATOM     34  O   UNL     1       0.324   3.077  -2.435  0.00  0.00    -0.246 OA
ATOM     35  O   UNL     1       1.931   3.996  -3.642  0.00  0.00    -0.246 OA
ENDBRANCH  32  33
ENDBRANCH  25  32
ENDBRANCH   7  25
TORSDOF 7
