REMARK  Name = ZINC06405775
REMARK  10 active torsions:
REMARK  status: ('A' for Active; 'I' for Inactive)
REMARK    1  A    between atoms: C_1  and  C_2
REMARK    2  A    between atoms: C_5  and  C_36
REMARK    3  A    between atoms: C_9  and  C_14
REMARK    4  A    between atoms: C_14  and  C_16
REMARK    5  A    between atoms: C_14  and  N_67
REMARK    6  A    between atoms: N_20  and  C_21
REMARK    7  A    between atoms: C_21  and  C_22
REMARK    8  A    between atoms: C_25  and  O_28
REMARK    9  A    between atoms: O_28  and  C_29
REMARK   10  A    between atoms: C_32  and  C_35
REMARK                            x       y       z     vdW  Elec       q    Type
REMARK                         _______ _______ _______ _____ _____    ______ ____
ROOT
ATOM      1  C   UNL     1       1.671   2.149  -2.527  0.00  0.00    +0.039 C 
ENDROOT
BRANCH   1  10
ATOM      2  C   UNL     1       1.710   6.776  -0.137  0.00  0.00    +0.044 C 
ATOM      3  C   UNL     1       1.471   7.031  -1.603  0.00  0.00    -0.041 A 
ATOM      4  C   UNL     1       1.314   8.309  -2.060  0.00  0.00    +0.004 A 
ATOM      5  C   UNL     1       1.092   8.555  -3.408  0.00  0.00    +0.005 A 
ATOM      6  C   UNL     1       1.027   7.515  -4.311  0.00  0.00    -0.026 A 
ATOM      7  C   UNL     1       1.185   6.206  -3.869  0.00  0.00    +0.052 A 
ATOM      8  C   UNL     1       1.410   5.961  -2.501  0.00  0.00    +0.002 A 
ATOM      9  C   UNL     1       1.570   4.579  -2.045  0.00  0.00    +0.018 A 
ATOM     10  C   UNL     1       1.505   3.582  -2.963  0.00  0.00    +0.011 A 
ATOM     11  C   UNL     1       1.278   3.882  -4.323  0.00  0.00    +0.251 A 
ATOM     12  O   UNL     1       1.219   2.971  -5.130  0.00  0.00    -0.268 OA
ATOM     13  N   UNL     1       1.125   5.148  -4.751  0.00  0.00    -0.322 N 
ATOM     14  H   UNL     1       0.969   5.318  -5.693  0.00  0.00    +0.169 HD
ATOM     15  C   UNL     1       0.785   7.797  -5.772  0.00  0.00    +0.046 C 
ENDBRANCH   1  10
BRANCH   1  22
ATOM     16  C   UNL     1       4.019   2.380  -3.067  0.00  0.00    -0.077 C 
ATOM     17  C   UNL     1       5.150   1.809  -3.926  0.00  0.00    -0.015 C 
ATOM     18  C   UNL     1       5.436   0.368  -3.494  0.00  0.00    -0.018 C 
ATOM     19  C   UNL     1       4.154  -0.459  -3.626  0.00  0.00    -0.015 C 
ATOM     20  C   UNL     1       3.052   0.177  -2.775  0.00  0.00    -0.077 C 
ATOM     21  C   UNL     1       6.524  -0.228  -4.389  0.00  0.00    +0.007 C 
ATOM     22  N   UNL     1       2.808   1.553  -3.257  0.00  0.00    +0.389 N 
ATOM     23  H   UNL     1       2.582   1.520  -4.258  0.00  0.00    -0.080 HD
ENDBRANCH   1  22
BRANCH   1  24
ATOM     24  C   UNL     1       1.911   2.100  -1.040  0.00  0.00    +0.143 A 
ATOM     25  N   UNL     1       3.020   2.414  -0.416  0.00  0.00    -0.115 NA
ATOM     26  N   UNL     1       2.829   2.243   0.846  0.00  0.00    -0.023 NA
ATOM     27  N   UNL     1       1.624   1.833   1.044  0.00  0.00    -0.044 NA
ATOM     28  N   UNL     1       1.028   1.727  -0.095  0.00  0.00    -0.226 N 
BRANCH  28  29
ATOM     29  C   UNL     1      -0.352   1.289  -0.318  0.00  0.00    +0.182 C 
BRANCH  29  30
ATOM     30  C   UNL     1      -0.380  -0.206  -0.510  0.00  0.00    -0.026 A 
ATOM     31  C   UNL     1      -0.255  -0.741  -1.779  0.00  0.00    +0.009 A 
ATOM     32  C   UNL     1      -0.274  -2.111  -1.956  0.00  0.00    +0.046 A 
ATOM     33  C   UNL     1      -0.431  -2.949  -0.862  0.00  0.00    +0.120 A 
ATOM     34  C   UNL     1      -0.561  -2.409   0.409  0.00  0.00    +0.046 A 
ATOM     35  C   UNL     1      -0.536  -1.039   0.582  0.00  0.00    +0.009 A 
BRANCH  33  36
ATOM     36  O   UNL     1      -0.455  -4.297  -1.035  0.00  0.00    -0.495 OA
ATOM     37  C   UNL     1      -0.315  -4.782  -2.372  0.00  0.00    +0.277 C 
ENDBRANCH  33  36
ENDBRANCH  29  30
ENDBRANCH  28  29
ENDBRANCH   1  24
TORSDOF 6
