REMARK  Name = ZINC64061310
REMARK  8 active torsions:
REMARK  status: ('A' for Active; 'I' for Inactive)
REMARK    1  A    between atoms: C_1  and  C_2
REMARK    2  A    between atoms: C_10  and  C_12
REMARK    3  A    between atoms: N_14  and  C_15
REMARK    4  A    between atoms: C_15  and  C_16
REMARK    5  A    between atoms: C_27  and  C_29
REMARK    6  A    between atoms: C_29  and  C_30
REMARK    7  A    between atoms: C_30  and  C_31
REMARK    8  A    between atoms: C_30  and  C_32
REMARK                            x       y       z     vdW  Elec       q    Type
REMARK                         _______ _______ _______ _____ _____    ______ ____
ROOT
ATOM      1  C   UNL     1       2.521   0.620   3.667  0.00  0.00    +0.135 C 
ENDROOT
BRANCH   1   2
ATOM      2  C   UNL     1       2.314   1.859   4.540  0.00  0.00    +0.136 C 
ATOM      3  C   UNL     1       3.602   2.183   5.341  0.00  0.00    +0.036 C 
ATOM      4  C   UNL     1       3.041   2.969   6.552  0.00  0.00    +0.038 C 
ATOM      5  C   UNL     1       1.559   2.558   6.613  0.00  0.00    +0.073 C 
ATOM      6  O   UNL     1       1.330   1.602   5.565  0.00  0.00    -0.369 OA
ATOM      7  C   UNL     1       1.256   1.926   7.971  0.00  0.00    +0.054 C 
ATOM      8  C   UNL     1      -0.212   1.489   8.012  0.00  0.00    +0.110 C 
ATOM      9  N   UNL     1      -1.058   2.641   7.671  0.00  0.00    -0.301 N 
ATOM     10  C   UNL     1      -0.796   3.364   6.419  0.00  0.00    +0.110 C 
ATOM     11  C   UNL     1       0.676   3.786   6.392  0.00  0.00    +0.054 C 
ATOM     12  C   UNL     1      -2.055   3.026   8.492  0.00  0.00    +0.216 C 
ATOM     13  O   UNL     1      -2.261   2.421   9.522  0.00  0.00    -0.276 OA
BRANCH  12  14
ATOM     14  C   UNL     1      -2.914   4.210   8.129  0.00  0.00    +0.099 C 
BRANCH  14  15
ATOM     15  C   UNL     1      -3.963   4.433   9.220  0.00  0.00    -0.008 C 
ATOM     16  C   UNL     1      -3.265   4.824  10.525  0.00  0.00    +0.008 C 
ATOM     17  C   UNL     1      -4.912   5.554   8.794  0.00  0.00    +0.008 C 
ENDBRANCH  14  15
ENDBRANCH  12  14
ENDBRANCH   1   2
BRANCH   1  20
ATOM     18  C   UNL     1       1.266  -0.670   2.024  0.00  0.00    +0.240 C 
ATOM     19  O   UNL     1       2.221  -1.410   1.919  0.00  0.00    -0.273 OA
ATOM     20  N   UNL     1       1.315   0.377   2.872  0.00  0.00    -0.311 N 
ATOM     21  H   UNL     1       0.551   0.969   2.955  0.00  0.00    +0.149 HD
BRANCH  18  31
ATOM     22  C   UNL     1      -0.018   1.503   0.010  0.00  0.00    +0.042 C 
ATOM     23  C   UNL     1       0.002  -0.004   0.002  0.00  0.00    -0.033 C 
ATOM     24  C   UNL     1       0.009  -0.811  -1.083  0.00  0.00    +0.001 A 
ATOM     25  C   UNL     1      -0.002  -0.538  -2.525  0.00  0.00    +0.030 A 
ATOM     26  C   UNL     1       0.009  -1.579  -3.390  0.00  0.00    +0.042 A 
ATOM     27  C   UNL     1       0.028  -2.909  -2.944  0.00  0.00    +0.022 A 
ATOM     28  C   UNL     1       0.038  -3.238  -1.635  0.00  0.00    +0.027 A 
ATOM     29  C   UNL     1       0.030  -2.223  -0.638  0.00  0.00    +0.043 A 
ATOM     30  N   UNL     1       0.036  -2.286   0.671  0.00  0.00    -0.370 N 
ATOM     31  C   UNL     1       0.026  -0.920   1.206  0.00  0.00    +0.193 C 
ATOM     32 CL   UNL     1      -0.004  -1.260  -5.097  0.00  0.00    -0.084 Cl
ATOM     33  H   UNL     1       0.049  -3.100   1.199  0.00  0.00    +0.161 HD
ENDBRANCH  18  31
ENDBRANCH   1  20
TORSDOF 5
