REMARK  Name = ZINC01187536
REMARK  14 active torsions:
REMARK  status: ('A' for Active; 'I' for Inactive)
REMARK    1  A    between atoms: C_1  and  C_2
REMARK    2  A    between atoms: C_2  and  O_3
REMARK    3  A    between atoms: O_3  and  C_4
REMARK    4  A    between atoms: C_4  and  C_6
REMARK    5  A    between atoms: C_7  and  C_37
REMARK    6  A    between atoms: C_14  and  C_15
REMARK    7  A    between atoms: C_18  and  O_23
REMARK    8  A    between atoms: C_19  and  O_21
REMARK    9  A    between atoms: O_21  and  C_22
REMARK   10  A    between atoms: C_25  and  C_27
REMARK   11  A    between atoms: C_29  and  O_35
REMARK   12  A    between atoms: C_32  and  O_33
REMARK   13  A    between atoms: O_33  and  C_34
REMARK   14  A    between atoms: O_35  and  C_36
REMARK                            x       y       z     vdW  Elec       q    Type
REMARK                         _______ _______ _______ _____ _____    ______ ____
ROOT
ATOM      1  C   UNL     1       0.038   1.293  -0.302  0.00  0.00    +0.085 C 
ATOM      2  C   UNL     1      -1.200   1.803  -0.026  0.00  0.00    +0.053 C 
ATOM      3  N   UNL     1      -1.361   3.104   0.184  0.00  0.00    -0.228 NA
ATOM      4  C   UNL     1      -0.401   3.993   0.141  0.00  0.00    +0.178 A 
ATOM      5  N   UNL     1       0.915   3.692  -0.126  0.00  0.00    -0.275 N 
ATOM      6  C   UNL     1       1.810   4.689  -0.145  0.00  0.00    +0.268 A 
ATOM      7  O   UNL     1       2.985   4.471  -0.377  0.00  0.00    -0.266 OA
ATOM      8  C   UNL     1       1.331   6.052   0.123  0.00  0.00    +0.081 A 
ATOM      9  C   UNL     1       2.025   7.219   0.162  0.00  0.00    +0.028 C 
ATOM     10  S   UNL     1      -0.412   5.758   0.382  0.00  0.00    -0.046 S 
ATOM     11  C   UNL     1       1.204   2.252  -0.372  0.00  0.00    +0.165 C 
ATOM     12  C   UNL     1      -2.389   0.881   0.047  0.00  0.00    +0.066 C 
ENDROOT
BRANCH   9  13
ATOM     13  C   UNL     1       1.310   8.493   0.301  0.00  0.00    -0.020 A 
ATOM     14  C   UNL     1      -0.020   8.603  -0.123  0.00  0.00    +0.012 A 
ATOM     15  C   UNL     1      -0.689   9.799   0.014  0.00  0.00    +0.050 A 
ATOM     16  C   UNL     1      -0.045  10.901   0.562  0.00  0.00    +0.158 A 
ATOM     17  C   UNL     1       1.281  10.801   0.982  0.00  0.00    +0.162 A 
ATOM     18  C   UNL     1       1.958   9.605   0.853  0.00  0.00    +0.057 A 
BRANCH  17  19
ATOM     19  O   UNL     1       1.907  11.883   1.517  0.00  0.00    -0.491 OA
ATOM     20  C   UNL     1       3.266  11.710   1.925  0.00  0.00    +0.277 C 
ENDBRANCH  17  19
BRANCH  16  21
ATOM     21  O   UNL     1      -0.710  12.079   0.690  0.00  0.00    -0.503 OA
ATOM     22  H   UNL     1      -0.629  12.661  -0.078  0.00  0.00    +0.292 HD
ENDBRANCH  16  21
ENDBRANCH   9  13
BRANCH  11  23
ATOM     23  C   UNL     1       2.231   1.807   0.638  0.00  0.00    +0.025 A 
ATOM     24  C   UNL     1       2.290   2.416   1.876  0.00  0.00    +0.055 A 
ATOM     25  C   UNL     1       3.232   2.004   2.807  0.00  0.00    +0.121 A 
ATOM     26  C   UNL     1       4.122   0.988   2.490  0.00  0.00    +0.049 A 
ATOM     27  C   UNL     1       4.065   0.383   1.250  0.00  0.00    +0.049 A 
ATOM     28  C   UNL     1       3.119   0.791   0.321  0.00  0.00    +0.126 A 
BRANCH  28  29
ATOM     29  O   UNL     1       3.064   0.195  -0.900  0.00  0.00    -0.495 OA
ATOM     30  C   UNL     1       3.937  -0.914  -1.121  0.00  0.00    +0.277 C 
ENDBRANCH  28  29
BRANCH  25  31
ATOM     31  O   UNL     1       3.287   2.600   4.028  0.00  0.00    -0.495 OA
ATOM     32  C   UNL     1       4.286   2.129   4.935  0.00  0.00    +0.277 C 
ENDBRANCH  25  31
ENDBRANCH  11  23
BRANCH   1  33
ATOM     33  C   UNL     1       0.219  -0.083  -0.520  0.00  0.00    +0.339 C 
ATOM     34  O   UNL     1       0.326  -0.511  -1.655  0.00  0.00    -0.245 OA
BRANCH  33  35
ATOM     35  O   UNL     1       0.275  -0.931   0.530  0.00  0.00    -0.462 OA
BRANCH  35  37
ATOM     36  C   UNL     1       0.478  -3.123   1.529  0.00  0.00    +0.048 C 
ATOM     37  C   UNL     1       0.573  -2.299   0.243  0.00  0.00    +0.229 C 
ENDBRANCH  35  37
ENDBRANCH  33  35
ENDBRANCH   1  33
TORSDOF 9
