REMARK  Name = ZINC03376887
REMARK  6 active torsions:
REMARK  status: ('A' for Active; 'I' for Inactive)
REMARK    1  A    between atoms: C_4  and  C_7
REMARK    2  A    between atoms: C_12  and  C_14
REMARK    3  A    between atoms: C_14  and  S_15
REMARK    4  A    between atoms: S_15  and  C_16
REMARK    5  A    between atoms: C_19  and  C_27
REMARK    6  A    between atoms: N_20  and  C_21
REMARK                            x       y       z     vdW  Elec       q    Type
REMARK                         _______ _______ _______ _____ _____    ______ ____
ROOT
ATOM      1  S   UNL     1       5.714  -6.404  -0.111  0.00  0.00    -0.076 S 
ENDROOT
BRANCH   1   2
ATOM      2  C   UNL     1       4.498  -7.679  -0.114  0.00  0.00    +0.197 A 
ATOM      3  N   UNL     1       3.195  -7.512  -0.108  0.00  0.00    -0.122 NA
ATOM      4  N   UNL     1       2.602  -8.652  -0.113  0.00  0.00    -0.127 NA
ATOM      5  C   UNL     1       3.490  -9.622  -0.122  0.00  0.00    +0.176 A 
ATOM      6  N   UNL     1       4.735  -9.028  -0.129  0.00  0.00    -0.270 N 
BRANCH   6   7
ATOM      7  C   UNL     1       5.981  -9.670  -0.145  0.00  0.00    +0.051 A 
ATOM      8  C   UNL     1       6.360 -10.424  -1.248  0.00  0.00    +0.026 A 
ATOM      9  C   UNL     1       7.589 -11.055  -1.261  0.00  0.00    +0.002 A 
ATOM     10  C   UNL     1       8.440 -10.936  -0.178  0.00  0.00    +0.000 A 
ATOM     11  C   UNL     1       8.065 -10.186   0.922  0.00  0.00    +0.002 A 
ATOM     12  C   UNL     1       6.840  -9.548   0.938  0.00  0.00    +0.026 A 
ENDBRANCH   6   7
BRANCH   5  13
ATOM     13  C   UNL     1       3.209 -11.066  -0.129  0.00  0.00    +0.057 A 
ATOM     14  C   UNL     1       2.034 -11.717  -0.410  0.00  0.00    +0.019 A 
ATOM     15  C   UNL     1       2.012 -13.093  -0.353  0.00  0.00    +0.008 A 
ATOM     16  C   UNL     1       3.147 -13.761  -0.022  0.00  0.00    +0.046 A 
ATOM     17  S   UNL     1       4.311 -12.428   0.217  0.00  0.00    -0.094 S 
ENDBRANCH   5  13
ENDBRANCH   1   2
BRANCH   1  18
ATOM     18  C   UNL     1       4.744  -4.872  -0.088  0.00  0.00    +0.174 C 
BRANCH  18  24
ATOM     19  C   UNL     1       3.697  -0.687  -0.038  0.00  0.00    +0.049 C 
ATOM     20  C   UNL     1       4.886  -0.090  -0.042  0.00  0.00    +0.019 C 
ATOM     21  C   UNL     1       5.937  -1.177  -0.061  0.00  0.00    +0.159 C 
ATOM     22  N   UNL     1       5.175  -2.436  -0.067  0.00  0.00    -0.218 N 
ATOM     23  N   UNL     1       3.822  -2.069  -0.047  0.00  0.00    -0.261 N 
ATOM     24  C   UNL     1       5.675  -3.687  -0.084  0.00  0.00    +0.242 C 
ATOM     25  O   UNL     1       6.876  -3.860  -0.095  0.00  0.00    -0.273 OA
ATOM     26  H   UNL     1       3.079  -2.693  -0.043  0.00  0.00    +0.170 HD
BRANCH  19  30
ATOM     27  C   UNL     1      -0.017   1.379   0.010  0.00  0.00    +0.000 A 
ATOM     28  C   UNL     1       1.169   2.093   0.002  0.00  0.00    +0.001 A 
ATOM     29  C   UNL     1       2.377   1.427  -0.013  0.00  0.00    +0.010 A 
ATOM     30  C   UNL     1       2.403   0.033  -0.021  0.00  0.00    -0.003 A 
ATOM     31  C   UNL     1       1.205  -0.680  -0.013  0.00  0.00    +0.010 A 
ATOM     32  C   UNL     1       0.002  -0.004   0.002  0.00  0.00    +0.001 A 
ENDBRANCH  19  30
ENDBRANCH  18  24
ENDBRANCH   1  18
TORSDOF 6
