REMARK  Name = ZINC25813269
REMARK  9 active torsions:
REMARK  status: ('A' for Active; 'I' for Inactive)
REMARK    1  A    between atoms: C_1  and  C_2
REMARK    2  A    between atoms: C_2  and  O_3
REMARK    3  A    between atoms: O_3  and  C_4
REMARK    4  A    between atoms: C_4  and  C_6
REMARK    5  A    between atoms: C_7  and  C_15
REMARK    6  A    between atoms: C_15  and  O_16
REMARK    7  A    between atoms: O_16  and  C_17
REMARK    8  A    between atoms: C_17  and  C_19
REMARK    9  A    between atoms: N_28  and  C_29
REMARK                            x       y       z     vdW  Elec       q    Type
REMARK                         _______ _______ _______ _____ _____    ______ ____
ROOT
ATOM      1  C   UNL     1      -8.315   3.017   0.906  0.00  0.00    +0.312 C 
ATOM      2  O   UNL     1      -9.296   3.696   0.714  0.00  0.00    -0.250 OA
ENDROOT
BRANCH   1   3
ATOM      3  C   UNL     1      -6.954   3.659   0.972  0.00  0.00    +0.115 C 
ATOM      4  C   UNL     1      -7.092   5.170   0.765  0.00  0.00    +0.018 C 
ATOM      5  C   UNL     1      -5.714   5.828   0.864  0.00  0.00    +0.020 C 
ATOM      6  C   UNL     1      -4.806   5.270  -0.237  0.00  0.00    +0.109 C 
ATOM      7  N   UNL     1      -4.784   3.805  -0.134  0.00  0.00    -0.285 N 
ATOM      8  C   UNL     1      -6.060   3.077  -0.134  0.00  0.00    +0.124 C 
ATOM      9  C   UNL     1      -3.614   3.140  -0.048  0.00  0.00    +0.306 C 
ATOM     10  O   UNL     1      -3.604   1.924  -0.059  0.00  0.00    -0.252 OA
ATOM     11  N   UNL     1      -2.457   3.823   0.051  0.00  0.00    -0.269 N 
ATOM     12  H   UNL     1      -2.471   4.920   0.139  0.00  0.00    +0.156 HD
BRANCH  11  13
ATOM     13  C   UNL     1      -1.237   3.138   0.040  0.00  0.00    +0.035 A 
ATOM     14  C   UNL     1      -0.123   3.709  -0.562  0.00  0.00    +0.023 A 
ATOM     15  C   UNL     1       1.078   3.027  -0.576  0.00  0.00    +0.002 A 
ATOM     16  C   UNL     1       1.175   1.782   0.018  0.00  0.00    +0.000 A 
ATOM     17  C   UNL     1       0.070   1.213   0.623  0.00  0.00    +0.002 A 
ATOM     18  C   UNL     1      -1.136   1.887   0.636  0.00  0.00    +0.023 A 
ENDBRANCH  11  13
ENDBRANCH   1   3
BRANCH   1  19
ATOM     19  O   UNL     1      -8.439   1.689   1.061  0.00  0.00    -0.459 OA
BRANCH  19  20
ATOM     20  C   UNL     1      -9.780   1.138   0.986  0.00  0.00    +0.272 C 
BRANCH  20  22
ATOM     21  C   UNL     1      -9.581  -1.301   0.216  0.00  0.00    +0.219 A 
ATOM     22  C   UNL     1      -9.722  -0.355   1.182  0.00  0.00    +0.050 A 
ATOM     23  C   UNL     1      -9.812  -1.080   2.449  0.00  0.00    +0.027 A 
ATOM     24  C   UNL     1      -9.968  -0.694   3.782  0.00  0.00    +0.012 A 
ATOM     25  C   UNL     1     -10.018  -1.646   4.761  0.00  0.00    +0.001 A 
ATOM     26  C   UNL     1      -9.915  -2.992   4.439  0.00  0.00    +0.004 A 
ATOM     27  C   UNL     1      -9.761  -3.393   3.130  0.00  0.00    +0.047 A 
ATOM     28  C   UNL     1      -9.707  -2.443   2.116  0.00  0.00    +0.136 A 
ATOM     29  O   UNL     1      -9.568  -2.527   0.779  0.00  0.00    -0.448 OA
BRANCH  21  30
ATOM     30  C   UNL     1      -9.457  -1.029  -1.221  0.00  0.00    +0.375 C 
ATOM     31  O   UNL     1      -9.477   0.117  -1.627  0.00  0.00    -0.241 OA
BRANCH  30  32
ATOM     32  O   UNL     1      -9.321  -2.050  -2.091  0.00  0.00    -0.459 OA
BRANCH  32  34
ATOM     33  C   UNL     1      -9.059  -2.986  -4.324  0.00  0.00    +0.048 C 
ATOM     34  C   UNL     1      -9.204  -1.707  -3.497  0.00  0.00    +0.229 C 
ENDBRANCH  32  34
ENDBRANCH  30  32
ENDBRANCH  21  30
ENDBRANCH  20  22
ENDBRANCH  19  20
ENDBRANCH   1  19
TORSDOF 8
