REMARK  Name = ZINC16651754
REMARK  15 active torsions:
REMARK  status: ('A' for Active; 'I' for Inactive)
REMARK    1  A    between atoms: C_1  and  C_2
REMARK    2  A    between atoms: C_2  and  O_3
REMARK    3  A    between atoms: O_3  and  C_4
REMARK    4  A    between atoms: C_9  and  N_10
REMARK    5  A    between atoms: N_13  and  C_14
REMARK    6  A    between atoms: N_13  and  C_18
REMARK    7  A    between atoms: C_14  and  C_15
REMARK    8  A    between atoms: C_15  and  C_16
REMARK    9  A    between atoms: C_15  and  C_17
REMARK   10  A    between atoms: C_18  and  C_19
REMARK   11  A    between atoms: N_21  and  C_22
REMARK   12  A    between atoms: N_21  and  C_32
REMARK   13  A    between atoms: C_22  and  C_23
REMARK   14  A    between atoms: C_32  and  C_33
REMARK   15  A    between atoms: C_36  and  C_38
REMARK                            x       y       z     vdW  Elec       q    Type
REMARK                         _______ _______ _______ _____ _____    ______ ____
ROOT
ATOM      1  C   UNL     1      -2.494  -0.403   2.011  0.00  0.00    +0.234 C 
ATOM      2  O   UNL     1      -1.777  -1.196   1.438  0.00  0.00    -0.274 OA
ATOM      3  N   UNL     1      -2.899   0.717   1.381  0.00  0.00    -0.289 N 
ENDROOT
BRANCH   1   4
ATOM      4  C   UNL     1      -2.932  -0.671   3.428  0.00  0.00    +0.205 C 
BRANCH   4   8
ATOM      5  N   UNL     1      -0.636  -3.132   4.909  0.00  0.00    -0.266 N 
ATOM      6  C   UNL     1      -1.160  -1.963   4.490  0.00  0.00    +0.307 C 
ATOM      7  O   UNL     1      -0.547  -0.927   4.661  0.00  0.00    -0.252 OA
ATOM      8  N   UNL     1      -2.363  -1.942   3.883  0.00  0.00    -0.276 N 
ATOM      9  H   UNL     1      -1.159  -3.947   4.848  0.00  0.00    +0.156 HD
BRANCH   5  15
ATOM     10  C   UNL     1       1.034  -4.189   6.308  0.00  0.00    +0.142 A 
ATOM     11  C   UNL     1       2.320  -4.222   6.821  0.00  0.00    +0.047 A 
ATOM     12  C   UNL     1       3.233  -3.247   6.464  0.00  0.00    +0.004 A 
ATOM     13  C   UNL     1       2.866  -2.236   5.595  0.00  0.00    +0.002 A 
ATOM     14  C   UNL     1       1.586  -2.199   5.074  0.00  0.00    +0.027 A 
ATOM     15  C   UNL     1       0.663  -3.171   5.432  0.00  0.00    +0.077 A 
BRANCH  10  16
ATOM     16  O   UNL     1       0.135  -5.147   6.657  0.00  0.00    -0.490 OA
BRANCH  16  18
ATOM     17  C   UNL     1      -0.555  -7.142   7.834  0.00  0.00    +0.048 C 
ATOM     18  C   UNL     1       0.585  -6.160   7.560  0.00  0.00    +0.226 C 
ENDBRANCH  16  18
ENDBRANCH  10  16
ENDBRANCH   5  15
BRANCH   8  19
ATOM     19  C   UNL     1      -3.102  -3.191   3.678  0.00  0.00    +0.113 C 
BRANCH  19  20
ATOM     20  C   UNL     1      -2.716  -3.796   2.327  0.00  0.00    +0.000 C 
ATOM     21  C   UNL     1      -1.240  -4.198   2.351  0.00  0.00    +0.009 C 
ATOM     22  C   UNL     1      -3.576  -5.031   2.056  0.00  0.00    +0.009 C 
ENDBRANCH  19  20
ENDBRANCH   8  19
ENDBRANCH   4   8
ENDBRANCH   1   4
BRANCH   3  23
ATOM     23  C   UNL     1      -2.473   0.978   0.004  0.00  0.00    +0.143 C 
BRANCH  23  24
ATOM     24  C   UNL     1      -1.181   1.754   0.016  0.00  0.00    -0.026 A 
ATOM     25  C   UNL     1      -1.207   3.136   0.033  0.00  0.00    +0.009 A 
ATOM     26  C   UNL     1      -0.024   3.852   0.037  0.00  0.00    +0.050 A 
ATOM     27  C   UNL     1       1.190   3.186   0.032  0.00  0.00    +0.166 A 
ATOM     28  C   UNL     1       1.216   1.793   0.023  0.00  0.00    +0.167 A 
ATOM     29  C   UNL     1       0.027   1.082   0.018  0.00  0.00    +0.054 A 
ATOM     30  O   UNL     1       2.517   1.381   0.021  0.00  0.00    -0.453 OA
ATOM     31  C   UNL     1       3.284   2.531  -0.384  0.00  0.00    +0.466 C 
ATOM     32  O   UNL     1       2.475   3.646   0.035  0.00  0.00    -0.453 OA
ENDBRANCH  23  24
ENDBRANCH   3  23
BRANCH   3  33
ATOM     33  C   UNL     1      -3.765   1.675   2.074  0.00  0.00    +0.182 C 
BRANCH  33  34
ATOM     34  C   UNL     1      -5.208   1.316   1.827  0.00  0.00    +0.122 A 
ATOM     35  C   UNL     1      -5.955   0.493   2.585  0.00  0.00    +0.046 A 
ATOM     36  C   UNL     1      -7.238   0.443   1.992  0.00  0.00    +0.045 A 
ATOM     37  C   UNL     1      -7.198   1.238   0.908  0.00  0.00    +0.102 A 
ATOM     38  O   UNL     1      -5.968   1.769   0.816  0.00  0.00    -0.463 OA
ATOM     39  C   UNL     1      -8.341   1.494  -0.039  0.00  0.00    +0.086 C 
ENDBRANCH  33  34
ENDBRANCH   3  33
TORSDOF 11
