REMARK  Name = ZINC36159437
REMARK  11 active torsions:
REMARK  status: ('A' for Active; 'I' for Inactive)
REMARK    1  A    between atoms: C_1  and  C_2
REMARK    2  A    between atoms: C_7  and  O_8
REMARK    3  A    between atoms: O_8  and  C_9
REMARK    4  A    between atoms: C_9  and  C_10
REMARK    5  A    between atoms: C_10  and  C_12
REMARK    6  A    between atoms: C_10  and  O_33
REMARK    7  A    between atoms: C_12  and  N_13
REMARK    8  A    between atoms: N_13  and  C_14
REMARK    9  A    between atoms: N_13  and  C_17
REMARK   10  A    between atoms: C_14  and  C_15
REMARK   11  A    between atoms: C_17  and  C_18
REMARK                            x       y       z     vdW  Elec       q    Type
REMARK                         _______ _______ _______ _____ _____    ______ ____
ROOT
ATOM      1  N   UNL     1      -0.281   0.360   7.204  0.00  0.00    +0.388 N 
ATOM      2  H   UNL     1      -1.036   0.987   6.970  0.00  0.00    -0.081 HD
ENDROOT
BRANCH   1   3
ATOM      3  C   UNL     1      -0.207  -0.713   6.203  0.00  0.00    -0.043 C 
BRANCH   3   4
ATOM      4  C   UNL     1      -1.573  -1.393   6.083  0.00  0.00    +0.135 C 
BRANCH   4   5
ATOM      5  O   UNL     1      -2.549  -0.433   5.675  0.00  0.00    -0.390 OA
ATOM      6  H   UNL     1      -2.401  -0.075   4.789  0.00  0.00    +0.210 HD
ENDBRANCH   4   5
BRANCH   4   7
ATOM      7  C   UNL     1      -1.495  -2.515   5.046  0.00  0.00    +0.258 C 
BRANCH   7   8
ATOM      8  O   UNL     1      -2.735  -3.225   5.018  0.00  0.00    -0.489 OA
BRANCH   8  15
ATOM      9  C   UNL     1      -5.177  -4.641   4.946  0.00  0.00    +0.047 C 
ATOM     10  C   UNL     1      -4.008  -4.992   4.063  0.00  0.00    -0.009 A 
ATOM     11  C   UNL     1      -4.108  -6.041   3.168  0.00  0.00    +0.007 A 
ATOM     12  C   UNL     1      -3.035  -6.364   2.358  0.00  0.00    +0.000 A 
ATOM     13  C   UNL     1      -1.861  -5.638   2.439  0.00  0.00    +0.004 A 
ATOM     14  C   UNL     1      -1.756  -4.589   3.332  0.00  0.00    +0.046 A 
ATOM     15  C   UNL     1      -2.833  -4.260   4.143  0.00  0.00    +0.124 A 
ENDBRANCH   8  15
ENDBRANCH   7   8
ENDBRANCH   4   7
ENDBRANCH   3   4
ENDBRANCH   1   3
BRANCH   1  16
ATOM     16  C   UNL     1       0.986   1.104   7.217  0.00  0.00    -0.051 C 
BRANCH  16  17
ATOM     17  C   UNL     1       1.160   1.824   5.904  0.00  0.00    -0.053 C 
ATOM     18  C   UNL     1       1.347   3.120   5.888  0.00  0.00    +0.002 C 
ENDBRANCH  16  17
ENDBRANCH   1  16
BRANCH   1  19
ATOM     19  C   UNL     1      -0.520  -0.223   8.530  0.00  0.00    -0.003 C 
BRANCH  19  20
ATOM     20  C   UNL     1      -0.718   0.882   9.536  0.00  0.00    +0.094 A 
ATOM     21  N   UNL     1      -0.950   0.566  10.836  0.00  0.00    -0.312 N 
ATOM     22  H   UNL     1      -0.985  -0.366  11.100  0.00  0.00    +0.170 HD
ATOM     23  C   UNL     1      -1.131   1.522  11.767  0.00  0.00    +0.260 A 
ATOM     24  O   UNL     1      -1.337   1.222  12.931  0.00  0.00    -0.267 OA
ATOM     25  C   UNL     1      -1.077   2.897  11.368  0.00  0.00    +0.075 A 
ATOM     26  C   UNL     1      -1.245   4.091  12.196  0.00  0.00    -0.023 A 
ATOM     27  C   UNL     1      -1.148   5.285  11.574  0.00  0.00    -0.004 A 
ATOM     28  S   UNL     1      -0.832   4.894   9.874  0.00  0.00    -0.073 S 
ATOM     29  C   UNL     1      -0.833   3.124  10.004  0.00  0.00    +0.116 A 
ATOM     30  N   UNL     1      -0.658   2.126   9.143  0.00  0.00    -0.229 NA
ATOM     31  C   UNL     1      -1.280   6.644  12.193  0.00  0.00    +0.043 C 
ATOM     32  C   UNL     1      -1.915   6.483  13.582  0.00  0.00    +0.005 C 
ATOM     33  C   UNL     1      -1.184   5.364  14.329  0.00  0.00    +0.005 C 
ATOM     34  C   UNL     1      -1.517   4.012  13.695  0.00  0.00    +0.037 C 
ENDBRANCH  19  20
ENDBRANCH   1  19
TORSDOF 10
