REMARK  Name = ZINC24973063
REMARK  10 active torsions:
REMARK  status: ('A' for Active; 'I' for Inactive)
REMARK    1  A    between atoms: C_1  and  C_2
REMARK    2  A    between atoms: C_2  and  O_3
REMARK    3  A    between atoms: O_3  and  C_4
REMARK    4  A    between atoms: C_4  and  C_6
REMARK    5  A    between atoms: C_7  and  C_20
REMARK    6  A    between atoms: C_12  and  C_14
REMARK    7  A    between atoms: C_20  and  N_21
REMARK    8  A    between atoms: N_21  and  C_22
REMARK    9  A    between atoms: N_21  and  C_23
REMARK   10  A    between atoms: C_26  and  C_29
REMARK                            x       y       z     vdW  Elec       q    Type
REMARK                         _______ _______ _______ _____ _____    ______ ____
ROOT
ATOM      1  C   UNL     1       2.238   1.678  -0.018  0.00  0.00    +0.076 C 
ATOM      2  C   UNL     1       0.961   2.068  -0.220  0.00  0.00    +0.008 C 
ATOM      3  N   UNL     1      -0.063   1.164  -0.207  0.00  0.00    -0.274 N 
ATOM      4  C   UNL     1       0.108  -0.147   0.001  0.00  0.00    +0.304 C 
ATOM      5  O   UNL     1      -0.866  -0.875  -0.006  0.00  0.00    -0.252 OA
ATOM      6  N   UNL     1       1.323  -0.687   0.218  0.00  0.00    -0.288 N 
ATOM      7  C   UNL     1       2.495   0.204   0.223  0.00  0.00    +0.143 C 
ATOM      8  H   UNL     1      -1.096   1.502  -0.374  0.00  0.00    +0.156 HD
ATOM      9  H   UNL     1       1.452  -1.766   0.388  0.00  0.00    +0.151 HD
ENDROOT
BRANCH   7  10
ATOM     10  C   UNL     1       3.179   0.065   1.559  0.00  0.00    -0.023 A 
ATOM     11  C   UNL     1       2.425  -0.036   2.714  0.00  0.00    +0.006 A 
ATOM     12  C   UNL     1       3.052  -0.168   3.939  0.00  0.00    +0.000 A 
ATOM     13  C   UNL     1       4.432  -0.191   4.010  0.00  0.00    +0.000 A 
ATOM     14  C   UNL     1       5.186  -0.085   2.856  0.00  0.00    +0.000 A 
ATOM     15  C   UNL     1       4.559   0.043   1.631  0.00  0.00    +0.006 A 
ENDBRANCH   7  10
BRANCH   1  16
ATOM     16  C   UNL     1       3.299   2.613  -0.031  0.00  0.00    +0.339 C 
ATOM     17  O   UNL     1       3.060   3.804  -0.104  0.00  0.00    -0.245 OA
BRANCH  16  18
ATOM     18  O   UNL     1       4.577   2.185   0.038  0.00  0.00    -0.462 OA
BRANCH  18  20
ATOM     19  C   UNL     1       6.970   2.513   0.105  0.00  0.00    +0.048 C 
ATOM     20  C   UNL     1       5.598   3.184   0.020  0.00  0.00    +0.229 C 
ENDBRANCH  18  20
ENDBRANCH  16  18
ENDBRANCH   1  16
BRANCH   2  21
ATOM     21  C   UNL     1       0.661   3.525  -0.464  0.00  0.00    -0.026 C 
BRANCH  21  22
ATOM     22  N   UNL     1       0.497   4.213   0.823  0.00  0.00    +0.383 N 
ATOM     23  C   UNL     1      -0.693   3.726   1.533  0.00  0.00    -0.095 C 
ATOM     24  H   UNL     1       1.377   3.986   1.442  0.00  0.00    -0.081 HD
BRANCH  22  25
ATOM     25  C   UNL     1       0.439   5.669   0.637  0.00  0.00    -0.068 C 
ATOM     26  C   UNL     1       1.736   6.152  -0.016  0.00  0.00    -0.015 C 
ATOM     27  C   UNL     1       1.676   7.668  -0.210  0.00  0.00    +0.002 C 
ATOM     28  C   UNL     1       1.505   8.350   1.149  0.00  0.00    -0.014 C 
ATOM     29  C   UNL     1       0.209   7.867   1.803  0.00  0.00    +0.002 C 
ATOM     30  C   UNL     1       0.269   6.351   1.996  0.00  0.00    -0.015 C 
ATOM     31  C   UNL     1       2.692   7.997   2.049  0.00  0.00    +0.007 C 
ENDBRANCH  22  25
ENDBRANCH  21  22
ENDBRANCH   2  21
TORSDOF 7
