REMARK  Name = ZINC18271159
REMARK  13 active torsions:
REMARK  status: ('A' for Active; 'I' for Inactive)
REMARK    1  A    between atoms: C_1  and  C_2
REMARK    2  A    between atoms: C_3  and  C_30
REMARK    3  A    between atoms: C_4  and  N_29
REMARK    4  A    between atoms: C_9  and  C_10
REMARK    5  A    between atoms: C_13  and  O_16
REMARK    6  A    between atoms: O_16  and  C_17
REMARK    7  A    between atoms: C_17  and  C_18
REMARK    8  A    between atoms: C_18  and  O_20
REMARK    9  A    between atoms: O_20  and  C_21
REMARK   10  A    between atoms: C_21  and  C_22
REMARK   11  A    between atoms: C_21  and  C_23
REMARK   12  A    between atoms: C_24  and  C_28
REMARK   13  A    between atoms: C_25  and  C_26
REMARK                            x       y       z     vdW  Elec       q    Type
REMARK                         _______ _______ _______ _____ _____    ______ ____
ROOT
ATOM      1  C   UNL     1       2.709  -1.864   3.944  0.00  0.00    +0.046 C 
ATOM      2  C   UNL     1       3.234  -1.863   2.532  0.00  0.00    -0.020 A 
ATOM      3  C   UNL     1       4.555  -2.230   2.255  0.00  0.00    +0.095 A 
ATOM      4  C   UNL     1       5.006  -2.215   0.921  0.00  0.00    +0.135 A 
ATOM      5  N   UNL     1       4.202  -1.860  -0.065  0.00  0.00    -0.230 NA
ATOM      6  C   UNL     1       2.938  -1.504   0.156  0.00  0.00    +0.092 A 
ATOM      7  C   UNL     1       2.419  -1.496   1.468  0.00  0.00    +0.013 A 
ATOM      8  C   UNL     1       1.010  -1.060   1.374  0.00  0.00    -0.011 C 
ATOM      9  C   UNL     1       0.130  -0.914   2.429  0.00  0.00    +0.016 C 
ATOM     10  C   UNL     1       0.725  -0.820   0.011  0.00  0.00    -0.023 C 
ATOM     11  C   UNL     1       1.851  -1.081  -0.743  0.00  0.00    +0.081 C 
ATOM     12  C   UNL     1      -0.601  -0.358  -0.534  0.00  0.00    +0.046 C 
ENDROOT
BRANCH   9  13
ATOM     13  C   UNL     1       0.195  -1.829   3.568  0.00  0.00    -0.024 A 
ATOM     14  C   UNL     1       0.418  -3.199   3.360  0.00  0.00    +0.011 A 
ATOM     15  C   UNL     1       0.482  -4.047   4.428  0.00  0.00    +0.046 A 
ATOM     16  C   UNL     1       0.317  -3.558   5.720  0.00  0.00    +0.121 A 
ATOM     17  C   UNL     1       0.089  -2.201   5.933  0.00  0.00    +0.046 A 
ATOM     18  C   UNL     1       0.028  -1.342   4.874  0.00  0.00    +0.011 A 
BRANCH  16  19
ATOM     19  O   UNL     1       0.377  -4.406   6.777  0.00  0.00    -0.481 OA
BRANCH  19  20
ATOM     20  C   UNL     1       0.614  -5.786   6.488  0.00  0.00    +0.349 C 
BRANCH  20  21
ATOM     21  C   UNL     1       0.647  -6.569   7.775  0.00  0.00    +0.345 C 
ATOM     22  O   UNL     1       0.486  -6.005   8.831  0.00  0.00    -0.247 OA
BRANCH  21  23
ATOM     23  O   UNL     1       0.858  -7.895   7.748  0.00  0.00    -0.460 OA
BRANCH  23  24
ATOM     24  C   UNL     1       0.878  -8.585   9.026  0.00  0.00    +0.170 C 
ATOM     25  C   UNL     1      -0.537  -9.051   9.376  0.00  0.00    +0.052 C 
ATOM     26  C   UNL     1       1.806  -9.798   8.936  0.00  0.00    +0.052 C 
ENDBRANCH  23  24
ENDBRANCH  21  23
ENDBRANCH  20  21
ENDBRANCH  19  20
ENDBRANCH  16  19
ENDBRANCH   9  13
BRANCH   4  27
ATOM     27  N   UNL     1       6.312  -2.577   0.638  0.00  0.00    -0.342 N 
ATOM     28  H   UNL     1       6.630  -2.569  -0.279  0.00  0.00    +0.144 HD
ATOM     29  H   UNL     1       6.909  -2.838   1.356  0.00  0.00    +0.144 HD
ENDBRANCH   4  27
BRANCH  11  30
ATOM     30  C   UNL     1       1.948  -0.957  -2.166  0.00  0.00    +0.102 C 
ATOM     31  N   UNL     1       2.025  -0.859  -3.295  0.00  0.00    -0.191 NA
ENDBRANCH  11  30
BRANCH   3  32
ATOM     32  C   UNL     1       5.438  -2.616   3.315  0.00  0.00    +0.103 C 
ATOM     33  N   UNL     1       6.138  -2.923   4.155  0.00  0.00    -0.191 NA
ENDBRANCH   3  32
TORSDOF 9
