REMARK  Name = ZINC41569368
REMARK  4 active torsions:
REMARK  status: ('A' for Active; 'I' for Inactive)
REMARK    1  A    between atoms: C_4  and  O_7
REMARK    2  A    between atoms: O_7  and  C_8
REMARK    3  A    between atoms: C_8  and  C_9
REMARK    4  A    between atoms: C_15  and  N_18
REMARK                            x       y       z     vdW  Elec       q    Type
REMARK                         _______ _______ _______ _____ _____    ______ ____
ROOT
ATOM      1  C   UNL     1       4.932  -2.615  -0.061  0.00  0.00    +0.235 A 
ATOM      2  N   UNL     1       5.632  -2.900   0.996  0.00  0.00    -0.210 NA
ATOM      3  C   UNL     1       6.844  -3.378   0.605  0.00  0.00    +0.113 A 
ATOM      4  C   UNL     1       7.972  -3.830   1.294  0.00  0.00    +0.051 A 
ATOM      5  C   UNL     1       9.076  -4.263   0.592  0.00  0.00    +0.045 A 
ATOM      6  C   UNL     1       9.077  -4.254  -0.795  0.00  0.00    +0.046 A 
ATOM      7  C   UNL     1       7.966  -3.808  -1.493  0.00  0.00    +0.071 A 
ATOM      8  C   UNL     1       6.843  -3.368  -0.796  0.00  0.00    +0.176 A 
ATOM      9  O   UNL     1       5.634  -2.893  -1.171  0.00  0.00    -0.434 OA
ATOM     10 CL   UNL     1      10.477  -4.824   1.451  0.00  0.00    -0.083 Cl
ENDROOT
BRANCH   7  11
ATOM     11  N   UNL     1       7.972  -3.801  -2.891  0.00  0.00    -0.355 N 
ATOM     12  H   UNL     1       8.755  -4.108  -3.374  0.00  0.00    +0.142 HD
ATOM     13  H   UNL     1       7.193  -3.489  -3.378  0.00  0.00    +0.142 HD
ENDBRANCH   7  11
BRANCH   1  14
ATOM     14  C   UNL     1       3.531  -2.060  -0.044  0.00  0.00    +0.324 C 
BRANCH  14  15
ATOM     15  O   UNL     1       3.586  -0.632  -0.037  0.00  0.00    -0.483 OA
BRANCH  15  19
ATOM     16  C   UNL     1      -0.017   1.378   0.010  0.00  0.00    +0.000 A 
ATOM     17  C   UNL     1       1.170   2.088   0.002  0.00  0.00    +0.004 A 
ATOM     18  C   UNL     1       2.377   1.417  -0.013  0.00  0.00    +0.045 A 
ATOM     19  C   UNL     1       2.399   0.030  -0.021  0.00  0.00    +0.121 A 
ATOM     20  C   UNL     1       1.207  -0.680  -0.013  0.00  0.00    +0.045 A 
ATOM     21  C   UNL     1       0.002  -0.004   0.002  0.00  0.00    +0.004 A 
ENDBRANCH  15  19
ENDBRANCH  14  15
ENDBRANCH   1  14
TORSDOF 4
