REMARK  Name = ZINC13063753
REMARK  11 active torsions:
REMARK  status: ('A' for Active; 'I' for Inactive)
REMARK    1  A    between atoms: C_1  and  C_2
REMARK    2  A    between atoms: C_2  and  C_3
REMARK    3  A    between atoms: C_10  and  C_15
REMARK    4  A    between atoms: C_15  and  N_66
REMARK    5  A    between atoms: C_16  and  N_66
REMARK    6  A    between atoms: C_21  and  C_23
REMARK    7  A    between atoms: C_21  and  C_25
REMARK    8  A    between atoms: C_21  and  N_66
REMARK    9  A    between atoms: C_23  and  C_24
REMARK   10  A    between atoms: N_29  and  C_30
REMARK   11  A    between atoms: C_30  and  C_31
REMARK                            x       y       z     vdW  Elec       q    Type
REMARK                         _______ _______ _______ _____ _____    ______ ____
ROOT
ATOM      1  N   UNL     1      -1.000   1.455   1.603  0.00  0.00    +0.391 N 
ATOM      2  H   UNL     1      -1.132   2.421   1.924  0.00  0.00    -0.080 HD
ENDROOT
BRANCH   1   3
ATOM      3  C   UNL     1       0.224   1.386   0.779  0.00  0.00    -0.067 C 
ATOM      4  C   UNL     1       0.203   2.504  -0.292  0.00  0.00    -0.015 C 
ATOM      5  C   UNL     1       1.706   2.704  -0.608  0.00  0.00    -0.002 C 
ATOM      6  C   UNL     1       2.403   2.550   0.759  0.00  0.00    -0.002 C 
ATOM      7  C   UNL     1       1.461   1.711   1.641  0.00  0.00    -0.015 C 
ENDBRANCH   1   3
BRANCH   1   8
ATOM      8  C   UNL     1      -0.867   0.572   2.782  0.00  0.00    -0.036 C 
BRANCH   8  16
ATOM      9  C   UNL     1      -6.168   0.375   5.966  0.00  0.00    -0.047 A 
ATOM     10  C   UNL     1      -5.897   1.461   6.787  0.00  0.00    +0.005 A 
ATOM     11  C   UNL     1      -4.712   2.155   6.668  0.00  0.00    +0.026 A 
ATOM     12  C   UNL     1      -3.776   1.763   5.716  0.00  0.00    +0.049 A 
ATOM     13  C   UNL     1      -4.055   0.662   4.885  0.00  0.00    -0.001 A 
ATOM     14  C   UNL     1      -5.264  -0.027   5.024  0.00  0.00    +0.013 A 
ATOM     15  C   UNL     1      -3.066   0.261   3.883  0.00  0.00    +0.017 A 
ATOM     16  C   UNL     1      -1.908   0.962   3.798  0.00  0.00    +0.001 A 
ATOM     17  C   UNL     1      -1.678   2.060   4.656  0.00  0.00    +0.251 A 
ATOM     18  O   UNL     1      -0.633   2.680   4.560  0.00  0.00    -0.268 OA
ATOM     19  N   UNL     1      -2.583   2.438   5.575  0.00  0.00    -0.322 N 
ATOM     20  H   UNL     1      -2.392   3.197   6.149  0.00  0.00    +0.169 HD
BRANCH   9  22
ATOM     21  C   UNL     1      -7.300  -1.500   7.129  0.00  0.00    +0.009 C 
ATOM     22  C   UNL     1      -7.471  -0.367   6.115  0.00  0.00    +0.032 C 
ENDBRANCH   9  22
ENDBRANCH   8  16
ENDBRANCH   1   8
BRANCH   1  23
ATOM     23  C   UNL     1      -2.174   1.051   0.800  0.00  0.00    +0.003 C 
BRANCH  23  24
ATOM     24  C   UNL     1      -1.814  -0.084  -0.124  0.00  0.00    +0.139 A 
ATOM     25  N   UNL     1      -0.905  -0.066  -1.068  0.00  0.00    -0.115 NA
ATOM     26  N   UNL     1      -0.897  -1.223  -1.634  0.00  0.00    -0.023 NA
ATOM     27  N   UNL     1      -1.776  -1.979  -1.075  0.00  0.00    -0.044 NA
ATOM     28  N   UNL     1      -2.359  -1.314  -0.135  0.00  0.00    -0.223 N 
BRANCH  28  29
ATOM     29  C   UNL     1      -3.418  -1.805   0.750  0.00  0.00    +0.221 C 
BRANCH  29  30
ATOM     30  C   UNL     1      -4.762  -1.530   0.126  0.00  0.00    +0.126 A 
ATOM     31  C   UNL     1      -5.429  -2.354  -0.702  0.00  0.00    +0.046 A 
ATOM     32  C   UNL     1      -6.637  -1.704  -1.042  0.00  0.00    +0.041 A 
ATOM     33  C   UNL     1      -6.633  -0.518  -0.407  0.00  0.00    +0.195 A 
ATOM     34  O   UNL     1      -5.495  -0.418   0.299  0.00  0.00    -0.466 OA
ENDBRANCH  29  30
ENDBRANCH  28  29
ENDBRANCH  23  24
BRANCH  23  35
ATOM     35  C   UNL     1      -2.638   2.253  -0.025  0.00  0.00    -0.011 C 
ATOM     36  C   UNL     1      -3.031   3.395   0.915  0.00  0.00    +0.002 C 
ENDBRANCH  23  35
ENDBRANCH   1  23
TORSDOF 9
