REMARK  Name = ZINC17590400
REMARK  8 active torsions:
REMARK  status: ('A' for Active; 'I' for Inactive)
REMARK    1  A    between atoms: C_1  and  N_2
REMARK    2  A    between atoms: C_6  and  C_7
REMARK    3  A    between atoms: C_7  and  C_9
REMARK    4  A    between atoms: C_7  and  N_16
REMARK    5  A    between atoms: N_16  and  C_17
REMARK    6  A    between atoms: C_20  and  C_26
REMARK    7  A    between atoms: C_22  and  N_23
REMARK    8  A    between atoms: C_26  and  C_28
REMARK                            x       y       z     vdW  Elec       q    Type
REMARK                         _______ _______ _______ _____ _____    ______ ____
ROOT
ATOM      1  C   UNL     1      -1.616   0.690   1.615  0.00  0.00    +0.059 A 
ATOM      2  C   UNL     1      -2.052  -0.529   1.103  0.00  0.00    +0.026 A 
ATOM      3  C   UNL     1      -3.144  -1.147   1.643  0.00  0.00    +0.013 A 
ATOM      4  C   UNL     1      -3.831  -0.548   2.705  0.00  0.00    +0.025 A 
ATOM      5  C   UNL     1      -3.393   0.679   3.213  0.00  0.00    +0.046 A 
ATOM      6  C   UNL     1      -2.297   1.289   2.672  0.00  0.00    +0.148 A 
ENDROOT
BRANCH   6   7
ATOM      7  N   UNL     1      -1.832   2.587   3.210  0.00  0.00    +0.058 N 
ATOM      8  O   UNL     1      -2.357   3.058   4.203  0.00  0.00    -0.126 OA
ATOM      9  O   UNL     1      -0.925   3.185   2.659  0.00  0.00    -0.126 OA
ENDBRANCH   6   7
BRANCH   1  10
ATOM     10  N   UNL     1      -0.501   1.313   1.067  0.00  0.00    -0.329 N 
ATOM     11  H   UNL     1      -0.248   2.202   1.362  0.00  0.00    +0.147 HD
BRANCH  10  12
ATOM     12  C   UNL     1       0.291   0.629   0.043  0.00  0.00    +0.167 C 
BRANCH  12  13
ATOM     13  C   UNL     1       1.698   1.168   0.052  0.00  0.00    -0.020 A 
ATOM     14  C   UNL     1       1.918   2.522   0.219  0.00  0.00    +0.009 A 
ATOM     15  C   UNL     1       3.208   3.017   0.233  0.00  0.00    +0.038 A 
ATOM     16  C   UNL     1       4.281   2.157   0.070  0.00  0.00    +0.123 A 
ATOM     17  C   UNL     1       4.060   0.801  -0.102  0.00  0.00    +0.038 A 
ATOM     18  C   UNL     1       2.769   0.308  -0.111  0.00  0.00    +0.009 A 
ATOM     19  F   UNL     1       5.543   2.640   0.079  0.00  0.00    -0.205 F 
ENDBRANCH  12  13
BRANCH  12  25
ATOM     20  C   UNL     1      -0.186  -1.498  -2.159  0.00  0.00    +0.150 C 
ATOM     21  N   UNL     1      -0.528  -0.077  -2.259  0.00  0.00    -0.336 N 
ATOM     22  C   UNL     1      -1.110   0.545  -3.331  0.00  0.00    +0.106 A 
ATOM     23  C   UNL     1      -1.244   1.843  -3.001  0.00  0.00    +0.130 A 
ATOM     24  N   UNL     1      -0.763   2.009  -1.760  0.00  0.00    -0.238 NA
ATOM     25  C   UNL     1      -0.327   0.864  -1.312  0.00  0.00    +0.134 A 
ENDBRANCH  12  25
ENDBRANCH  10  12
ENDBRANCH   1  10
BRANCH   4  26
ATOM     26  C   UNL     1      -5.013  -1.209   3.286  0.00  0.00    +0.193 C 
ATOM     27  O   UNL     1      -5.253  -1.092   4.473  0.00  0.00    -0.287 OA
BRANCH  26  28
ATOM     28  C   UNL     1      -5.907  -2.014   2.428  0.00  0.00    +0.022 A 
ATOM     29  C   UNL     1      -5.728  -2.024   1.043  0.00  0.00    +0.012 A 
ATOM     30  C   UNL     1      -6.563  -2.780   0.248  0.00  0.00    +0.001 A 
ATOM     31  C   UNL     1      -7.583  -3.522   0.819  0.00  0.00    +0.000 A 
ATOM     32  C   UNL     1      -7.769  -3.513   2.190  0.00  0.00    +0.001 A 
ATOM     33  C   UNL     1      -6.938  -2.764   2.997  0.00  0.00    +0.012 A 
ENDBRANCH  26  28
ENDBRANCH   4  26
TORSDOF 7
