REMARK  Name = ZINC14742494
REMARK  8 active torsions:
REMARK  status: ('A' for Active; 'I' for Inactive)
REMARK    1  A    between atoms: C_1  and  C_2
REMARK    2  A    between atoms: C_2  and  N_3
REMARK    3  A    between atoms: C_6  and  C_8
REMARK    4  A    between atoms: C_17  and  N_67
REMARK    5  A    between atoms: C_21  and  C_22
REMARK    6  A    between atoms: C_21  and  N_67
REMARK    7  A    between atoms: C_22  and  C_23
REMARK    8  A    between atoms: C_22  and  C_29
REMARK                            x       y       z     vdW  Elec       q    Type
REMARK                         _______ _______ _______ _____ _____    ______ ____
ROOT
ATOM      1  N   UNL     1      -0.052  11.455   3.881  0.00  0.00    -0.268 N 
ATOM      2  C   UNL     1       0.172  10.309   3.219  0.00  0.00    +0.043 A 
ATOM      3  C   UNL     1       0.060  10.581   1.895  0.00  0.00    +0.004 A 
ATOM      4  C   UNL     1      -0.240  11.951   1.807  0.00  0.00    +0.151 A 
ATOM      5  N   UNL     1      -0.291  12.408   3.047  0.00  0.00    -0.166 NA
ATOM      6  C   UNL     1       0.233   9.569   0.797  0.00  0.00    +0.023 C 
ATOM      7  C   UNL     1       0.143   8.167   1.415  0.00  0.00    -0.067 C 
ATOM      8  C   UNL     1       1.065   8.086   2.635  0.00  0.00    -0.009 C 
ATOM      9  C   UNL     1       0.495   8.944   3.771  0.00  0.00    +0.054 C 
ENDROOT
BRANCH   4  10
ATOM     10  C   UNL     1      -0.456  12.729   0.571  0.00  0.00    +0.267 C 
ATOM     11  O   UNL     1      -0.480  12.165  -0.506  0.00  0.00    -0.268 OA
ATOM     12  N   UNL     1      -0.626  14.065   0.636  0.00  0.00    -0.292 N 
ATOM     13  C   UNL     1      -0.691  14.758   1.933  0.00  0.00    +0.136 C 
ATOM     14  C   UNL     1       0.294  15.937   1.896  0.00  0.00    +0.179 C 
ATOM     15  O   UNL     1       0.030  16.732   0.738  0.00  0.00    -0.377 OA
ATOM     16  C   UNL     1       0.225  16.045  -0.501  0.00  0.00    +0.179 C 
ATOM     17  C   UNL     1      -0.759  14.872  -0.587  0.00  0.00    +0.136 C 
ENDBRANCH   4  10
BRANCH   7  18
ATOM     18  N   UNL     1       0.562   7.169   0.414  0.00  0.00    +0.382 N 
ATOM     19  H   UNL     1       1.585   7.080   0.431  0.00  0.00    -0.085 HD
ATOM     20  H   UNL     1       0.262   7.477  -0.518  0.00  0.00    -0.085 HD
BRANCH  18  21
ATOM     21  C   UNL     1      -0.046   5.858   0.712  0.00  0.00    -0.069 C 
BRANCH  21  22
ATOM     22  C   UNL     1       0.406   4.845  -0.342  0.00  0.00    +0.032 C 
BRANCH  22  23
ATOM     23  C   UNL     1      -0.110   3.477   0.024  0.00  0.00    -0.042 A 
ATOM     24  C   UNL     1       0.758   2.403   0.080  0.00  0.00    +0.004 A 
ATOM     25  C   UNL     1       0.285   1.148   0.415  0.00  0.00    +0.000 A 
ATOM     26  C   UNL     1      -1.057   0.967   0.694  0.00  0.00    +0.000 A 
ATOM     27  C   UNL     1      -1.926   2.040   0.632  0.00  0.00    +0.000 A 
ATOM     28  C   UNL     1      -1.452   3.296   0.302  0.00  0.00    +0.004 A 
ENDBRANCH  22  23
BRANCH  22  29
ATOM     29  C   UNL     1      -0.138   5.244  -1.689  0.00  0.00    -0.042 A 
ATOM     30  C   UNL     1       0.711   5.346  -2.775  0.00  0.00    +0.004 A 
ATOM     31  C   UNL     1       0.211   5.708  -4.012  0.00  0.00    +0.000 A 
ATOM     32  C   UNL     1      -1.137   5.977  -4.160  0.00  0.00    +0.000 A 
ATOM     33  C   UNL     1      -1.985   5.879  -3.073  0.00  0.00    +0.000 A 
ATOM     34  C   UNL     1      -1.486   5.513  -1.838  0.00  0.00    +0.004 A 
ENDBRANCH  22  29
ENDBRANCH  21  22
ENDBRANCH  18  21
ENDBRANCH   7  18
BRANCH   1  36
ATOM     35  C   UNL     1      -1.429  11.347   5.900  0.00  0.00    +0.029 C 
ATOM     36  C   UNL     1      -0.028  11.602   5.339  0.00  0.00    +0.140 C 
ENDBRANCH   1  36
TORSDOF 7
