REMARK  Name = ZINC08948537
REMARK  10 active torsions:
REMARK  status: ('A' for Active; 'I' for Inactive)
REMARK    1  A    between atoms: C_1  and  C_2
REMARK    2  A    between atoms: C_8  and  N_10
REMARK    3  A    between atoms: C_14  and  C_16
REMARK    4  A    between atoms: C_16  and  N_17
REMARK    5  A    between atoms: C_20  and  C_24
REMARK    6  A    between atoms: C_20  and  C_25
REMARK    7  A    between atoms: C_28  and  C_31
REMARK    8  A    between atoms: C_31  and  C_32
REMARK    9  A    between atoms: C_31  and  C_33
REMARK   10  A    between atoms: C_31  and  C_34
REMARK                            x       y       z     vdW  Elec       q    Type
REMARK                         _______ _______ _______ _____ _____    ______ ____
ROOT
ATOM      1  N   UNL     1      -0.698   1.558   1.213  0.00  0.00    -0.215 N 
ATOM      2  C   UNL     1      -1.684   0.883   1.837  0.00  0.00    +0.251 C 
ATOM      3  O   UNL     1      -2.153  -0.188   1.519  0.00  0.00    -0.272 OA
ATOM      4  C   UNL     1      -2.084   1.743   3.020  0.00  0.00    +0.135 C 
ATOM      5  N   UNL     1      -1.194   2.912   2.915  0.00  0.00    -0.281 N 
ATOM      6  C   UNL     1      -0.420   2.710   1.834  0.00  0.00    +0.310 C 
ATOM      7  O   UNL     1       0.435   3.489   1.460  0.00  0.00    -0.252 OA
ATOM      8  C   UNL     1      -3.549   2.170   2.905  0.00  0.00    +0.047 C 
ATOM      9  H   UNL     1      -1.169   3.676   3.512  0.00  0.00    +0.152 HD
ENDROOT
BRANCH   4  10
ATOM     10  C   UNL     1      -1.845   1.008   4.314  0.00  0.00    -0.015 A 
ATOM     11  C   UNL     1      -1.941  -0.370   4.354  0.00  0.00    +0.006 A 
ATOM     12  C   UNL     1      -1.718  -1.044   5.541  0.00  0.00    +0.004 A 
ATOM     13  C   UNL     1      -1.407  -0.339   6.688  0.00  0.00    -0.042 A 
ATOM     14  C   UNL     1      -1.315   1.040   6.649  0.00  0.00    +0.004 A 
ATOM     15  C   UNL     1      -1.535   1.714   5.462  0.00  0.00    +0.006 A 
BRANCH  13  16
ATOM     16  C   UNL     1      -1.168  -1.073   7.982  0.00  0.00    -0.013 C 
ATOM     17  C   UNL     1      -2.182  -0.605   9.029  0.00  0.00    +0.015 C 
ATOM     18  C   UNL     1      -1.329  -2.577   7.753  0.00  0.00    +0.015 C 
ATOM     19  C   UNL     1       0.249  -0.782   8.480  0.00  0.00    +0.015 C 
ENDBRANCH  13  16
ENDBRANCH   4  10
BRANCH   1  20
ATOM     20  C   UNL     1      -0.013   1.086   0.008  0.00  0.00    +0.214 C 
BRANCH  20  25
ATOM     21  N   UNL     1      -0.487   1.406  -4.765  0.00  0.00    -0.296 N 
ATOM     22  C   UNL     1      -0.940   1.719  -3.535  0.00  0.00    +0.306 C 
ATOM     23  O   UNL     1      -1.937   2.403  -3.410  0.00  0.00    -0.252 OA
ATOM     24  N   UNL     1      -0.288   1.272  -2.443  0.00  0.00    -0.239 N 
ATOM     25  C   UNL     1      -0.742   1.585  -1.213  0.00  0.00    +0.238 C 
ATOM     26  O   UNL     1      -1.736   2.268  -1.089  0.00  0.00    -0.274 OA
ATOM     27  H   UNL     1       0.308   0.860  -4.865  0.00  0.00    +0.151 HD
ATOM     28  H   UNL     1       0.507   0.726  -2.543  0.00  0.00    +0.159 HD
BRANCH  21  35
ATOM     29  C   UNL     1      -1.398  -0.454  -6.790  0.00  0.00    +0.009 C 
ATOM     30  C   UNL     1      -0.915   0.958  -7.131  0.00  0.00    +0.006 C 
ATOM     31  C   UNL     1       0.589   0.928  -7.411  0.00  0.00    +0.005 C 
ATOM     32  C   UNL     1       1.072   2.339  -7.752  0.00  0.00    +0.000 C 
ATOM     33  C   UNL     1       0.791   3.273  -6.573  0.00  0.00    +0.002 C 
ATOM     34  C   UNL     1      -0.713   3.303  -6.293  0.00  0.00    +0.022 C 
ATOM     35  C   UNL     1      -1.196   1.891  -5.952  0.00  0.00    +0.077 C 
ENDBRANCH  21  35
ENDBRANCH  20  25
ENDBRANCH   1  20
TORSDOF 5
