REMARK  Name = ZINC34971917
REMARK  9 active torsions:
REMARK  status: ('A' for Active; 'I' for Inactive)
REMARK    1  A    between atoms: C_4  and  N_7
REMARK    2  A    between atoms: N_7  and  C_8
REMARK    3  A    between atoms: N_7  and  S_24
REMARK    4  A    between atoms: C_8  and  C_9
REMARK    5  A    between atoms: C_9  and  N_10
REMARK    6  A    between atoms: N_10  and  S_11
REMARK    7  A    between atoms: S_11  and  C_14
REMARK    8  A    between atoms: C_18  and  N_20
REMARK    9  A    between atoms: S_24  and  C_27
REMARK                            x       y       z     vdW  Elec       q    Type
REMARK                         _______ _______ _______ _____ _____    ______ ____
ROOT
ATOM      1  C   UNL     1       4.129  -2.272   0.389  0.00  0.00    +0.148 C 
ENDROOT
BRANCH   1   2
ATOM      2  N   UNL     1       3.803  -0.900  -0.006  0.00  0.00    -0.202 N 
BRANCH   2   6
ATOM      3  C   UNL     1       0.017   0.648   0.771  0.00  0.00    +0.000 A 
ATOM      4  C   UNL     1       1.099   1.500   0.651  0.00  0.00    +0.002 A 
ATOM      5  C   UNL     1       2.356   0.990   0.394  0.00  0.00    +0.025 A 
ATOM      6  C   UNL     1       2.533  -0.381   0.255  0.00  0.00    +0.051 A 
ATOM      7  C   UNL     1       1.444  -1.234   0.376  0.00  0.00    +0.025 A 
ATOM      8  C   UNL     1       0.189  -0.718   0.634  0.00  0.00    +0.002 A 
ENDBRANCH   2   6
BRANCH   2   9
ATOM      9  S   UNL     1       4.941   0.036  -0.763  0.00  0.00    +0.075 S 
ATOM     10  O   UNL     1       5.840  -0.857  -1.404  0.00  0.00    -0.150 OA
ATOM     11  O   UNL     1       4.232   1.043  -1.472  0.00  0.00    -0.150 OA
BRANCH   9  12
ATOM     12  C   UNL     1       5.859   0.859   0.496  0.00  0.00    +0.109 A 
ATOM     13  C   UNL     1       5.521   2.146   0.869  0.00  0.00    +0.029 A 
ATOM     14  C   UNL     1       6.242   2.791   1.856  0.00  0.00    +0.002 A 
ATOM     15  C   UNL     1       7.300   2.149   2.471  0.00  0.00    +0.000 A 
ATOM     16  C   UNL     1       7.638   0.862   2.098  0.00  0.00    +0.002 A 
ATOM     17  C   UNL     1       6.915   0.215   1.114  0.00  0.00    +0.029 A 
ENDBRANCH   9  12
ENDBRANCH   2   9
ENDBRANCH   1   2
BRANCH   1  18
ATOM     18  C   UNL     1       3.670  -3.240  -0.703  0.00  0.00    +0.126 C 
BRANCH  18  19
ATOM     19  N   UNL     1       3.995  -4.613  -0.308  0.00  0.00    -0.188 NA
ATOM     20  H   UNL     1       4.619  -4.774   0.417  0.00  0.00    +0.148 HD
BRANCH  19  21
ATOM     21  S   UNL     1       3.299  -5.890  -1.099  0.00  0.00    +0.059 S 
ATOM     22  O   UNL     1       3.829  -7.070  -0.511  0.00  0.00    -0.153 OA
ATOM     23  O   UNL     1       1.904  -5.624  -1.150  0.00  0.00    -0.153 OA
BRANCH  21  24
ATOM     24  C   UNL     1       3.879  -5.852  -2.762  0.00  0.00    +0.107 A 
ATOM     25  C   UNL     1       3.185  -5.137  -3.720  0.00  0.00    +0.030 A 
ATOM     26  C   UNL     1       3.640  -5.106  -5.025  0.00  0.00    +0.024 A 
ATOM     27  C   UNL     1       4.791  -5.791  -5.372  0.00  0.00    +0.071 A 
ATOM     28  C   UNL     1       5.486  -6.506  -4.413  0.00  0.00    +0.146 A 
ATOM     29  C   UNL     1       5.032  -6.532  -3.107  0.00  0.00    +0.062 A 
ATOM     30 CL   UNL     1       5.363  -5.753  -7.011  0.00  0.00    -0.081 Cl
BRANCH  28  31
ATOM     31  N   UNL     1       6.717  -7.238  -4.784  0.00  0.00    +0.058 N 
ATOM     32  O   UNL     1       7.324  -7.863  -3.945  0.00  0.00    -0.126 OA
ATOM     33  O   UNL     1       7.116  -7.212  -5.925  0.00  0.00    -0.126 OA
ENDBRANCH  28  31
ENDBRANCH  21  24
ENDBRANCH  19  21
ENDBRANCH  18  19
ENDBRANCH   1  18
TORSDOF 9
