REMARK  Name = ZINC09129171
REMARK  8 active torsions:
REMARK  status: ('A' for Active; 'I' for Inactive)
REMARK    1  A    between atoms: C_1  and  C_2
REMARK    2  A    between atoms: C_2  and  N_61
REMARK    3  A    between atoms: C_15  and  C_17
REMARK    4  A    between atoms: C_18  and  O_35
REMARK    5  A    between atoms: N_23  and  C_26
REMARK    6  A    between atoms: C_27  and  C_34
REMARK    7  A    between atoms: C_29  and  C_33
REMARK    8  A    between atoms: C_31  and  C_32
REMARK                            x       y       z     vdW  Elec       q    Type
REMARK                         _______ _______ _______ _____ _____    ______ ____
ROOT
ATOM      1  C   UNL     1      -1.147  -2.191   0.704  0.00  0.00    +0.069 A 
ATOM      2  C   UNL     1      -1.245  -3.427   0.137  0.00  0.00    +0.201 A 
ATOM      3  N   UNL     1      -1.108  -4.543   0.924  0.00  0.00    -0.278 N 
ATOM      4  H   UNL     1      -1.173  -5.424   0.525  0.00  0.00    +0.173 HD
ATOM      5  C   UNL     1      -0.890  -4.422   2.246  0.00  0.00    +0.337 A 
ATOM      6  O   UNL     1      -0.776  -5.422   2.928  0.00  0.00    -0.246 OA
ATOM      7  N   UNL     1      -0.796  -3.210   2.824  0.00  0.00    -0.228 N 
ATOM      8  C   UNL     1      -0.919  -2.089   2.087  0.00  0.00    +0.267 A 
ATOM      9  O   UNL     1      -0.834  -0.994   2.616  0.00  0.00    -0.267 OA
ENDROOT
BRANCH   1  22
ATOM     10  C   UNL     1      -2.362   1.227  -0.241  0.00  0.00    -0.073 C 
ATOM     11  C   UNL     1      -1.124   2.037   0.162  0.00  0.00    +0.019 C 
ATOM     12  C   UNL     1       0.087   1.154  -0.006  0.00  0.00    -0.022 A 
ATOM     13  C   UNL     1       1.486   1.516  -0.057  0.00  0.00    +0.003 A 
ATOM     14  C   UNL     1       2.155   2.740   0.034  0.00  0.00    +0.010 A 
ATOM     15  C   UNL     1       3.525   2.708  -0.058  0.00  0.00    +0.001 A 
ATOM     16  C   UNL     1       4.223   1.524  -0.233  0.00  0.00    +0.002 A 
ATOM     17  C   UNL     1       3.587   0.299  -0.326  0.00  0.00    +0.026 A 
ATOM     18  C   UNL     1       2.197   0.301  -0.235  0.00  0.00    +0.047 A 
ATOM     19  N   UNL     1       1.276  -0.707  -0.286  0.00  0.00    -0.359 N 
ATOM     20  H   UNL     1       1.483  -1.647  -0.402  0.00  0.00    +0.166 HD
ATOM     21  C   UNL     1       0.016  -0.189  -0.147  0.00  0.00    +0.011 A 
ATOM     22  C   UNL     1      -1.288  -0.950  -0.141  0.00  0.00    +0.021 C 
ATOM     23  N   UNL     1      -2.326  -0.077   0.457  0.00  0.00    +0.388 N 
ATOM     24  H   UNL     1      -2.099   0.081   1.446  0.00  0.00    -0.080 HD
BRANCH  23  26
ATOM     25  C   UNL     1      -4.082  -0.876  -1.091  0.00  0.00    -0.017 C 
ATOM     26  C   UNL     1      -3.648  -0.733   0.369  0.00  0.00    -0.081 C 
ENDBRANCH  23  26
ENDBRANCH   1  22
BRANCH   7  27
ATOM     27  C   UNL     1      -0.568  -3.114   4.204  0.00  0.00    +0.060 A 
ATOM     28  C   UNL     1       0.731  -3.071   4.693  0.00  0.00    -0.026 A 
ATOM     29  C   UNL     1       0.952  -2.971   6.052  0.00  0.00    +0.008 A 
ATOM     30  C   UNL     1      -0.118  -2.925   6.927  0.00  0.00    -0.050 A 
ATOM     31  C   UNL     1      -1.412  -2.973   6.443  0.00  0.00    +0.008 A 
ATOM     32  C   UNL     1      -1.640  -3.068   5.084  0.00  0.00    -0.026 A 
ATOM     33  C   UNL     1      -3.051  -3.121   4.558  0.00  0.00    +0.046 C 
ATOM     34  C   UNL     1       0.127  -2.822   8.411  0.00  0.00    +0.044 C 
ATOM     35  C   UNL     1       1.898  -3.127   3.741  0.00  0.00    +0.046 C 
ENDBRANCH   7  27
BRANCH   2  36
ATOM     36  O   UNL     1      -1.470  -3.552  -1.188  0.00  0.00    -0.493 OA
ATOM     37  H   UNL     1      -1.522  -4.468  -1.493  0.00  0.00    +0.294 HD
ENDBRANCH   2  36
TORSDOF 4
