REMARK  Name = ZINC39530813
REMARK  8 active torsions:
REMARK  status: ('A' for Active; 'I' for Inactive)
REMARK    1  A    between atoms: C_1  and  C_2
REMARK    2  A    between atoms: C_2  and  C_3
REMARK    3  A    between atoms: C_2  and  S_4
REMARK    4  A    between atoms: S_4  and  C_7
REMARK    5  A    between atoms: C_12  and  N_13
REMARK    6  A    between atoms: C_17  and  S_20
REMARK    7  A    between atoms: S_20  and  O_23
REMARK    8  A    between atoms: O_23  and  C_24
REMARK                            x       y       z     vdW  Elec       q    Type
REMARK                         _______ _______ _______ _____ _____    ______ ____
ROOT
ATOM      1  N   UNL     1      -0.266  -2.227  -2.065  0.00  0.00    -0.330 N 
ATOM      2  C   UNL     1       1.122  -1.741  -2.075  0.00  0.00    +0.086 C 
ATOM      3  C   UNL     1       1.757  -2.112  -3.419  0.00  0.00    -0.061 C 
ATOM      4  N   UNL     1       0.925  -1.593  -4.512  0.00  0.00    +0.398 N 
ATOM      5  C   UNL     1      -0.387  -2.253  -4.499  0.00  0.00    +0.133 C 
ATOM      6  C   UNL     1      -1.126  -1.894  -3.211  0.00  0.00    +0.115 C 
ATOM      7  H   UNL     1       0.801  -0.598  -4.396  0.00  0.00    -0.083 HD
ATOM      8  H   UNL     1       1.381  -1.771  -5.394  0.00  0.00    -0.083 HD
ENDROOT
BRANCH   1  14
ATOM      9  C   UNL     1      -1.238  -2.362   0.141  0.00  0.00    +0.111 A 
ATOM     10  C   UNL     1      -1.724  -3.117   1.190  0.00  0.00    +0.048 A 
ATOM     11  C   UNL     1      -1.722  -4.499   1.108  0.00  0.00    +0.043 A 
ATOM     12  C   UNL     1      -1.234  -5.127  -0.024  0.00  0.00    +0.022 A 
ATOM     13  C   UNL     1      -0.747  -4.376  -1.076  0.00  0.00    +0.026 A 
ATOM     14  C   UNL     1      -0.753  -2.989  -0.999  0.00  0.00    +0.055 A 
ATOM     15 CL   UNL     1      -2.333  -5.445   2.429  0.00  0.00    -0.083 Cl
BRANCH   9  16
ATOM     16  S   UNL     1      -1.241  -0.603   0.245  0.00  0.00    +0.001 S 
ATOM     17  O   UNL     1      -2.484  -0.278   0.852  0.00  0.00    -0.169 OA
ATOM     18  O   UNL     1      -0.939  -0.161  -1.071  0.00  0.00    -0.169 OA
BRANCH  16  20
ATOM     19  C   UNL     1       0.260   1.319   1.483  0.00  0.00    +0.032 C 
ATOM     20  C   UNL     1       0.126  -0.200   1.368  0.00  0.00    +0.130 C 
ATOM     21  C   UNL     1      -0.158  -0.793   2.750  0.00  0.00    +0.032 C 
ENDBRANCH  16  20
ENDBRANCH   9  16
ENDBRANCH   1  14
BRANCH   5  22
ATOM     22  S   UNL     1      -1.356  -1.701  -5.929  0.00  0.00    +0.109 S 
ATOM     23  O   UNL     1      -2.553  -2.459  -6.032  0.00  0.00    -0.138 OA
ATOM     24  O   UNL     1      -1.392  -0.281  -5.978  0.00  0.00    -0.138 OA
BRANCH  22  25
ATOM     25  O   UNL     1      -0.532  -2.110  -7.142  0.00  0.00    -0.347 OA
BRANCH  25  26
ATOM     26  C   UNL     1      -0.573  -3.441  -7.414  0.00  0.00    +0.156 A 
ATOM     27  C   UNL     1       0.357  -4.296  -6.842  0.00  0.00    +0.048 A 
ATOM     28  C   UNL     1       0.313  -5.648  -7.120  0.00  0.00    +0.004 A 
ATOM     29  C   UNL     1      -0.656  -6.150  -7.968  0.00  0.00    +0.000 A 
ATOM     30  C   UNL     1      -1.584  -5.299  -8.541  0.00  0.00    +0.004 A 
ATOM     31  C   UNL     1      -1.548  -3.947  -8.261  0.00  0.00    +0.048 A 
ENDBRANCH  25  26
ENDBRANCH  22  25
ENDBRANCH   5  22
TORSDOF 6
