REMARK  Name = ZINC40557081
REMARK  6 active torsions:
REMARK  status: ('A' for Active; 'I' for Inactive)
REMARK    1  A    between atoms: C_1  and  C_2
REMARK    2  A    between atoms: C_7  and  N_12
REMARK    3  A    between atoms: C_9  and  C_11
REMARK    4  A    between atoms: N_15  and  CA_16
REMARK    5  A    between atoms: CA_16  and  CB_18
REMARK    6  A    between atoms: CA_16  and  C_19
REMARK                            x       y       z     vdW  Elec       q    Type
REMARK                         _______ _______ _______ _____ _____    ______ ____
ROOT
ATOM      1  N   UNK A   0       1.471  -2.526   2.420  0.00  0.00    -0.296 N 
ATOM      2  C   UNK A   0       2.056  -3.740   2.406  0.00  0.00    +0.300 C 
ATOM      3  O   UNK A   0       1.996  -4.433   1.409  0.00  0.00    -0.253 OA
ATOM      4  N   ALA A   1       2.708  -4.187   3.498  0.00  0.00    -0.286 N 
ATOM      5  H   UNK A   0       1.520  -1.974   3.216  0.00  0.00    +0.151 HD
ATOM      6  H   ALA A   1       2.756  -3.634   4.294  0.00  0.00    +0.151 HD
ENDROOT
BRANCH   1  12
ATOM      7  C   UNK A   0      -0.019   1.526   0.010  0.00  0.00    +0.008 C 
ATOM      8  C   UNK A   0       0.002  -0.004   0.002  0.00  0.00    -0.009 C 
ATOM      9  C   UNK A   0      -1.433  -0.534   0.013  0.00  0.00    +0.003 C 
ATOM     10  C   UNK A   0      -1.413  -2.063   0.004  0.00  0.00    +0.002 C 
ATOM     11  C   UNK A   0      -0.673  -2.570   1.244  0.00  0.00    +0.022 C 
ATOM     12  C   UNK A   0       0.763  -2.041   1.233  0.00  0.00    +0.078 C 
ATOM     13  C   UNK A   0       0.742  -0.511   1.242  0.00  0.00    +0.009 C 
ATOM     14  C   UNK A   0       0.026  -0.018   2.500  0.00  0.00    +0.009 C 
ENDBRANCH   1  12
BRANCH   4  15
ATOM     15  CA  ALA A   1       3.344  -5.506   3.483  0.00  0.00    +0.184 C 
ATOM     16  CB  ALA A   1       4.744  -5.391   2.875  0.00  0.00    +0.040 C 
BRANCH  15  17
ATOM     17  C   ALA A   1       3.450  -6.029   4.892  0.00  0.00    +0.376 C 
ATOM     18  O   ALA A   1       3.033  -5.361   5.823  0.00  0.00    -0.244 OA
ATOM     19  OXT ALA A   1       3.953  -7.120   5.102  0.00  0.00    -0.244 OA
ENDBRANCH  15  17
ENDBRANCH   4  15
TORSDOF 3
