REMARK  Name = ZINC20616203
REMARK  8 active torsions:
REMARK  status: ('A' for Active; 'I' for Inactive)
REMARK    1  A    between atoms: C_1  and  C_2
REMARK    2  A    between atoms: C_2  and  O_3
REMARK    3  A    between atoms: O_3  and  C_4
REMARK    4  A    between atoms: C_7  and  C_27
REMARK    5  A    between atoms: C_9  and  C_10
REMARK    6  A    between atoms: C_10  and  N_11
REMARK    7  A    between atoms: N_28  and  N_29
REMARK    8  A    between atoms: C_30  and  C_32
REMARK                            x       y       z     vdW  Elec       q    Type
REMARK                         _______ _______ _______ _____ _____    ______ ____
ROOT
ATOM      1  C   UNL     1      -4.271  -0.885   1.458  0.00  0.00    +0.122 A 
ATOM      2  C   UNL     1      -4.372  -2.260   1.625  0.00  0.00    +0.046 A 
ATOM      3  C   UNL     1      -4.605  -3.073   0.536  0.00  0.00    +0.013 A 
ATOM      4  C   UNL     1      -4.739  -2.511  -0.736  0.00  0.00    -0.005 A 
ATOM      5  C   UNL     1      -4.641  -1.127  -0.898  0.00  0.00    +0.014 A 
ATOM      6  C   UNL     1      -4.403  -0.322   0.195  0.00  0.00    -0.022 A 
ENDROOT
BRANCH   4   7
ATOM      7  C   UNL     1      -4.987  -3.376  -1.904  0.00  0.00    +0.138 C 
ATOM      8  N   UNL     1      -5.083  -4.662  -1.750  0.00  0.00    -0.187 NA
BRANCH   8   9
ATOM      9  N   UNL     1      -5.320  -5.484  -2.860  0.00  0.00    -0.203 N 
ATOM     10  C   UNL     1      -5.419  -6.819  -2.700  0.00  0.00    +0.263 C 
ATOM     11  O   UNL     1      -5.303  -7.309  -1.594  0.00  0.00    -0.268 OA
ATOM     12  H   UNL     1      -5.425  -5.040  -3.861  0.00  0.00    +0.178 HD
BRANCH  10  13
ATOM     13  C   UNL     1      -5.668  -7.686  -3.871  0.00  0.00    +0.041 A 
ATOM     14  C   UNL     1      -5.808  -7.125  -5.142  0.00  0.00    +0.013 A 
ATOM     15  C   UNL     1      -6.037  -7.939  -6.231  0.00  0.00    +0.004 A 
ATOM     16  C   UNL     1      -6.138  -9.309  -6.067  0.00  0.00    +0.038 A 
ATOM     17  C   UNL     1      -6.005  -9.873  -4.808  0.00  0.00    +0.124 A 
ATOM     18  C   UNL     1      -5.771  -9.068  -3.709  0.00  0.00    +0.051 A 
ATOM     19  F   UNL     1      -6.106 -11.212  -4.654  0.00  0.00    -0.205 F 
ENDBRANCH  10  13
ENDBRANCH   8   9
ENDBRANCH   4   7
BRANCH   1  20
ATOM     20  O   UNL     1      -4.042  -0.087   2.534  0.00  0.00    -0.492 OA
BRANCH  20  22
ATOM     21  C   UNL     1      -3.662   0.320   4.886  0.00  0.00    +0.048 C 
ATOM     22  C   UNL     1      -3.916  -0.731   3.804  0.00  0.00    +0.225 C 
ENDBRANCH  20  22
ENDBRANCH   1  20
BRANCH   6  23
ATOM     23  C   UNL     1      -4.292   1.171   0.021  0.00  0.00    -0.039 C 
BRANCH  23  24
ATOM     24  N   UNL     1      -2.875   1.558   0.006  0.00  0.00    +0.383 N 
ATOM     25  C   UNL     1      -2.203   1.140   1.240  0.00  0.00    -0.073 C 
ATOM     26  C   UNL     1      -0.748   1.589   1.253  0.00  0.00    -0.007 C 
ATOM     27  C   UNL     1      -0.013   1.086   0.008  0.00  0.00    +0.011 C 
ATOM     28  C   UNL     1      -0.773   1.603  -1.219  0.00  0.00    +0.020 C 
ATOM     29  C   UNL     1      -2.194   1.016  -1.180  0.00  0.00    -0.069 C 
ATOM     30  C   UNL     1      -0.901   3.107  -1.127  0.00  0.00    +0.023 A 
ATOM     31  C   UNL     1      -1.021   3.795  -2.293  0.00  0.00    +0.022 A 
ATOM     32  C   UNL     1      -1.206   5.182  -2.285  0.00  0.00    +0.007 A 
ATOM     33  C   UNL     1      -1.283   5.829  -1.086  0.00  0.00    +0.070 A 
ATOM     34  C   UNL     1      -1.152   5.090   0.099  0.00  0.00    +0.251 A 
ATOM     35  O   UNL     1      -1.265   5.651   1.177  0.00  0.00    -0.268 OA
ATOM     36  N   UNL     1      -0.901   3.757   0.061  0.00  0.00    -0.312 N 
ATOM     37  C   UNL     1      -0.621   3.100   1.338  0.00  0.00    +0.126 C 
ATOM     38  H   UNL     1      -2.824   2.655  -0.047  0.00  0.00    -0.081 HD
ENDBRANCH  23  24
ENDBRANCH   6  23
TORSDOF 7
