REMARK  Name = ZINC63279750
REMARK  9 active torsions:
REMARK  status: ('A' for Active; 'I' for Inactive)
REMARK    1  A    between atoms: C_1  and  C_2
REMARK    2  A    between atoms: C_2  and  C_4
REMARK    3  A    between atoms: C_2  and  N_14
REMARK    4  A    between atoms: C_4  and  C_5
REMARK    5  A    between atoms: C_15  and  C_17
REMARK    6  A    between atoms: C_17  and  C_19
REMARK    7  A    between atoms: C_17  and  N_22
REMARK    8  A    between atoms: C_19  and  C_20
REMARK    9  A    between atoms: C_19  and  C_21
REMARK                            x       y       z     vdW  Elec       q    Type
REMARK                         _______ _______ _______ _____ _____    ______ ____
ROOT
ATOM      1  N   UNL     1       1.400   0.153  -1.504  0.00  0.00    -0.311 N 
ATOM      2  C   UNL     1       2.502  -0.618  -1.585  0.00  0.00    +0.236 C 
ATOM      3  O   UNL     1       3.085  -0.950  -0.574  0.00  0.00    -0.274 OA
ATOM      4  H   UNL     1       0.950   0.441  -2.314  0.00  0.00    +0.149 HD
ENDROOT
BRANCH   1   6
ATOM      5  C   UNL     1       1.263   2.015   0.076  0.00  0.00    +0.028 C 
ATOM      6  C   UNL     1       0.883   0.557  -0.195  0.00  0.00    +0.074 C 
BRANCH   6   7
ATOM      7  C   UNL     1      -0.641   0.417  -0.183  0.00  0.00    +0.055 C 
BRANCH   7   8
ATOM      8  C   UNL     1      -1.010  -1.044  -0.175  0.00  0.00    -0.040 C 
ATOM      9  C   UNL     1      -1.292  -1.806   0.907  0.00  0.00    -0.001 A 
ATOM     10  C   UNL     1      -1.337  -1.513   2.345  0.00  0.00    +0.010 A 
ATOM     11  C   UNL     1      -1.658  -2.505   3.206  0.00  0.00    +0.001 A 
ATOM     12  C   UNL     1      -1.948  -3.802   2.762  0.00  0.00    +0.002 A 
ATOM     13  C   UNL     1      -1.928  -4.147   1.457  0.00  0.00    +0.026 A 
ATOM     14  C   UNL     1      -1.604  -3.183   0.463  0.00  0.00    +0.043 A 
ATOM     15  N   UNL     1      -1.517  -3.270  -0.842  0.00  0.00    -0.380 N 
ATOM     16  C   UNL     1      -1.147  -1.954  -1.375  0.00  0.00    +0.144 C 
ATOM     17  H   UNL     1      -1.676  -4.069  -1.368  0.00  0.00    +0.160 HD
ENDBRANCH   7   8
ENDBRANCH   6   7
ENDBRANCH   1   6
BRANCH   2  18
ATOM     18  C   UNL     1       3.010  -1.069  -2.930  0.00  0.00    +0.183 C 
BRANCH  18  19
ATOM     19  N   UNL     1       4.327  -1.692  -2.771  0.00  0.00    -0.205 N 
ATOM     20  C   UNL     1       5.391  -1.156  -3.414  0.00  0.00    +0.264 C 
ATOM     21  O   UNL     1       5.292  -0.119  -4.040  0.00  0.00    -0.269 OA
ATOM     22  C   UNL     1       6.675  -1.878  -3.326  0.00  0.00    +0.060 A 
ATOM     23  C   UNL     1       7.883  -1.322  -3.727  0.00  0.00    +0.015 A 
ATOM     24  C   UNL     1       9.040  -2.068  -3.614  0.00  0.00    +0.001 A 
ATOM     25  C   UNL     1       9.000  -3.358  -3.107  0.00  0.00    +0.002 A 
ATOM     26  C   UNL     1       7.803  -3.921  -2.704  0.00  0.00    +0.025 A 
ATOM     27  C   UNL     1       6.637  -3.188  -2.808  0.00  0.00    +0.055 A 
ATOM     28  N   UNL     1       5.396  -3.677  -2.418  0.00  0.00    -0.264 N 
ATOM     29  N   UNL     1       4.449  -2.790  -1.977  0.00  0.00    -0.157 NA
ATOM     30  H   UNL     1       5.206  -4.627  -2.455  0.00  0.00    +0.168 HD
ATOM     31  H   UNL     1       4.615  -2.525  -1.018  0.00  0.00    +0.168 HD
ENDBRANCH  18  19
BRANCH  18  32
ATOM     32  C   UNL     1       2.035  -2.084  -3.530  0.00  0.00    +0.014 C 
ATOM     33  C   UNL     1       1.798  -3.216  -2.528  0.00  0.00    +0.009 C 
ATOM     34  C   UNL     1       0.706  -1.392  -3.841  0.00  0.00    +0.009 C 
ENDBRANCH  18  32
ENDBRANCH   2  18
TORSDOF 6
