REMARK  Name = ZINC09969891
REMARK  7 active torsions:
REMARK  status: ('A' for Active; 'I' for Inactive)
REMARK    1  A    between atoms: C_1  and  C_2
REMARK    2  A    between atoms: C_8  and  N_10
REMARK    3  A    between atoms: C_11  and  C_13
REMARK    4  A    between atoms: C_13  and  N_14
REMARK    5  A    between atoms: C_17  and  S_25
REMARK    6  A    between atoms: S_25  and  N_28
REMARK    7  A    between atoms: C_31  and  C_34
REMARK                            x       y       z     vdW  Elec       q    Type
REMARK                         _______ _______ _______ _____ _____    ______ ____
ROOT
ATOM      1  N   UNL     1       0.984   0.635   5.955  0.00  0.00    -0.261 N 
ATOM      2  C   UNL     1       1.115  -0.515   6.729  0.00  0.00    +0.052 A 
ATOM      3  C   UNL     1       0.739  -1.744   6.197  0.00  0.00    +0.053 A 
ATOM      4  C   UNL     1       0.858  -2.894   6.953  0.00  0.00    +0.107 A 
ATOM      5  C   UNL     1       1.351  -2.837   8.243  0.00  0.00    +0.030 A 
ATOM      6  C   UNL     1       1.731  -1.622   8.784  0.00  0.00    +0.018 A 
ATOM      7  C   UNL     1       1.616  -0.466   8.030  0.00  0.00    +0.030 A 
ATOM      8  S   UNL     1       2.108   1.090   8.704  0.00  0.00    -0.114 S 
ATOM      9  C   UNL     1       2.640   2.008   7.227  0.00  0.00    +0.170 C 
ATOM     10  C   UNL     1       1.643   1.778   6.125  0.00  0.00    +0.230 C 
ATOM     11  O   UNL     1       1.424   2.687   5.352  0.00  0.00    -0.274 OA
ENDROOT
BRANCH   4  12
ATOM     12  S   UNL     1       0.377  -4.444   6.267  0.00  0.00    +0.061 S 
ATOM     13  O   UNL     1       0.073  -5.296   7.363  0.00  0.00    -0.153 OA
ATOM     14  O   UNL     1      -0.563  -4.160   5.240  0.00  0.00    -0.153 OA
BRANCH  12  15
ATOM     15  N   UNL     1       1.710  -5.086   5.525  0.00  0.00    -0.177 NA
ATOM     16  C   UNL     1       1.994  -4.795   4.113  0.00  0.00    +0.110 C 
ATOM     17  C   UNL     1       2.171  -6.118   3.362  0.00  0.00    +0.020 C 
ATOM     18  C   UNL     1       3.245  -6.956   4.059  0.00  0.00    -0.012 C 
ATOM     19  C   UNL     1       2.803  -7.268   5.490  0.00  0.00    +0.020 C 
ATOM     20  C   UNL     1       2.636  -5.953   6.267  0.00  0.00    +0.110 C 
ATOM     21  C   UNL     1       3.449  -8.264   3.292  0.00  0.00    +0.007 C 
ENDBRANCH  12  15
ENDBRANCH   4  12
BRANCH   1  22
ATOM     22  C   UNL     1       0.033   0.579   4.842  0.00  0.00    +0.209 C 
BRANCH  22  24
ATOM     23  N   UNL     1       0.056  -0.038   2.447  0.00  0.00    -0.311 N 
ATOM     24  C   UNL     1       0.738   0.093   3.602  0.00  0.00    +0.231 C 
ATOM     25  O   UNL     1       1.919  -0.179   3.644  0.00  0.00    -0.274 OA
ATOM     26  H   UNL     1      -0.888   0.180   2.413  0.00  0.00    +0.149 HD
BRANCH  23  33
ATOM     27  C   UNL     1      -0.019   1.526   0.010  0.00  0.00    +0.009 C 
ATOM     28  C   UNL     1       0.002  -0.004   0.002  0.00  0.00    +0.006 C 
ATOM     29  C   UNL     1       0.718  -0.497  -1.257  0.00  0.00    +0.005 C 
ATOM     30  C   UNL     1       0.739  -2.027  -1.265  0.00  0.00    +0.000 C 
ATOM     31  C   UNL     1       1.479  -2.534  -0.026  0.00  0.00    +0.002 C 
ATOM     32  C   UNL     1       0.763  -2.041   1.233  0.00  0.00    +0.022 C 
ATOM     33  C   UNL     1       0.742  -0.511   1.242  0.00  0.00    +0.076 C 
ENDBRANCH  23  33
ENDBRANCH  22  24
ENDBRANCH   1  22
TORSDOF 5
