REMARK  Name = ZINC65265884
REMARK  6 active torsions:
REMARK  status: ('A' for Active; 'I' for Inactive)
REMARK    1  A    between atoms: C_1  and  O_2
REMARK    2  A    between atoms: O_2  and  C_3
REMARK    3  A    between atoms: C_7  and  C_11
REMARK    4  A    between atoms: C_8  and  O_9
REMARK    5  A    between atoms: O_9  and  C_10
REMARK    6  A    between atoms: N_28  and  C_29
REMARK                            x       y       z     vdW  Elec       q    Type
REMARK                         _______ _______ _______ _____ _____    ______ ____
ROOT
ATOM      1  C   UNL     1       1.700  -4.694   1.584  0.00  0.00    +0.250 C 
ATOM      2  O   UNL     1       1.162  -5.498   0.848  0.00  0.00    -0.270 OA
ATOM      3  N   UNL     1       2.323  -5.116   2.702  0.00  0.00    -0.295 N 
ATOM      4  C   UNL     1       2.913  -4.247   3.739  0.00  0.00    +0.110 C 
ATOM      5  C   UNL     1       2.931  -5.113   5.025  0.00  0.00    +0.050 C 
ATOM      6  C   UNL     1       3.238  -6.508   4.451  0.00  0.00    +0.091 C 
ATOM      7  C   UNL     1       2.523  -6.521   3.096  0.00  0.00    +0.137 C 
ATOM      8  C   UNL     1       2.754  -7.597   5.348  0.00  0.00    +0.095 C 
ATOM      9  N   UNL     1       3.640  -8.056   6.292  0.00  0.00    -0.303 N 
ATOM     10  C   UNL     1       4.495  -9.103   5.960  0.00  0.00    +0.037 A 
ATOM     11  C   UNL     1       4.676 -10.158   6.842  0.00  0.00    +0.023 A 
ATOM     12  C   UNL     1       5.534 -11.191   6.522  0.00  0.00    +0.002 A 
ATOM     13  C   UNL     1       6.211 -11.163   5.316  0.00  0.00    +0.000 A 
ATOM     14  C   UNL     1       6.027 -10.117   4.437  0.00  0.00    +0.007 A 
ATOM     15  C   UNL     1       5.159  -9.072   4.740  0.00  0.00    -0.012 A 
ATOM     16  C   UNL     1       5.000  -7.996   3.697  0.00  0.00    +0.119 C 
ATOM     17  N   UNL     1       4.698  -6.681   4.277  0.00  0.00    -0.299 NA
ATOM     18  N   UNL     1       1.561  -8.084   5.242  0.00  0.00    -0.372 N 
ATOM     19  H   UNL     1       5.086  -5.940   3.714  0.00  0.00    +0.123 HD
ATOM     20  H   UNL     1       0.927  -7.685   4.626  0.00  0.00    +0.161 HD
ATOM     21  H   UNL     1       3.669  -7.657   7.176  0.00  0.00    +0.153 HD
ENDROOT
BRANCH   1  26
ATOM     22  C   UNL     1       0.516  -1.335   0.360  0.00  0.00    +0.162 A 
ATOM     23  C   UNL     1       1.623  -0.550   0.634  0.00  0.00    +0.049 A 
ATOM     24  C   UNL     1       2.750  -1.109   1.214  0.00  0.00    +0.005 A 
ATOM     25  C   UNL     1       2.781  -2.451   1.524  0.00  0.00    +0.017 A 
ATOM     26  C   UNL     1       1.671  -3.256   1.254  0.00  0.00    +0.082 A 
ATOM     27  C   UNL     1       0.530  -2.691   0.672  0.00  0.00    +0.174 A 
BRANCH  22  29
ATOM     28  C   UNL     1      -0.531   0.618  -0.504  0.00  0.00    +0.277 C 
ATOM     29  O   UNL     1      -0.587  -0.780  -0.210  0.00  0.00    -0.491 OA
ENDBRANCH  22  29
BRANCH  27  30
ATOM     30  O   UNL     1      -0.556  -3.462   0.410  0.00  0.00    -0.491 OA
ATOM     31  C   UNL     1      -0.610  -4.093  -0.871  0.00  0.00    +0.277 C 
ENDBRANCH  27  30
ENDBRANCH   1  26
BRANCH  18  32
ATOM     32  C   UNL     1       1.167  -9.239   6.053  0.00  0.00    +0.080 C 
ATOM     33  C   UNL     1       1.531 -10.547   5.321  0.00  0.00    +0.024 C 
ATOM     34  C   UNL     1       0.361 -11.507   5.654  0.00  0.00    +0.002 C 
ATOM     35  C   UNL     1      -0.871 -10.568   5.621  0.00  0.00    +0.002 C 
ATOM     36  C   UNL     1      -0.360  -9.252   6.244  0.00  0.00    +0.024 C 
ENDBRANCH  18  32
TORSDOF 4
