REMARK  Name = ZINC16916933
REMARK  11 active torsions:
REMARK  status: ('A' for Active; 'I' for Inactive)
REMARK    1  A    between atoms: C_1  and  C_2
REMARK    2  A    between atoms: C_2  and  O_3
REMARK    3  A    between atoms: O_3  and  C_4
REMARK    4  A    between atoms: C_6  and  C_16
REMARK    5  A    between atoms: C_9  and  O_10
REMARK    6  A    between atoms: O_10  and  C_11
REMARK    7  A    between atoms: C_11  and  C_13
REMARK    8  A    between atoms: C_11  and  C_14
REMARK    9  A    between atoms: N_20  and  N_24
REMARK   10  A    between atoms: N_24  and  C_25
REMARK   11  A    between atoms: C_28  and  N_31
REMARK                            x       y       z     vdW  Elec       q    Type
REMARK                         _______ _______ _______ _____ _____    ______ ____
ROOT
ATOM      1  C   UNL     1       0.519  -2.565   4.957  0.00  0.00    +0.028 C 
ATOM      2  C   UNL     1      -0.142  -2.084   6.041  0.00  0.00    +0.079 C 
ATOM      3  C   UNL     1      -0.962  -0.864   6.177  0.00  0.00    +0.275 C 
ATOM      4  O   UNL     1      -1.139  -0.104   5.243  0.00  0.00    -0.267 OA
ATOM      5  N   UNL     1      -1.496  -0.638   7.366  0.00  0.00    -0.172 N 
ATOM      6  C   UNL     1      -1.298  -1.483   8.399  0.00  0.00    +0.138 C 
ATOM      7  S   UNL     1      -1.897  -1.365   9.998  0.00  0.00    -0.026 S 
ATOM      8  S   UNL     1      -0.265  -2.756   7.692  0.00  0.00    -0.059 S 
ENDROOT
BRANCH   1  11
ATOM      9  C   UNL     1       0.560  -1.575   1.340  0.00  0.00    +0.162 A 
ATOM     10  C   UNL     1       0.461  -2.346   2.482  0.00  0.00    +0.057 A 
ATOM     11  C   UNL     1       0.623  -1.752   3.739  0.00  0.00    -0.020 A 
ATOM     12  C   UNL     1       0.886  -0.379   3.832  0.00  0.00    +0.012 A 
ATOM     13  C   UNL     1       0.989   0.380   2.687  0.00  0.00    +0.050 A 
ATOM     14  C   UNL     1       0.822  -0.209   1.441  0.00  0.00    +0.163 A 
BRANCH   9  15
ATOM     15  O   UNL     1       0.404  -2.149   0.117  0.00  0.00    -0.489 OA
BRANCH  15  17
ATOM     16  C   UNL     1      -0.007  -4.014  -1.363  0.00  0.00    +0.048 C 
ATOM     17  C   UNL     1       0.138  -3.552   0.088  0.00  0.00    +0.226 C 
ENDBRANCH  15  17
ENDBRANCH   9  15
BRANCH  14  18
ATOM     18  O   UNL     1       0.919   0.546   0.316  0.00  0.00    -0.474 OA
BRANCH  18  19
ATOM     19  C   UNL     1       1.072   1.956   0.493  0.00  0.00    +0.283 C 
ATOM     20  C   UNL     1       2.550   2.285   0.714  0.00  0.00    +0.064 C 
BRANCH  19  21
ATOM     21  C   UNL     1       0.576   2.673  -0.736  0.00  0.00    +0.395 C 
ATOM     22  O   UNL     1       0.137   2.041  -1.668  0.00  0.00    -0.242 OA
ATOM     23  O   UNL     1       0.622   4.013  -0.796  0.00  0.00    -0.242 OA
ENDBRANCH  19  21
ENDBRANCH  18  19
ENDBRANCH  14  18
ENDBRANCH   1  11
BRANCH   5  24
ATOM     24  N   UNL     1      -2.284   0.504   7.557  0.00  0.00    -0.256 N 
ATOM     25  H   UNL     1      -1.866   1.375   7.633  0.00  0.00    +0.171 HD
BRANCH  24  26
ATOM     26  C   UNL     1      -3.674   0.387   7.639  0.00  0.00    +0.045 A 
ATOM     27  C   UNL     1      -4.276  -0.860   7.526  0.00  0.00    +0.027 A 
ATOM     28  C   UNL     1      -5.650  -0.972   7.612  0.00  0.00    +0.034 A 
ATOM     29  C   UNL     1      -6.427   0.157   7.801  0.00  0.00    +0.126 A 
ATOM     30  C   UNL     1      -5.831   1.400   7.909  0.00  0.00    +0.034 A 
ATOM     31  C   UNL     1      -4.457   1.519   7.829  0.00  0.00    +0.027 A 
BRANCH  29  32
ATOM     32  N   UNL     1      -7.899   0.033   7.887  0.00  0.00    +0.056 N 
ATOM     33  O   UNL     1      -8.585   1.026   8.053  0.00  0.00    -0.126 OA
ATOM     34  O   UNL     1      -8.425  -1.061   7.792  0.00  0.00    -0.126 OA
ENDBRANCH  29  32
ENDBRANCH  24  26
ENDBRANCH   5  24
TORSDOF 9
