REMARK  Name = ZINC09243095
REMARK  13 active torsions:
REMARK  status: ('A' for Active; 'I' for Inactive)
REMARK    1  A    between atoms: C_1  and  C_2
REMARK    2  A    between atoms: C_5  and  C_8
REMARK    3  A    between atoms: C_11  and  C_31
REMARK    4  A    between atoms: N_18  and  C_19
REMARK    5  A    between atoms: C_19  and  C_20
REMARK    6  A    between atoms: C_20  and  C_21
REMARK    7  A    between atoms: C_24  and  O_29
REMARK    8  A    between atoms: C_25  and  O_27
REMARK    9  A    between atoms: O_27  and  C_28
REMARK   10  A    between atoms: O_29  and  C_30
REMARK   11  A    between atoms: C_33  and  C_39
REMARK   12  A    between atoms: C_35  and  C_38
REMARK   13  A    between atoms: C_36  and  O_37
REMARK                            x       y       z     vdW  Elec       q    Type
REMARK                         _______ _______ _______ _____ _____    ______ ____
ROOT
ATOM      1  C   UNL     1       0.059  -4.275  -0.021  0.00  0.00    +0.141 C 
ATOM      2  C   UNL     1       1.455  -4.775   0.233  0.00  0.00    +0.035 A 
ATOM      3  C   UNL     1       2.751  -4.818  -0.172  0.00  0.00    +0.075 A 
ATOM      4  N   UNL     1       3.422  -5.579   0.741  0.00  0.00    -0.276 N 
ATOM      5  H   UNL     1       4.370  -5.782   0.708  0.00  0.00    +0.189 HD
ATOM      6  N   UNL     1       2.612  -5.986   1.653  0.00  0.00    -0.168 NA
ATOM      7  C   UNL     1       1.393  -5.541   1.419  0.00  0.00    +0.153 A 
ATOM      8  C   UNL     1      -0.001  -5.523   1.898  0.00  0.00    +0.268 C 
ATOM      9  O   UNL     1      -0.398  -6.087   2.899  0.00  0.00    -0.268 OA
ATOM     10  N   UNL     1      -0.772  -4.796   1.070  0.00  0.00    -0.285 N 
ENDROOT
BRANCH   3  11
ATOM     11  C   UNL     1       3.324  -4.166  -1.371  0.00  0.00    +0.042 A 
ATOM     12  C   UNL     1       3.835  -4.939  -2.412  0.00  0.00    +0.017 A 
ATOM     13  C   UNL     1       4.368  -4.326  -3.527  0.00  0.00    -0.049 A 
ATOM     14  C   UNL     1       4.397  -2.945  -3.617  0.00  0.00    +0.010 A 
ATOM     15  C   UNL     1       3.893  -2.168  -2.591  0.00  0.00    -0.008 A 
ATOM     16  C   UNL     1       3.349  -2.770  -1.467  0.00  0.00    +0.129 A 
ATOM     17  C   UNL     1       3.929  -0.666  -2.696  0.00  0.00    +0.047 C 
ATOM     18  C   UNL     1       4.920  -5.163  -4.652  0.00  0.00    +0.044 C 
BRANCH  16  19
ATOM     19  O   UNL     1       2.848  -2.007  -0.460  0.00  0.00    -0.506 OA
ATOM     20  H   UNL     1       3.498  -1.775   0.217  0.00  0.00    +0.292 HD
ENDBRANCH  16  19
ENDBRANCH   3  11
BRANCH   1  25
ATOM     21  C   UNL     1      -0.018   1.503   0.010  0.00  0.00    +0.044 C 
ATOM     22  C   UNL     1       0.002  -0.004   0.002  0.00  0.00    -0.050 A 
ATOM     23  C   UNL     1       0.006  -0.689  -1.199  0.00  0.00    +0.004 A 
ATOM     24  C   UNL     1       0.025  -2.071  -1.206  0.00  0.00    +0.006 A 
ATOM     25  C   UNL     1       0.040  -2.768  -0.013  0.00  0.00    -0.022 A 
ATOM     26  C   UNL     1       0.037  -2.084   1.188  0.00  0.00    +0.006 A 
ATOM     27  C   UNL     1       0.023  -0.702   1.195  0.00  0.00    +0.004 A 
ENDBRANCH   1  25
BRANCH  10  28
ATOM     28  C   UNL     1      -2.209  -4.561   1.231  0.00  0.00    +0.114 C 
BRANCH  28  29
ATOM     29  C   UNL     1      -2.991  -5.660   0.509  0.00  0.00    +0.054 C 
BRANCH  29  30
ATOM     30  C   UNL     1      -4.469  -5.418   0.675  0.00  0.00    -0.042 A 
ATOM     31  C   UNL     1      -5.140  -5.962   1.754  0.00  0.00    +0.007 A 
ATOM     32  C   UNL     1      -6.496  -5.743   1.911  0.00  0.00    +0.049 A 
ATOM     33  C   UNL     1      -7.185  -4.976   0.985  0.00  0.00    +0.161 A 
ATOM     34  C   UNL     1      -6.509  -4.428  -0.101  0.00  0.00    +0.162 A 
ATOM     35  C   UNL     1      -5.149  -4.647  -0.249  0.00  0.00    +0.053 A 
BRANCH  34  36
ATOM     36  O   UNL     1      -7.181  -3.674  -1.012  0.00  0.00    -0.491 OA
ATOM     37  C   UNL     1      -6.423  -3.144  -2.101  0.00  0.00    +0.277 C 
ENDBRANCH  34  36
BRANCH  33  38
ATOM     38  O   UNL     1      -8.519  -4.760   1.138  0.00  0.00    -0.491 OA
ATOM     39  C   UNL     1      -9.147  -5.353   2.276  0.00  0.00    +0.277 C 
ENDBRANCH  33  38
ENDBRANCH  29  30
ENDBRANCH  28  29
ENDBRANCH  10  28
TORSDOF 8
