REMARK  Name = ZINC16427569
REMARK  16 active torsions:
REMARK  status: ('A' for Active; 'I' for Inactive)
REMARK    1  A    between atoms: C_1  and  C_2
REMARK    2  A    between atoms: C_2  and  C_3
REMARK    3  A    between atoms: C_3  and  C_4
REMARK    4  A    between atoms: C_4  and  C_5
REMARK    5  A    between atoms: C_8  and  C_11
REMARK    6  A    between atoms: N_13  and  C_14
REMARK    7  A    between atoms: N_13  and  C_18
REMARK    8  A    between atoms: C_14  and  C_15
REMARK    9  A    between atoms: C_15  and  N_79
REMARK   10  A    between atoms: C_16  and  N_79
REMARK   11  A    between atoms: C_17  and  N_79
REMARK   12  A    between atoms: C_18  and  C_20
REMARK   13  A    between atoms: C_18  and  C_21
REMARK   14  A    between atoms: N_31  and  C_32
REMARK   15  A    between atoms: C_35  and  C_39
REMARK   16  A    between atoms: C_37  and  C_38
REMARK                            x       y       z     vdW  Elec       q    Type
REMARK                         _______ _______ _______ _____ _____    ______ ____
ROOT
ATOM      1  C   UNL     1      -0.490   0.301   3.955  0.00  0.00    +0.140 C 
ATOM      2  C   UNL     1      -1.481  -0.395   3.020  0.00  0.00    +0.036 C 
ENDROOT
BRANCH   1   3
ATOM      3  C   UNL     1      -1.235   0.898   5.122  0.00  0.00    +0.138 A 
ATOM      4  N   UNL     1      -2.242   1.680   4.874  0.00  0.00    -0.231 NA
ATOM      5  C   UNL     1      -2.962   2.249   5.873  0.00  0.00    +0.078 A 
ATOM      6  C   UNL     1      -4.048   3.086   5.607  0.00  0.00    +0.028 A 
ATOM      7  C   UNL     1      -4.748   3.647   6.652  0.00  0.00    +0.002 A 
ATOM      8  C   UNL     1      -4.388   3.391   7.968  0.00  0.00    +0.001 A 
ATOM      9  C   UNL     1      -3.321   2.569   8.256  0.00  0.00    +0.015 A 
ATOM     10  C   UNL     1      -2.599   1.991   7.213  0.00  0.00    +0.065 A 
ATOM     11  C   UNL     1      -1.451   1.106   7.460  0.00  0.00    +0.266 A 
ATOM     12  O   UNL     1      -1.086   0.843   8.591  0.00  0.00    -0.267 OA
ATOM     13  N   UNL     1      -0.815   0.595   6.380  0.00  0.00    -0.263 N 
BRANCH  13  14
ATOM     14  C   UNL     1       0.284  -0.254   6.559  0.00  0.00    +0.054 A 
ATOM     15  C   UNL     1       1.560   0.279   6.697  0.00  0.00    +0.027 A 
ATOM     16  C   UNL     1       2.642  -0.561   6.873  0.00  0.00    +0.005 A 
ATOM     17  C   UNL     1       2.457  -1.931   6.912  0.00  0.00    -0.050 A 
ATOM     18  C   UNL     1       1.188  -2.464   6.776  0.00  0.00    +0.008 A 
ATOM     19  C   UNL     1       0.101  -1.629   6.604  0.00  0.00    -0.026 A 
ATOM     20  C   UNL     1      -1.282  -2.211   6.461  0.00  0.00    +0.046 C 
ATOM     21  C   UNL     1       3.640  -2.844   7.105  0.00  0.00    +0.044 C 
ENDBRANCH  13  14
ENDBRANCH   1   3
BRANCH   1  24
ATOM     22  C   UNL     1       1.549   1.325   3.101  0.00  0.00    +0.247 C 
ATOM     23  O   UNL     1       2.170   0.360   3.502  0.00  0.00    -0.270 OA
ATOM     24  N   UNL     1       0.207   1.363   3.226  0.00  0.00    -0.290 N 
BRANCH  22  28
ATOM     25  C   UNL     1       3.607   4.578   1.305  0.00  0.00    -0.047 A 
ATOM     26  C   UNL     1       4.116   3.987   2.448  0.00  0.00    +0.004 A 
ATOM     27  C   UNL     1       3.452   2.931   3.036  0.00  0.00    +0.013 A 
ATOM     28  C   UNL     1       2.265   2.457   2.476  0.00  0.00    +0.037 A 
ATOM     29  C   UNL     1       1.760   3.054   1.319  0.00  0.00    +0.013 A 
ATOM     30  C   UNL     1       2.430   4.113   0.744  0.00  0.00    +0.004 A 
BRANCH  25  31
ATOM     31  C   UNL     1       4.337   5.732   0.668  0.00  0.00    +0.035 C 
BRANCH  31  32
ATOM     32  C   UNL     1       5.336   5.199  -0.360  0.00  0.00    +0.004 C 
BRANCH  32  34
ATOM     33  C   UNL     1       7.077   5.838  -2.035  0.00  0.00    +0.004 C 
ATOM     34  C   UNL     1       6.077   6.371  -1.007  0.00  0.00    -0.003 C 
ENDBRANCH  32  34
ENDBRANCH  31  32
ENDBRANCH  25  31
ENDBRANCH  22  28
BRANCH  24  35
ATOM     35  C   UNL     1      -0.553   2.466   2.633  0.00  0.00    +0.090 C 
BRANCH  35  36
ATOM     36  C   UNL     1      -1.157   2.011   1.303  0.00  0.00    -0.060 C 
BRANCH  36  39
ATOM     37  C   UNL     1      -2.316   2.801  -0.671  0.00  0.00    -0.097 C 
ATOM     38  C   UNL     1      -3.092   3.450   1.529  0.00  0.00    -0.097 C 
ATOM     39  N   UNL     1      -1.903   3.140   0.708  0.00  0.00    +0.377 N 
ATOM     40  H   UNL     1      -1.292   3.965   0.680  0.00  0.00    -0.083 HD
ENDBRANCH  36  39
ENDBRANCH  35  36
ENDBRANCH  24  35
ENDBRANCH   1  24
TORSDOF 10
