REMARK  Name = ZINC20628685
REMARK  12 active torsions:
REMARK  status: ('A' for Active; 'I' for Inactive)
REMARK    1  A    between atoms: C_1  and  C_2
REMARK    2  A    between atoms: C_2  and  N_3
REMARK    3  A    between atoms: N_3  and  C_4
REMARK    4  A    between atoms: N_3  and  S_6
REMARK    5  A    between atoms: C_4  and  C_5
REMARK    6  A    between atoms: S_6  and  C_9
REMARK    7  A    between atoms: C_12  and  O_26
REMARK    8  A    between atoms: C_13  and  N_15
REMARK    9  A    between atoms: N_15  and  S_16
REMARK   10  A    between atoms: S_16  and  C_19
REMARK   11  A    between atoms: O_26  and  C_27
REMARK   12  A    between atoms: C_27  and  C_28
REMARK                            x       y       z     vdW  Elec       q    Type
REMARK                         _______ _______ _______ _____ _____    ______ ____
ROOT
ATOM      1  C   UNL     1       1.295   2.017  -0.523  0.00  0.00    +0.108 A 
ATOM      2  C   UNL     1       2.462   1.291  -0.677  0.00  0.00    +0.032 A 
ATOM      3  C   UNL     1       2.434  -0.090  -0.621  0.00  0.00    +0.049 A 
ATOM      4  C   UNL     1       1.235  -0.751  -0.411  0.00  0.00    +0.145 A 
ATOM      5  C   UNL     1       0.059  -0.021  -0.256  0.00  0.00    +0.118 A 
ATOM      6  C   UNL     1       0.094   1.365  -0.313  0.00  0.00    +0.059 A 
ENDROOT
BRANCH   1   7
ATOM      7  S   UNL     1       1.339   3.777  -0.595  0.00  0.00    +0.061 S 
ATOM      8  O   UNL     1       2.495   4.124  -1.345  0.00  0.00    -0.153 OA
ATOM      9  O   UNL     1       0.034   4.201  -0.967  0.00  0.00    -0.153 OA
BRANCH   7  10
ATOM     10  N   UNL     1       1.593   4.324   0.947  0.00  0.00    -0.177 NA
BRANCH  10  12
ATOM     11  C   UNL     1       3.357   5.992   1.242  0.00  0.00    +0.022 C 
ATOM     12  C   UNL     1       2.958   4.527   1.436  0.00  0.00    +0.106 C 
ENDBRANCH  10  12
BRANCH  10  13
ATOM     13  C   UNL     1       0.452   4.605   1.822  0.00  0.00    +0.106 C 
ATOM     14  C   UNL     1       0.164   3.381   2.694  0.00  0.00    +0.022 C 
ENDBRANCH  10  13
ENDBRANCH   7  10
ENDBRANCH   1   7
BRANCH   5  15
ATOM     15  N   UNL     1      -1.156  -0.683  -0.042  0.00  0.00    -0.094 NA
BRANCH  15  16
ATOM     16  S   UNL     1      -2.554  -0.077  -0.690  0.00  0.00    +0.094 S 
ATOM     17  O   UNL     1      -2.263   0.265  -2.038  0.00  0.00    -0.148 OA
ATOM     18  O   UNL     1      -3.590  -0.986  -0.342  0.00  0.00    -0.148 OA
BRANCH  16  19
ATOM     19  C   UNL     1      -2.905   1.433   0.148  0.00  0.00    +0.137 A 
ATOM     20  C   UNL     1      -2.922   2.631  -0.542  0.00  0.00    +0.058 A 
ATOM     21  C   UNL     1      -3.202   3.774   0.133  0.00  0.00    +0.081 A 
ATOM     22  S   UNL     1      -3.439   3.172   1.797  0.00  0.00    -0.063 S 
ATOM     23  C   UNL     1      -3.158   1.438   1.480  0.00  0.00    +0.106 A 
ATOM     24 CL   UNL     1      -3.198   0.104   2.591  0.00  0.00    -0.074 Cl
ATOM     25 CL   UNL     1      -3.297   5.401  -0.465  0.00  0.00    -0.076 Cl
ENDBRANCH  16  19
ENDBRANCH  15  16
ENDBRANCH   5  15
BRANCH   4  26
ATOM     26  O   UNL     1       1.206  -2.110  -0.355  0.00  0.00    -0.490 OA
BRANCH  26  27
ATOM     27  C   UNL     1       2.450  -2.792  -0.522  0.00  0.00    +0.226 C 
ATOM     28  C   UNL     1       2.220  -4.302  -0.430  0.00  0.00    +0.048 C 
ENDBRANCH  26  27
ENDBRANCH   4  26
TORSDOF 9
