REMARK  Name = ZINC38942886
REMARK  9 active torsions:
REMARK  status: ('A' for Active; 'I' for Inactive)
REMARK    1  A    between atoms: C_1  and  C_2
REMARK    2  A    between atoms: C_2  and  C_3
REMARK    3  A    between atoms: C_2  and  C_4
REMARK    4  A    between atoms: C_4  and  N_5
REMARK    5  A    between atoms: C_8  and  N_19
REMARK    6  A    between atoms: C_14  and  C_17
REMARK    7  A    between atoms: C_14  and  C_18
REMARK    8  A    between atoms: C_20  and  C_22
REMARK    9  A    between atoms: N_27  and  C_29
REMARK                            x       y       z     vdW  Elec       q    Type
REMARK                         _______ _______ _______ _____ _____    ______ ____
ROOT
ATOM      1  N   UNL     1      -1.805  -2.130  -0.371  0.00  0.00    -0.267 N 
ATOM      2  C   UNL     1      -1.808  -2.786  -1.609  0.00  0.00    +0.080 A 
ATOM      3  C   UNL     1      -1.013  -2.333  -2.648  0.00  0.00    +0.050 A 
ATOM      4  C   UNL     1      -1.032  -2.993  -3.870  0.00  0.00    +0.035 A 
ATOM      5  C   UNL     1      -1.846  -4.104  -4.046  0.00  0.00    +0.027 A 
ATOM      6  C   UNL     1      -2.637  -4.558  -3.008  0.00  0.00    +0.049 A 
ATOM      7  C   UNL     1      -2.620  -3.905  -1.787  0.00  0.00    +0.142 A 
ATOM      8  O   UNL     1      -3.386  -4.353  -0.757  0.00  0.00    -0.489 OA
ATOM      9  C   UNL     1      -2.722  -5.053   0.292  0.00  0.00    +0.244 C 
ATOM     10  C   UNL     1      -1.427  -4.339   0.674  0.00  0.00    +0.076 C 
ATOM     11  C   UNL     1      -1.657  -2.852   0.762  0.00  0.00    +0.229 C 
ATOM     12  O   UNL     1      -1.713  -2.308   1.844  0.00  0.00    -0.275 OA
ATOM     13  C   UNL     1      -0.942  -4.857   2.029  0.00  0.00    +0.024 C 
ATOM     14  C   UNL     1      -0.360  -4.622  -0.386  0.00  0.00    +0.024 C 
ENDROOT
BRANCH   4  15
ATOM     15  N   UNL     1      -0.230  -2.537  -4.924  0.00  0.00    -0.285 N 
ATOM     16  C   UNL     1       0.334  -3.420  -5.772  0.00  0.00    +0.222 C 
ATOM     17  O   UNL     1       0.078  -4.602  -5.676  0.00  0.00    -0.275 OA
ATOM     18  H   UNL     1      -0.081  -1.586  -5.044  0.00  0.00    +0.155 HD
BRANCH  16  19
ATOM     19  C   UNL     1       1.282  -2.939  -6.840  0.00  0.00    +0.102 C 
ATOM     20  C   UNL     1       0.555  -2.028  -7.856  0.00  0.00    +0.110 C 
ATOM     21  C   UNL     1       1.183  -2.381  -9.187  0.00  0.00    +0.221 C 
ATOM     22  O   UNL     1       1.101  -1.710 -10.193  0.00  0.00    -0.275 OA
ATOM     23  N   UNL     1       1.845  -3.547  -9.091  0.00  0.00    -0.271 N 
ATOM     24  C   UNL     1       1.742  -4.109  -7.738  0.00  0.00    +0.127 C 
BRANCH  23  25
ATOM     25  C   UNL     1       2.543  -4.148 -10.145  0.00  0.00    +0.036 A 
ATOM     26  C   UNL     1       2.491  -3.595 -11.418  0.00  0.00    +0.026 A 
ATOM     27  C   UNL     1       3.181  -4.190 -12.456  0.00  0.00    +0.040 A 
ATOM     28  C   UNL     1       3.923  -5.336 -12.229  0.00  0.00    +0.124 A 
ATOM     29  C   UNL     1       3.976  -5.889 -10.960  0.00  0.00    +0.040 A 
ATOM     30  C   UNL     1       3.293  -5.294  -9.918  0.00  0.00    +0.026 A 
ATOM     31  F   UNL     1       4.597  -5.917 -13.246  0.00  0.00    -0.205 F 
ENDBRANCH  23  25
ENDBRANCH  16  19
ENDBRANCH   4  15
BRANCH   1  32
ATOM     32  C   UNL     1      -1.955  -0.674  -0.305  0.00  0.00    +0.116 C 
BRANCH  32  34
ATOM     33  C   UNL     1      -0.739   1.505  -0.430  0.00  0.00    +0.009 C 
ATOM     34  C   UNL     1      -0.576  -0.015  -0.372  0.00  0.00    +0.001 C 
ATOM     35  C   UNL     1       0.232  -0.395   0.870  0.00  0.00    +0.009 C 
ENDBRANCH  32  34
ENDBRANCH   1  32
TORSDOF 5
