REMARK  Name = ZINC57570361
REMARK  8 active torsions:
REMARK  status: ('A' for Active; 'I' for Inactive)
REMARK    1  A    between atoms: C_1  and  C_2
REMARK    2  A    between atoms: C_10  and  C_12
REMARK    3  A    between atoms: C_12  and  N_13
REMARK    4  A    between atoms: N_13  and  C_14
REMARK    5  A    between atoms: N_13  and  C_27
REMARK    6  A    between atoms: C_14  and  C_15
REMARK    7  A    between atoms: C_27  and  C_28
REMARK    8  A    between atoms: C_27  and  C_29
REMARK                            x       y       z     vdW  Elec       q    Type
REMARK                         _______ _______ _______ _____ _____    ______ ____
ROOT
ATOM      1  N   UNL     1      -1.022  -3.903   4.529  0.00  0.00    -0.287 NA
ENDROOT
BRANCH   1   2
ATOM      2  C   UNL     1      -2.266  -3.225   4.916  0.00  0.00    +0.051 C 
ATOM      3  C   UNL     1      -3.405  -4.245   4.975  0.00  0.00    +0.024 C 
ATOM      4  C   UNL     1      -2.089  -2.578   6.291  0.00  0.00    +0.024 C 
ENDBRANCH   1   2
BRANCH   1   5
ATOM      5  C   UNL     1       0.030  -2.929   4.208  0.00  0.00    +0.138 C 
BRANCH   5  15
ATOM      6  C   UNL     1      -1.708   1.241  -0.622  0.00  0.00    +0.064 C 
ATOM      7  C   UNL     1      -1.407  -0.232  -0.525  0.00  0.00    +0.033 A 
ATOM      8  C   UNL     1      -1.470  -0.988  -1.622  0.00  0.00    +0.070 A 
ATOM      9  S   UNL     1      -1.039  -2.598  -0.981  0.00  0.00    -0.059 S 
ATOM     10  C   UNL     1      -0.809  -2.119   0.717  0.00  0.00    +0.158 A 
ATOM     11  N   UNL     1      -1.067  -0.774   0.691  0.00  0.00    -0.261 N 
ATOM     12  C   UNL     1      -0.963  -0.110   1.881  0.00  0.00    +0.259 A 
ATOM     13  O   UNL     1      -1.184   1.089   1.933  0.00  0.00    -0.267 OA
ATOM     14  C   UNL     1      -0.605  -0.805   3.036  0.00  0.00    +0.093 A 
ATOM     15  C   UNL     1      -0.358  -2.160   2.971  0.00  0.00    +0.037 A 
ATOM     16  N   UNL     1      -0.477  -2.778   1.799  0.00  0.00    -0.337 N 
ATOM     17  H   UNL     1      -0.305  -3.731   1.743  0.00  0.00    +0.168 HD
ENDBRANCH   5  15
ENDBRANCH   1   5
BRANCH   1  18
ATOM     18  C   UNL     1      -0.578  -4.829   5.580  0.00  0.00    +0.159 C 
BRANCH  18  19
ATOM     19  C   UNL     1       0.363  -5.846   4.988  0.00  0.00    +0.125 A 
ATOM     20  N   UNL     1       0.823  -6.842   5.790  0.00  0.00    -0.309 N 
ATOM     21  H   UNL     1       0.541  -6.881   6.718  0.00  0.00    +0.170 HD
ATOM     22  C   UNL     1       1.670  -7.780   5.307  0.00  0.00    +0.259 A 
ATOM     23  O   UNL     1       2.088  -8.678   6.014  0.00  0.00    -0.267 OA
ATOM     24  C   UNL     1       2.064  -7.673   3.895  0.00  0.00    +0.065 A 
ATOM     25  C   UNL     1       2.932  -8.587   3.300  0.00  0.00    +0.015 A 
ATOM     26  C   UNL     1       3.269  -8.438   1.972  0.00  0.00    +0.001 A 
ATOM     27  C   UNL     1       2.752  -7.388   1.226  0.00  0.00    +0.002 A 
ATOM     28  C   UNL     1       1.893  -6.474   1.794  0.00  0.00    +0.028 A 
ATOM     29  C   UNL     1       1.537  -6.603   3.138  0.00  0.00    +0.078 A 
ATOM     30  N   UNL     1       0.690  -5.729   3.737  0.00  0.00    -0.232 NA
ENDBRANCH  18  19
ENDBRANCH   1  18
TORSDOF 5
