REMARK  Name = ZINC24091966
REMARK  10 active torsions:
REMARK  status: ('A' for Active; 'I' for Inactive)
REMARK    1  A    between atoms: C_1  and  C_2
REMARK    2  A    between atoms: C_4  and  C_16
REMARK    3  A    between atoms: C_5  and  C_15
REMARK    4  A    between atoms: N_6  and  C_7
REMARK    5  A    between atoms: C_7  and  C_8
REMARK    6  A    between atoms: C_16  and  C_18
REMARK    7  A    between atoms: C_18  and  O_19
REMARK    8  A    between atoms: O_19  and  C_20
REMARK    9  A    between atoms: C_20  and  C_22
REMARK   10  A    between atoms: C_22  and  C_23
REMARK                            x       y       z     vdW  Elec       q    Type
REMARK                         _______ _______ _______ _____ _____    ______ ____
ROOT
ATOM      1  C   UNL     1      -5.388   3.004  -5.562  0.00  0.00    +0.202 C 
ATOM      2  O   UNL     1      -4.490   3.362  -6.296  0.00  0.00    -0.288 OA
ENDROOT
BRANCH   1   6
ATOM      3  C   UNL     1      -9.907   0.691  -5.998  0.00  0.00    +0.063 C 
ATOM      4  C   UNL     1      -8.571   1.323  -6.294  0.00  0.00    +0.017 A 
ATOM      5  C   UNL     1      -7.740   1.851  -5.379  0.00  0.00    +0.034 A 
ATOM      6  C   UNL     1      -6.570   2.344  -6.119  0.00  0.00    +0.042 A 
ATOM      7  C   UNL     1      -6.818   2.063  -7.449  0.00  0.00    +0.027 A 
ATOM      8  N   UNL     1      -8.012   1.449  -7.532  0.00  0.00    -0.343 N 
ATOM      9  C   UNL     1      -5.907   2.385  -8.606  0.00  0.00    +0.064 C 
BRANCH   8  10
ATOM     10  C   UNL     1      -8.629   0.987  -8.778  0.00  0.00    +0.156 C 
BRANCH  10  11
ATOM     11  C   UNL     1      -9.471   2.092  -9.362  0.00  0.00    -0.028 A 
ATOM     12  C   UNL     1     -10.806   2.199  -9.018  0.00  0.00    +0.008 A 
ATOM     13  C   UNL     1     -11.578   3.214  -9.548  0.00  0.00    +0.038 A 
ATOM     14  C   UNL     1     -11.017   4.119 -10.434  0.00  0.00    +0.123 A 
ATOM     15  C   UNL     1      -9.682   4.009 -10.782  0.00  0.00    +0.038 A 
ATOM     16  C   UNL     1      -8.910   2.995 -10.245  0.00  0.00    +0.008 A 
ATOM     17  F   UNL     1     -11.772   5.110 -10.957  0.00  0.00    -0.205 F 
ENDBRANCH  10  11
ENDBRANCH   8  10
ENDBRANCH   1   6
BRANCH   1  18
ATOM     18  C   UNL     1      -5.285   3.238  -4.077  0.00  0.00    +0.311 C 
BRANCH  18  19
ATOM     19  O   UNL     1      -4.029   3.903  -3.777  0.00  0.00    -0.456 OA
BRANCH  19  20
ATOM     20  C   UNL     1      -3.781   4.185  -2.489  0.00  0.00    +0.312 C 
ATOM     21  O   UNL     1      -4.587   3.887  -1.639  0.00  0.00    -0.251 OA
BRANCH  20  22
ATOM     22  C   UNL     1      -2.498   4.874  -2.102  0.00  0.00    +0.174 C 
BRANCH  22  23
ATOM     23  C   UNL     1      -2.465   5.077  -0.585  0.00  0.00    +0.269 C 
ATOM     24  C   UNL     1      -1.243   5.878  -0.212  0.00  0.00    +0.259 C 
ATOM     25  O   UNL     1      -1.312   7.085  -0.113  0.00  0.00    -0.271 OA
ATOM     26  N   UNL     1      -0.072   5.245   0.011  0.00  0.00    -0.280 N 
ATOM     27  C   UNL     1      -0.042   3.843   0.011  0.00  0.00    +0.076 A 
ATOM     28  C   UNL     1       1.165   3.164   0.002  0.00  0.00    +0.027 A 
ATOM     29  C   UNL     1       1.177   1.781   0.000  0.00  0.00    +0.002 A 
ATOM     30  C   UNL     1      -0.013   1.076   0.008  0.00  0.00    +0.004 A 
ATOM     31  C   UNL     1      -1.221   1.748   0.017  0.00  0.00    +0.047 A 
ATOM     32  C   UNL     1      -1.241   3.133   0.030  0.00  0.00    +0.143 A 
ATOM     33  O   UNL     1      -2.422   3.805   0.064  0.00  0.00    -0.477 OA
ATOM     34  H   UNL     1       0.843   5.828   0.189  0.00  0.00    +0.155 HD
ENDBRANCH  22  23
ENDBRANCH  20  22
ENDBRANCH  19  20
ENDBRANCH  18  19
ENDBRANCH   1  18
TORSDOF 8
