REMARK  Name = ZINC44876057
REMARK  12 active torsions:
REMARK  status: ('A' for Active; 'I' for Inactive)
REMARK    1  A    between atoms: C_1  and  C_2
REMARK    2  A    between atoms: N_5  and  C_8
REMARK    3  A    between atoms: C_8  and  C_9
REMARK    4  A    between atoms: C_12  and  C_15
REMARK    5  A    between atoms: C_15  and  N_16
REMARK    6  A    between atoms: C_17  and  C_19
REMARK    7  A    between atoms: C_19  and  N_20
REMARK    8  A    between atoms: N_20  and  C_21
REMARK    9  A    between atoms: N_20  and  S_30
REMARK   10  A    between atoms: C_25  and  C_27
REMARK   11  A    between atoms: C_27  and  C_29
REMARK   12  A    between atoms: S_30  and  C_33
REMARK                            x       y       z     vdW  Elec       q    Type
REMARK                         _______ _______ _______ _____ _____    ______ ____
ROOT
ATOM      1  N   UNL     1       2.198  -5.562   7.563  0.00  0.00    -0.310 N 
ATOM      2  C   UNL     1       2.777  -5.260   8.741  0.00  0.00    +0.232 C 
ATOM      3  O   UNL     1       3.140  -6.147   9.484  0.00  0.00    -0.274 OA
ATOM      4  H   UNL     1       1.907  -4.853   6.969  0.00  0.00    +0.149 HD
ENDROOT
BRANCH   1   5
ATOM      5  C   UNL     1       2.007  -6.963   7.179  0.00  0.00    +0.139 C 
BRANCH   5   9
ATOM      6  C   UNL     1       0.125  -7.148   3.349  0.00  0.00    -0.064 A 
ATOM      7  C   UNL     1       1.504  -7.119   3.440  0.00  0.00    +0.002 A 
ATOM      8  C   UNL     1       2.113  -7.059   4.680  0.00  0.00    +0.005 A 
ATOM      9  C   UNL     1       1.343  -7.027   5.827  0.00  0.00    -0.030 A 
ATOM     10  C   UNL     1      -0.036  -7.056   5.736  0.00  0.00    +0.005 A 
ATOM     11  C   UNL     1      -0.645  -7.111   4.496  0.00  0.00    +0.002 A 
BRANCH   6  12
ATOM     12  C   UNL     1      -0.539  -7.213   1.997  0.00  0.00    -0.043 C 
BRANCH  12  17
ATOM     13  C   UNL     1      -0.848  -2.290  -0.864  0.00  0.00    +0.007 C 
ATOM     14  C   UNL     1      -0.536  -3.733  -0.461  0.00  0.00    -0.018 C 
ATOM     15  C   UNL     1      -1.845  -4.496  -0.237  0.00  0.00    -0.016 C 
ATOM     16  C   UNL     1      -1.527  -5.914   0.242  0.00  0.00    -0.078 C 
ATOM     17  N   UNL     1      -0.774  -5.851   1.501  0.00  0.00    +0.382 N 
ATOM     18  C   UNL     1       0.514  -5.184   1.278  0.00  0.00    -0.078 C 
ATOM     19  C   UNL     1       0.274  -3.738   0.838  0.00  0.00    -0.016 C 
ATOM     20  H   UNL     1      -1.306  -5.333   2.184  0.00  0.00    -0.081 HD
ENDBRANCH  12  17
ENDBRANCH   6  12
ENDBRANCH   5   9
ENDBRANCH   1   5
BRANCH   2  21
ATOM     21  C   UNL     1       2.974  -3.818   9.136  0.00  0.00    +0.226 C 
BRANCH  21  22
ATOM     22  N   UNL     1       3.619  -3.756  10.450  0.00  0.00    -0.199 N 
BRANCH  22  23
ATOM     23  C   UNL     1       5.011  -3.833  10.549  0.00  0.00    +0.052 A 
ATOM     24  C   UNL     1       5.599  -4.840  11.307  0.00  0.00    +0.025 A 
ATOM     25  C   UNL     1       6.975  -4.923  11.409  0.00  0.00    +0.003 A 
ATOM     26  C   UNL     1       7.776  -4.006  10.760  0.00  0.00    +0.011 A 
ATOM     27  C   UNL     1       7.196  -2.989   9.995  0.00  0.00    +0.019 A 
ATOM     28  C   UNL     1       5.804  -2.910   9.888  0.00  0.00    +0.036 A 
BRANCH  27  29
ATOM     29  C   UNL     1       8.047  -2.009   9.301  0.00  0.00    +0.160 C 
ATOM     30  O   UNL     1       7.542  -1.128   8.639  0.00  0.00    -0.292 OA
ATOM     31  C   UNL     1       9.547  -2.100   9.414  0.00  0.00    +0.091 C 
ENDBRANCH  27  29
ENDBRANCH  22  23
BRANCH  22  32
ATOM     32  S   UNL     1       2.699  -3.593  11.818  0.00  0.00    +0.043 S 
ATOM     33  O   UNL     1       3.592  -3.079  12.796  0.00  0.00    -0.155 OA
ATOM     34  O   UNL     1       1.566  -2.842  11.405  0.00  0.00    -0.155 OA
ATOM     35  C   UNL     1       2.205  -5.284  12.250  0.00  0.00    +0.218 C 
ENDBRANCH  22  32
ENDBRANCH  21  22
ENDBRANCH   2  21
TORSDOF 9
