REMARK  Name = ZINC08834889
REMARK  12 active torsions:
REMARK  status: ('A' for Active; 'I' for Inactive)
REMARK    1  A    between atoms: C_1  and  C_2
REMARK    2  A    between atoms: C_2  and  N_61
REMARK    3  A    between atoms: C_3  and  C_4
REMARK    4  A    between atoms: C_3  and  N_61
REMARK    5  A    between atoms: C_5  and  C_6
REMARK    6  A    between atoms: C_5  and  N_61
REMARK    7  A    between atoms: C_6  and  C_7
REMARK    8  A    between atoms: C_7  and  N_8
REMARK    9  A    between atoms: C_9  and  C_25
REMARK   10  A    between atoms: C_28  and  C_31
REMARK   11  A    between atoms: C_31  and  O_33
REMARK   12  A    between atoms: O_33  and  C_34
REMARK                            x       y       z     vdW  Elec       q    Type
REMARK                         _______ _______ _______ _____ _____    ______ ____
ROOT
ATOM      1  N   UNL     1      -1.134   6.237  -0.844  0.00  0.00    -0.284 N 
ATOM      2  C   UNL     1      -0.046   5.747   0.011  0.00  0.00    +0.144 C 
ATOM      3  C   UNL     1      -0.354   6.243   1.400  0.00  0.00    +0.072 A 
ATOM      4  C   UNL     1       0.336   6.093   2.684  0.00  0.00    +0.199 A 
ATOM      5  O   UNL     1       1.376   5.466   2.781  0.00  0.00    -0.287 OA
ATOM      6  C   UNL     1      -0.291   6.739   3.853  0.00  0.00    +0.066 A 
ATOM      7  C   UNL     1       0.281   6.660   5.122  0.00  0.00    +0.035 A 
ATOM      8  C   UNL     1      -0.340   7.277   6.186  0.00  0.00    +0.042 A 
ATOM      9  C   UNL     1      -1.526   7.974   5.995  0.00  0.00    +0.023 A 
ATOM     10  C   UNL     1      -2.100   8.060   4.745  0.00  0.00    +0.048 A 
ATOM     11  C   UNL     1      -1.492   7.444   3.656  0.00  0.00    +0.140 A 
ATOM     12  O   UNL     1      -2.043   7.521   2.431  0.00  0.00    -0.450 OA
ATOM     13  C   UNL     1      -1.510   6.948   1.334  0.00  0.00    +0.199 A 
ATOM     14  C   UNL     1      -1.985   6.936  -0.073  0.00  0.00    +0.283 C 
ATOM     15  O   UNL     1      -2.996   7.480  -0.470  0.00  0.00    -0.267 OA
ATOM     16 CL   UNL     1       0.364   7.185   7.771  0.00  0.00    -0.084 Cl
ENDROOT
BRANCH   2  17
ATOM     17  C   UNL     1      -0.011   4.241  -0.006  0.00  0.00    -0.022 A 
ATOM     18  C   UNL     1       1.204   3.580  -0.042  0.00  0.00    +0.006 A 
ATOM     19  C   UNL     1       1.244   2.202  -0.059  0.00  0.00    +0.015 A 
ATOM     20  C   UNL     1       0.053   1.472  -0.040  0.00  0.00    +0.059 A 
ATOM     21  C   UNL     1      -1.170   2.145  -0.009  0.00  0.00    +0.015 A 
ATOM     22  C   UNL     1      -1.194   3.524   0.013  0.00  0.00    +0.006 A 
BRANCH  20  23
ATOM     23  C   UNL     1       0.088  -0.004  -0.058  0.00  0.00    +0.339 C 
ATOM     24  O   UNL     1       1.153  -0.587  -0.089  0.00  0.00    -0.245 OA
BRANCH  23  25
ATOM     25  O   UNL     1      -1.062  -0.705  -0.039  0.00  0.00    -0.464 OA
ATOM     26  C   UNL     1      -0.953  -2.153  -0.058  0.00  0.00    +0.280 C 
ENDBRANCH  23  25
ENDBRANCH  20  23
ENDBRANCH   2  17
BRANCH   1  27
ATOM     27  C   UNL     1      -1.268   6.007  -2.285  0.00  0.00    +0.107 C 
BRANCH  27  28
ATOM     28  C   UNL     1      -2.064   4.722  -2.523  0.00  0.00    +0.000 C 
BRANCH  28  29
ATOM     29  C   UNL     1      -2.204   4.481  -4.028  0.00  0.00    -0.077 C 
BRANCH  29  30
ATOM     30  N   UNL     1      -2.850   3.168  -4.239  0.00  0.00    +0.379 N 
ATOM     31  H   UNL     1      -2.448   2.490  -3.581  0.00  0.00    -0.082 HD
BRANCH  30  33
ATOM     32  C   UNL     1      -4.908   1.868  -3.997  0.00  0.00    -0.017 C 
ATOM     33  C   UNL     1      -4.303   3.274  -3.992  0.00  0.00    -0.082 C 
ENDBRANCH  30  33
BRANCH  30  34
ATOM     34  C   UNL     1      -2.605   2.701  -5.620  0.00  0.00    -0.082 C 
ATOM     35  C   UNL     1      -1.175   2.164  -5.710  0.00  0.00    -0.017 C 
ENDBRANCH  30  34
ENDBRANCH  29  30
ENDBRANCH  28  29
ENDBRANCH  27  28
ENDBRANCH   1  27
TORSDOF 9
