REMARK  Name = ZINC64610043
REMARK  7 active torsions:
REMARK  status: ('A' for Active; 'I' for Inactive)
REMARK    1  A    between atoms: C_1  and  C_2
REMARK    2  A    between atoms: C_3  and  C_25
REMARK    3  A    between atoms: C_12  and  C_14
REMARK    4  A    between atoms: C_14  and  C_15
REMARK    5  A    between atoms: C_15  and  C_16
REMARK    6  A    between atoms: C_25  and  N_26
REMARK    7  A    between atoms: C_27  and  C_29
REMARK                            x       y       z     vdW  Elec       q    Type
REMARK                         _______ _______ _______ _____ _____    ______ ____
ROOT
ATOM      1  C   UNL     1      -0.018   1.503   0.010  0.00  0.00    +0.066 C 
ATOM      2  C   UNL     1       0.002  -0.004   0.002  0.00  0.00    +0.043 A 
ATOM      3  C   UNL     1       0.006  -0.681  -1.201  0.00  0.00    -0.006 A 
ATOM      4  C   UNL     1       0.028  -2.072  -1.201  0.00  0.00    -0.033 A 
ATOM      5  C   UNL     1       0.052  -2.726   0.012  0.00  0.00    -0.008 A 
ATOM      6  C   UNL     1       0.040  -1.980   1.181  0.00  0.00    +0.116 A 
ATOM      7  N   UNL     1       0.022  -0.663   1.144  0.00  0.00    -0.260 NA
ATOM      8  C   UNL     1       0.104  -4.228   0.117  0.00  0.00    +0.144 C 
ATOM      9  N   UNL     1      -0.159  -4.820  -1.200  0.00  0.00    -0.297 N 
ATOM     10  C   UNL     1       0.522  -4.225  -2.361  0.00  0.00    +0.113 C 
ATOM     11  C   UNL     1       0.018  -2.791  -2.521  0.00  0.00    +0.055 C 
ATOM     12  C   UNL     1      -0.993  -5.870  -1.341  0.00  0.00    +0.216 C 
ATOM     13  O   UNL     1      -1.194  -6.341  -2.440  0.00  0.00    -0.276 OA
ENDROOT
BRANCH  12  14
ATOM     14  C   UNL     1      -1.675  -6.457  -0.132  0.00  0.00    +0.100 C 
BRANCH  14  15
ATOM     15  C   UNL     1      -2.559  -7.629  -0.565  0.00  0.00    +0.044 C 
BRANCH  15  16
ATOM     16  C   UNL     1      -3.242  -8.216   0.643  0.00  0.00    -0.043 A 
ATOM     17  C   UNL     1      -2.631  -9.233   1.354  0.00  0.00    +0.007 A 
ATOM     18  C   UNL     1      -3.253  -9.775   2.463  0.00  0.00    +0.050 A 
ATOM     19  C   UNL     1      -4.491  -9.300   2.866  0.00  0.00    +0.166 A 
ATOM     20  C   UNL     1      -5.106  -8.276   2.150  0.00  0.00    +0.166 A 
ATOM     21  C   UNL     1      -4.474  -7.734   1.042  0.00  0.00    +0.053 A 
ATOM     22  O   UNL     1      -6.303  -7.989   2.740  0.00  0.00    -0.453 OA
ATOM     23  C   UNL     1      -6.600  -9.122   3.577  0.00  0.00    +0.466 C 
ATOM     24  O   UNL     1      -5.302  -9.655   3.904  0.00  0.00    -0.453 OA
ENDBRANCH  15  16
ENDBRANCH  14  15
ENDBRANCH  12  14
BRANCH   3  25
ATOM     25  C   UNL     1      -0.015   0.080  -2.502  0.00  0.00    +0.141 C 
BRANCH  25  26
ATOM     26  N   UNL     1       1.359   0.349  -2.933  0.00  0.00    -0.309 N 
ATOM     27  C   UNL     1       1.587   1.022  -4.078  0.00  0.00    +0.240 C 
ATOM     28  O   UNL     1       0.654   1.404  -4.752  0.00  0.00    -0.273 OA
ATOM     29  H   UNL     1       2.105   0.043  -2.393  0.00  0.00    +0.149 HD
BRANCH  27  30
ATOM     30  C   UNL     1       3.000   1.299  -4.521  0.00  0.00    +0.190 C 
ATOM     31  C   UNL     1       3.703   2.172  -3.505  0.00  0.00    +0.016 C 
ATOM     32  C   UNL     1       4.046   3.305  -4.159  0.00  0.00    -0.004 A 
ATOM     33  C   UNL     1       4.742   4.526  -3.734  0.00  0.00    +0.010 A 
ATOM     34  C   UNL     1       4.945   5.513  -4.636  0.00  0.00    +0.001 A 
ATOM     35  C   UNL     1       4.508   5.399  -5.963  0.00  0.00    +0.002 A 
ATOM     36  C   UNL     1       3.863   4.309  -6.428  0.00  0.00    +0.026 A 
ATOM     37  C   UNL     1       3.596   3.209  -5.566  0.00  0.00    +0.043 A 
ATOM     38  N   UNL     1       2.997   2.060  -5.775  0.00  0.00    -0.370 N 
ATOM     39  H   UNL     1       2.616   1.764  -6.616  0.00  0.00    +0.161 HD
ENDBRANCH  27  30
ENDBRANCH  25  26
ENDBRANCH   3  25
TORSDOF 6
