REMARK  Name = ZINC00190041
REMARK  7 active torsions:
REMARK  status: ('A' for Active; 'I' for Inactive)
REMARK    1  A    between atoms: C_1  and  C_2
REMARK    2  A    between atoms: C_2  and  C_25
REMARK    3  A    between atoms: C_9  and  N_24
REMARK    4  A    between atoms: C_10  and  C_22
REMARK    5  A    between atoms: C_11  and  C_14
REMARK    6  A    between atoms: C_17  and  S_20
REMARK    7  A    between atoms: S_20  and  C_21
REMARK                            x       y       z     vdW  Elec       q    Type
REMARK                         _______ _______ _______ _____ _____    ______ ____
ROOT
ATOM      1  C   UNL     1       6.221  -4.262   6.098  0.00  0.00    +0.012 C 
ATOM      2  C   UNL     1       5.171  -4.449   7.195  0.00  0.00    -0.021 C 
ATOM      3  C   UNL     1       3.820  -3.941   6.698  0.00  0.00    +0.081 C 
ATOM      4  C   UNL     1       3.844  -2.454   6.481  0.00  0.00    +0.112 C 
ATOM      5  C   UNL     1       4.761  -1.644   7.111  0.00  0.00    +0.076 C 
ATOM      6  C   UNL     1       5.758  -2.210   8.019  0.00  0.00    +0.169 C 
ATOM      7  O   UNL     1       6.691  -1.546   8.421  0.00  0.00    -0.292 OA
ATOM      8  C   UNL     1       5.585  -3.655   8.441  0.00  0.00    +0.086 C 
ATOM      9  C   UNL     1       4.733  -0.190   6.851  0.00  0.00    +0.056 C 
ATOM     10  C   UNL     1       3.583   0.342   6.325  0.00  0.00    +0.095 C 
ATOM     11  C   UNL     1       2.428  -0.585   6.031  0.00  0.00    +0.245 C 
ATOM     12  O   UNL     1       2.941  -1.890   5.654  0.00  0.00    -0.482 OA
ATOM     13  C   UNL     1       5.061  -5.934   7.548  0.00  0.00    +0.012 C 
ENDROOT
BRANCH  11  14
ATOM     14  C   UNL     1       1.607  -0.021   4.900  0.00  0.00    -0.002 A 
ATOM     15  C   UNL     1       0.490   0.747   5.174  0.00  0.00    +0.009 A 
ATOM     16  C   UNL     1      -0.265   1.264   4.140  0.00  0.00    +0.015 A 
ATOM     17  C   UNL     1       0.099   1.013   2.823  0.00  0.00    +0.008 A 
ATOM     18  C   UNL     1       1.219   0.236   2.551  0.00  0.00    +0.015 A 
ATOM     19  C   UNL     1       1.972  -0.273   3.590  0.00  0.00    +0.009 A 
BRANCH  17  20
ATOM     20  S   UNL     1      -0.862   1.671   1.500  0.00  0.00    -0.129 S 
ATOM     21  C   UNL     1      -0.013   1.086   0.008  0.00  0.00    +0.090 C 
ENDBRANCH  17  20
ENDBRANCH  11  14
BRANCH   9  22
ATOM     22  N   UNL     1       5.825   0.605   7.130  0.00  0.00    -0.356 N 
ATOM     23  H   UNL     1       5.784   1.686   6.929  0.00  0.00    +0.142 HD
ATOM     24  H   UNL     1       6.737   0.158   7.552  0.00  0.00    +0.142 HD
ENDBRANCH   9  22
BRANCH  10  25
ATOM     25  C   UNL     1       3.482   1.746   6.059  0.00  0.00    +0.101 C 
ATOM     26  N   UNL     1       3.401   2.859   5.848  0.00  0.00    -0.191 NA
ENDBRANCH  10  25
TORSDOF 4
