REMARK  Name = ZINC40085171
REMARK  15 active torsions:
REMARK  status: ('A' for Active; 'I' for Inactive)
REMARK    1  A    between atoms: C_1  and  C_2
REMARK    2  A    between atoms: C_4  and  C_10
REMARK    3  A    between atoms: C_7  and  O_8
REMARK    4  A    between atoms: O_8  and  C_9
REMARK    5  A    between atoms: C_10  and  C_12
REMARK    6  A    between atoms: N_16  and  C_28
REMARK    7  A    between atoms: C_17  and  C_19
REMARK    8  A    between atoms: C_22  and  N_25
REMARK    9  A    between atoms: N_25  and  C_26
REMARK   10  A    between atoms: N_25  and  C_27
REMARK   11  A    between atoms: C_28  and  C_29
REMARK   12  A    between atoms: C_29  and  O_30
REMARK   13  A    between atoms: O_30  and  C_31
REMARK   14  A    between atoms: C_31  and  C_32
REMARK   15  A    between atoms: C_32  and  O_33
REMARK                            x       y       z     vdW  Elec       q    Type
REMARK                         _______ _______ _______ _____ _____    ______ ____
ROOT
ATOM      1  C   UNL     1       0.088  -4.298  -2.600  0.00  0.00    +0.076 C 
ATOM      2  C   UNL     1       0.180  -5.044  -3.726  0.00  0.00    +0.249 C 
ATOM      3  C   UNL     1       0.248  -6.474  -3.357  0.00  0.00    +0.288 C 
ATOM      4  O   UNL     1       0.336  -7.394  -4.146  0.00  0.00    -0.266 OA
ATOM      5  N   UNL     1       0.199  -6.606  -2.019  0.00  0.00    -0.281 N 
ATOM      6  C   UNL     1       0.102  -5.262  -1.437  0.00  0.00    +0.145 C 
ATOM      7  O   UNL     1       0.205  -4.558  -4.989  0.00  0.00    -0.282 OA
ENDROOT
BRANCH   6   8
ATOM      8  C   UNL     1      -1.173  -5.135  -0.644  0.00  0.00    -0.022 A 
ATOM      9  C   UNL     1      -2.313  -5.799  -1.060  0.00  0.00    +0.007 A 
ATOM     10  C   UNL     1      -3.483  -5.685  -0.336  0.00  0.00    +0.023 A 
ATOM     11  C   UNL     1      -3.515  -4.902   0.811  0.00  0.00    +0.029 A 
ATOM     12  C   UNL     1      -2.369  -4.237   1.226  0.00  0.00    +0.023 A 
ATOM     13  C   UNL     1      -1.200  -4.360   0.501  0.00  0.00    +0.007 A 
BRANCH  11  14
ATOM     14  N   UNL     1      -4.697  -4.785   1.546  0.00  0.00    -0.336 N 
ATOM     15  C   UNL     1      -5.906  -5.487   1.106  0.00  0.00    +0.129 C 
ATOM     16  C   UNL     1      -4.729  -3.959   2.755  0.00  0.00    +0.129 C 
ENDBRANCH  11  14
ENDBRANCH   6   8
BRANCH   1  17
ATOM     17  C   UNL     1      -0.001  -2.837  -2.525  0.00  0.00    +0.195 C 
ATOM     18  O   UNL     1      -0.989  -2.265  -2.945  0.00  0.00    -0.287 OA
BRANCH  17  22
ATOM     19  C   UNL     1       2.050   1.566  -1.389  0.00  0.00    +0.047 C 
ATOM     20  C   UNL     1       2.099   0.059  -1.390  0.00  0.00    -0.008 A 
ATOM     21  C   UNL     1       1.062  -0.662  -1.938  0.00  0.00    +0.018 A 
ATOM     22  C   UNL     1       1.109  -2.059  -1.938  0.00  0.00    +0.023 A 
ATOM     23  C   UNL     1       2.210  -2.718  -1.382  0.00  0.00    +0.015 A 
ATOM     24  C   UNL     1       3.242  -1.990  -0.836  0.00  0.00    +0.046 A 
ATOM     25  C   UNL     1       3.194  -0.600  -0.843  0.00  0.00    +0.123 A 
BRANCH  25  26
ATOM     26  O   UNL     1       4.216   0.115  -0.308  0.00  0.00    -0.495 OA
ATOM     27  C   UNL     1       5.310  -0.625   0.237  0.00  0.00    +0.277 C 
ENDBRANCH  25  26
ENDBRANCH  17  22
ENDBRANCH   1  17
BRANCH   5  28
ATOM     28  C   UNL     1       0.241  -7.867  -1.275  0.00  0.00    +0.137 C 
BRANCH  28  29
ATOM     29  C   UNL     1       1.694  -8.222  -0.955  0.00  0.00    +0.179 C 
BRANCH  29  30
ATOM     30  O   UNL     1       2.239  -7.243  -0.069  0.00  0.00    -0.376 OA
BRANCH  30  31
ATOM     31  C   UNL     1       3.600  -7.482   0.296  0.00  0.00    +0.187 C 
BRANCH  31  32
ATOM     32  C   UNL     1       4.077  -6.377   1.241  0.00  0.00    +0.184 C 
BRANCH  32  33
ATOM     33  O   UNL     1       3.341  -6.446   2.464  0.00  0.00    -0.393 OA
ATOM     34  H   UNL     1       3.591  -5.773   3.112  0.00  0.00    +0.209 HD
ENDBRANCH  32  33
ENDBRANCH  31  32
ENDBRANCH  30  31
ENDBRANCH  29  30
ENDBRANCH  28  29
ENDBRANCH   5  28
TORSDOF 11
