REMARK  Name = ZINC39845577
REMARK  6 active torsions:
REMARK  status: ('A' for Active; 'I' for Inactive)
REMARK    1  A    between atoms: C_5  and  C_7
REMARK    2  A    between atoms: C_9  and  S_21
REMARK    3  A    between atoms: C_10  and  N_12
REMARK    4  A    between atoms: N_12  and  C_13
REMARK    5  A    between atoms: C_13  and  C_14
REMARK    6  A    between atoms: S_21  and  C_24
REMARK                            x       y       z     vdW  Elec       q    Type
REMARK                         _______ _______ _______ _____ _____    ______ ____
ROOT
ATOM      1  C   UNL     1       1.250  -2.159  -0.022  0.00  0.00    +0.233 A 
ATOM      2  N   UNL     1       0.199  -2.944  -0.021  0.00  0.00    -0.188 NA
ATOM      3  C   UNL     1       0.613  -4.220  -0.031  0.00  0.00    +0.243 A 
ATOM      4  C   UNL     1       1.968  -4.214  -0.038  0.00  0.00    +0.233 A 
ATOM      5  O   UNL     1       2.359  -2.924  -0.038  0.00  0.00    -0.420 OA
ENDROOT
BRANCH   1  10
ATOM      6  C   UNL     1      -0.017   1.375   0.010  0.00  0.00    +0.001 A 
ATOM      7  C   UNL     1       1.170   2.087   0.002  0.00  0.00    +0.001 A 
ATOM      8  C   UNL     1       2.383   1.422  -0.013  0.00  0.00    +0.021 A 
ATOM      9  C   UNL     1       2.417   0.042  -0.021  0.00  0.00    +0.053 A 
ATOM     10  C   UNL     1       1.222  -0.683  -0.013  0.00  0.00    +0.055 A 
ATOM     11  C   UNL     1       0.002  -0.004   0.002  0.00  0.00    +0.014 A 
ATOM     12 CL   UNL     1       3.940  -0.791  -0.042  0.00  0.00    -0.083 Cl
ENDBRANCH   1  10
BRANCH   3  13
ATOM     13  S   UNL     1      -0.420  -5.647  -0.034  0.00  0.00    +0.047 S 
ATOM     14  O   UNL     1       0.353  -6.709   0.508  0.00  0.00    -0.163 OA
ATOM     15  O   UNL     1      -1.665  -5.249   0.526  0.00  0.00    -0.163 OA
BRANCH  13  16
ATOM     16  C   UNL     1      -0.734  -6.060  -1.718  0.00  0.00    +0.096 A 
ATOM     17  C   UNL     1      -1.824  -5.515  -2.371  0.00  0.00    +0.029 A 
ATOM     18  C   UNL     1      -2.070  -5.839  -3.692  0.00  0.00    +0.022 A 
ATOM     19  C   UNL     1      -1.226  -6.707  -4.360  0.00  0.00    +0.041 A 
ATOM     20  C   UNL     1      -0.136  -7.252  -3.706  0.00  0.00    +0.022 A 
ATOM     21  C   UNL     1       0.113  -6.923  -2.386  0.00  0.00    +0.029 A 
ATOM     22 CL   UNL     1      -1.535  -7.114  -6.019  0.00  0.00    -0.084 Cl
ENDBRANCH  13  16
ENDBRANCH   3  13
BRANCH   4  23
ATOM     23  N   UNL     1       2.799  -5.329  -0.048  0.00  0.00    -0.308 N 
ATOM     24  H   UNL     1       2.415  -6.220  -0.052  0.00  0.00    +0.149 HD
BRANCH  23  25
ATOM     25  C   UNL     1       4.254  -5.159  -0.055  0.00  0.00    +0.139 C 
BRANCH  25  26
ATOM     26  C   UNL     1       4.918  -6.511  -0.066  0.00  0.00    -0.030 A 
ATOM     27  C   UNL     1       5.223  -7.141   1.126  0.00  0.00    +0.006 A 
ATOM     28  C   UNL     1       5.832  -8.382   1.116  0.00  0.00    +0.020 A 
ATOM     29  C   UNL     1       6.136  -8.993  -0.087  0.00  0.00    +0.041 A 
ATOM     30  C   UNL     1       5.830  -8.363  -1.280  0.00  0.00    +0.020 A 
ATOM     31  C   UNL     1       5.216  -7.125  -1.269  0.00  0.00    +0.006 A 
ATOM     32 CL   UNL     1       6.902 -10.552  -0.100  0.00  0.00    -0.084 Cl
ENDBRANCH  25  26
ENDBRANCH  23  25
ENDBRANCH   4  23
TORSDOF 6
