REMARK  Name = ZINC01192195
REMARK  10 active torsions:
REMARK  status: ('A' for Active; 'I' for Inactive)
REMARK    1  A    between atoms: C_1  and  C_2
REMARK    2  A    between atoms: C_5  and  N_8
REMARK    3  A    between atoms: C_11  and  C_16
REMARK    4  A    between atoms: C_13  and  C_15
REMARK    5  A    between atoms: C_16  and  C_17
REMARK    6  A    between atoms: C_16  and  C_26
REMARK    7  A    between atoms: C_21  and  N_23
REMARK    8  A    between atoms: C_28  and  C_40
REMARK    9  A    between atoms: N_30  and  C_33
REMARK   10  A    between atoms: C_36  and  C_39
REMARK                            x       y       z     vdW  Elec       q    Type
REMARK                         _______ _______ _______ _____ _____    ______ ____
ROOT
ATOM      1  C   UNL     1       1.446  -7.207   1.102  0.00  0.00    +0.054 C 
ENDROOT
BRANCH   1   5
ATOM      2  N   UNL     1       0.114  -4.234   0.258  0.00  0.00    -0.160 N 
ATOM      3  C   UNL     1       0.178  -5.058   1.325  0.00  0.00    +0.249 C 
ATOM      4  O   UNL     1       0.236  -4.747   2.496  0.00  0.00    -0.273 OA
ATOM      5  C   UNL     1       0.162  -6.458   0.742  0.00  0.00    +0.131 C 
ATOM      6  C   UNL     1       0.081  -6.219  -0.752  0.00  0.00    +0.047 C 
ATOM      7  N   UNL     1       0.053  -4.956  -0.930  0.00  0.00    -0.181 NA
ATOM      8  C   UNL     1       0.035  -7.275  -1.826  0.00  0.00    +0.063 C 
BRANCH   2  13
ATOM      9  C   UNL     1       0.073   1.431   0.576  0.00  0.00    +0.044 C 
ATOM     10  C   UNL     1       0.084  -0.074   0.492  0.00  0.00    -0.050 A 
ATOM     11  C   UNL     1       0.020  -0.696  -0.742  0.00  0.00    +0.005 A 
ATOM     12  C   UNL     1       0.030  -2.075  -0.823  0.00  0.00    +0.026 A 
ATOM     13  C   UNL     1       0.104  -2.837   0.337  0.00  0.00    +0.060 A 
ATOM     14  C   UNL     1       0.168  -2.208   1.574  0.00  0.00    +0.026 A 
ATOM     15  C   UNL     1       0.164  -0.829   1.647  0.00  0.00    +0.005 A 
ENDBRANCH   2  13
ENDBRANCH   1   5
BRANCH   1  16
ATOM     16  C   UNL     1       1.327  -8.666   0.658  0.00  0.00    +0.131 C 
ATOM     17  C   UNL     1       2.427  -9.503   1.278  0.00  0.00    +0.047 C 
ATOM     18  N   UNL     1       1.862 -10.388   2.004  0.00  0.00    -0.181 NA
ATOM     19  N   UNL     1       0.474 -10.301   1.992  0.00  0.00    -0.160 N 
ATOM     20  C   UNL     1       0.054  -9.287   1.201  0.00  0.00    +0.249 C 
ATOM     21  O   UNL     1      -1.088  -8.947   0.975  0.00  0.00    -0.273 OA
ATOM     22  C   UNL     1       3.909  -9.325   1.075  0.00  0.00    +0.063 C 
BRANCH  19  23
ATOM     23  C   UNL     1      -0.379 -11.153   2.704  0.00  0.00    +0.060 A 
ATOM     24  C   UNL     1      -1.756 -10.989   2.621  0.00  0.00    +0.026 A 
ATOM     25  C   UNL     1      -2.594 -11.831   3.324  0.00  0.00    +0.005 A 
ATOM     26  C   UNL     1      -2.064 -12.838   4.111  0.00  0.00    -0.050 A 
ATOM     27  C   UNL     1      -0.694 -13.004   4.196  0.00  0.00    +0.005 A 
ATOM     28  C   UNL     1       0.150 -12.169   3.490  0.00  0.00    +0.026 A 
ATOM     29  C   UNL     1      -2.982 -13.755   4.877  0.00  0.00    +0.044 C 
ENDBRANCH  19  23
ENDBRANCH   1  16
BRANCH   1  30
ATOM     30  C   UNL     1       1.660  -7.151   2.592  0.00  0.00    -0.040 A 
ATOM     31  C   UNL     1       0.715  -7.688   3.447  0.00  0.00    +0.004 A 
ATOM     32  C   UNL     1       0.910  -7.637   4.814  0.00  0.00    +0.002 A 
ATOM     33  C   UNL     1       2.051  -7.048   5.327  0.00  0.00    +0.033 A 
ATOM     34  C   UNL     1       2.996  -6.511   4.473  0.00  0.00    +0.126 A 
ATOM     35  C   UNL     1       2.802  -6.567   3.106  0.00  0.00    +0.036 A 
BRANCH  34  36
ATOM     36  N   UNL     1       4.217  -5.881   5.023  0.00  0.00    +0.056 N 
ATOM     37  O   UNL     1       4.388  -5.835   6.219  0.00  0.00    -0.126 OA
ATOM     38  O   UNL     1       5.044  -5.411   4.276  0.00  0.00    -0.126 OA
ENDBRANCH  34  36
ENDBRANCH   1  30
TORSDOF 6
