REMARK  Name = ZINC13374904
REMARK  7 active torsions:
REMARK  status: ('A' for Active; 'I' for Inactive)
REMARK    1  A    between atoms: C_1  and  C_2
REMARK    2  A    between atoms: N_5  and  S_11
REMARK    3  A    between atoms: C_7  and  C_10
REMARK    4  A    between atoms: S_11  and  C_14
REMARK    5  A    between atoms: C_17  and  C_20
REMARK    6  A    between atoms: C_20  and  N_22
REMARK    7  A    between atoms: N_24  and  C_34
REMARK                            x       y       z     vdW  Elec       q    Type
REMARK                         _______ _______ _______ _____ _____    ______ ____
ROOT
ATOM      1  C   UNL     1      -4.194   0.645   4.542  0.00  0.00    +0.106 A 
ATOM      2  C   UNL     1      -3.355   1.280   5.441  0.00  0.00    +0.029 A 
ATOM      3  C   UNL     1      -3.771   2.427   6.085  0.00  0.00    +0.015 A 
ATOM      4  C   UNL     1      -5.043   2.941   5.836  0.00  0.00    +0.039 A 
ATOM      5  C   UNL     1      -5.887   2.293   4.933  0.00  0.00    +0.015 A 
ATOM      6  C   UNL     1      -5.457   1.149   4.292  0.00  0.00    +0.029 A 
ENDROOT
BRANCH   1   7
ATOM      7  S   UNL     1      -3.654  -0.817   3.720  0.00  0.00    +0.061 S 
ATOM      8  O   UNL     1      -4.825  -1.529   3.346  0.00  0.00    -0.153 OA
ATOM      9  O   UNL     1      -2.640  -1.390   4.534  0.00  0.00    -0.153 OA
BRANCH   7  13
ATOM     10  C   UNL     1      -3.636  -0.679  -1.386  0.00  0.00    +0.039 C 
ATOM     11  C   UNL     1      -2.966  -0.970  -0.041  0.00  0.00    +0.131 C 
ATOM     12  C   UNL     1      -3.689  -0.197   1.068  0.00  0.00    +0.140 C 
ATOM     13  N   UNL     1      -2.918  -0.343   2.313  0.00  0.00    -0.172 NA
ATOM     14  C   UNL     1      -1.476  -0.057   2.272  0.00  0.00    +0.140 C 
ATOM     15  C   UNL     1      -0.861  -0.836   1.104  0.00  0.00    +0.131 C 
ATOM     16  O   UNL     1      -1.597  -0.557  -0.089  0.00  0.00    -0.371 OA
ATOM     17  C   UNL     1       0.597  -0.411   0.916  0.00  0.00    +0.039 C 
ENDBRANCH   7  13
ENDBRANCH   1   7
BRANCH   4  18
ATOM     18  C   UNL     1      -5.498   4.169   6.528  0.00  0.00    +0.269 C 
ATOM     19  O   UNL     1      -6.610   4.616   6.308  0.00  0.00    -0.268 OA
BRANCH  18  20
ATOM     20  N   UNL     1      -4.688   4.788   7.392  0.00  0.00    -0.152 NA
ATOM     21  C   UNL     1      -5.095   5.890   8.013  0.00  0.00    +0.167 A 
ATOM     22  N   UNL     1      -4.418   6.649   8.916  0.00  0.00    -0.323 N 
ATOM     23  C   UNL     1      -5.013   7.773   9.461  0.00  0.00    +0.076 A 
ATOM     24  C   UNL     1      -6.314   8.031   9.007  0.00  0.00    +0.042 A 
ATOM     25  S   UNL     1      -6.615   6.711   7.860  0.00  0.00    -0.052 S 
ATOM     26  C   UNL     1      -7.048   9.108   9.445  0.00  0.00    +0.037 A 
ATOM     27  C   UNL     1      -6.499   9.980  10.370  0.00  0.00    +0.044 A 
ATOM     28  C   UNL     1      -5.215   9.750  10.837  0.00  0.00    +0.042 A 
ATOM     29  C   UNL     1      -4.479   8.673  10.398  0.00  0.00    +0.067 A 
ATOM     30 CL   UNL     1      -2.874   8.424  11.009  0.00  0.00    -0.081 Cl
ATOM     31 CL   UNL     1      -7.408  11.345  10.938  0.00  0.00    -0.083 Cl
ATOM     32  C   UNL     1      -3.059   6.275   9.313  0.00  0.00    +0.151 C 
ENDBRANCH  18  20
ENDBRANCH   4  18
TORSDOF 4
