REMARK  Name = ZINC09410930
REMARK  5 active torsions:
REMARK  status: ('A' for Active; 'I' for Inactive)
REMARK    1  A    between atoms: C_4  and  C_7
REMARK    2  A    between atoms: C_7  and  N_9
REMARK    3  A    between atoms: N_11  and  C_22
REMARK    4  A    between atoms: C_25  and  O_28
REMARK    5  A    between atoms: O_28  and  C_29
REMARK                            x       y       z     vdW  Elec       q    Type
REMARK                         _______ _______ _______ _____ _____    ______ ____
ROOT
ATOM      1  N   UNL     1       3.727  -2.019  -0.086  0.00  0.00    -0.155 NA
ATOM      2  C   UNL     1       4.883  -2.668  -0.081  0.00  0.00    +0.154 C 
ATOM      3  N   UNL     1       5.087  -4.024  -0.076  0.00  0.00    -0.276 N 
ATOM      4  C   UNL     1       6.380  -4.531   0.308  0.00  0.00    +0.116 C 
ATOM      5  C   UNL     1       6.322  -5.632   1.366  0.00  0.00    +0.190 C 
ATOM      6  S   UNL     1       7.123  -4.864   2.829  0.00  0.00    -0.028 S 
ATOM      7  O   UNL     1       6.151  -4.702   3.853  0.00  0.00    -0.174 OA
ATOM      8  O   UNL     1       8.328  -5.562   3.114  0.00  0.00    -0.174 OA
ATOM      9  C   UNL     1       7.539  -3.215   2.138  0.00  0.00    +0.182 C 
ATOM     10  C   UNL     1       7.417  -3.442   0.626  0.00  0.00    +0.097 C 
ATOM     11  S   UNL     1       6.531  -1.977  -0.086  0.00  0.00    -0.086 S 
ENDROOT
BRANCH   3  12
ATOM     12  C   UNL     1       4.057  -4.900  -0.439  0.00  0.00    +0.036 A 
ATOM     13  C   UNL     1       2.783  -4.408  -0.692  0.00  0.00    +0.027 A 
ATOM     14  C   UNL     1       1.768  -5.273  -1.050  0.00  0.00    +0.048 A 
ATOM     15  C   UNL     1       2.020  -6.633  -1.156  0.00  0.00    +0.130 A 
ATOM     16  C   UNL     1       3.292  -7.125  -0.903  0.00  0.00    +0.048 A 
ATOM     17  C   UNL     1       4.310  -6.261  -0.551  0.00  0.00    +0.027 A 
BRANCH  15  18
ATOM     18  O   UNL     1       1.020  -7.484  -1.508  0.00  0.00    -0.406 OA
BRANCH  18  19
ATOM     19  C   UNL     1       1.350  -8.871  -1.599  0.00  0.00    +0.575 C 
ATOM     20  F   UNL     1       1.809  -9.324  -0.357  0.00  0.00    -0.133 F 
ATOM     21  F   UNL     1       0.214  -9.598  -1.970  0.00  0.00    -0.133 F 
ATOM     22  F   UNL     1       2.352  -9.050  -2.560  0.00  0.00    -0.133 F 
ENDBRANCH  18  19
ENDBRANCH  15  18
ENDBRANCH   3  12
BRANCH   1  23
ATOM     23  C   UNL     1       3.712  -0.680  -0.096  0.00  0.00    +0.269 C 
ATOM     24  O   UNL     1       4.760  -0.059  -0.100  0.00  0.00    -0.268 OA
BRANCH  23  28
ATOM     25  C   UNL     1       0.007   1.402  -0.114  0.00  0.00    +0.000 A 
ATOM     26  C   UNL     1       1.196   2.111  -0.117  0.00  0.00    +0.001 A 
ATOM     27  C   UNL     1       2.402   1.440  -0.112  0.00  0.00    +0.013 A 
ATOM     28  C   UNL     1       2.421   0.045  -0.101  0.00  0.00    +0.039 A 
ATOM     29  C   UNL     1       1.219  -0.663  -0.097  0.00  0.00    +0.013 A 
ATOM     30  C   UNL     1       0.020   0.019  -0.104  0.00  0.00    +0.001 A 
ENDBRANCH  23  28
ENDBRANCH   1  23
TORSDOF 5
