REMARK  Name = ZINC04584604
REMARK  7 active torsions:
REMARK  status: ('A' for Active; 'I' for Inactive)
REMARK    1  A    between atoms: C_1  and  C_2
REMARK    2  A    between atoms: C_2  and  C_3
REMARK    3  A    between atoms: C_8  and  O_28
REMARK    4  A    between atoms: C_9  and  C_11
REMARK    5  A    between atoms: C_11  and  C_13
REMARK    6  A    between atoms: C_11  and  N_23
REMARK    7  A    between atoms: C_16  and  C_19
REMARK                            x       y       z     vdW  Elec       q    Type
REMARK                         _______ _______ _______ _____ _____    ______ ____
ROOT
ATOM      1  C   UNL     1       4.172  -2.393  -5.702  0.00  0.00    +0.005 C 
ENDROOT
BRANCH   1   8
ATOM      2  C   UNL     1       0.707  -0.490  -1.238  0.00  0.00    +0.152 A 
ATOM      3  N   UNL     1       0.124  -0.743  -2.408  0.00  0.00    -0.205 NA
ATOM      4  C   UNL     1       1.025  -1.146  -3.261  0.00  0.00    +0.199 A 
ATOM      5  N   UNL     1       2.247  -1.167  -2.660  0.00  0.00    -0.173 N 
ATOM      6  N   UNL     1       1.988  -0.724  -1.336  0.00  0.00    -0.147 NA
ATOM      7  C   UNL     1       3.316  -1.572  -3.422  0.00  0.00    +0.225 A 
ATOM      8  C   UNL     1       3.147  -1.926  -4.701  0.00  0.00    +0.045 A 
ATOM      9  S   UNL     1       1.388  -1.698  -4.910  0.00  0.00    -0.050 S 
BRANCH   2  11
ATOM     10  C   UNL     1      -0.019   1.526   0.010  0.00  0.00    +0.012 C 
ATOM     11  C   UNL     1       0.002  -0.004   0.002  0.00  0.00    +0.075 C 
ENDBRANCH   2  11
BRANCH   7  12
ATOM     12  O   UNL     1       4.559  -1.612  -2.870  0.00  0.00    -0.492 OA
ATOM     13  H   UNL     1       4.587  -1.339  -1.943  0.00  0.00    +0.294 HD
ENDBRANCH   7  12
ENDBRANCH   1   8
BRANCH   1  14
ATOM     14  C   UNL     1       4.283  -1.383  -6.815  0.00  0.00    -0.056 A 
ATOM     15  C   UNL     1       3.343  -1.365  -7.829  0.00  0.00    +0.003 A 
ATOM     16  C   UNL     1       3.445  -0.439  -8.850  0.00  0.00    +0.012 A 
ATOM     17  C   UNL     1       4.486   0.470  -8.857  0.00  0.00    +0.055 A 
ATOM     18  C   UNL     1       5.426   0.454  -7.843  0.00  0.00    +0.012 A 
ATOM     19  C   UNL     1       5.321  -0.470  -6.820  0.00  0.00    +0.003 A 
BRANCH  17  20
ATOM     20  C   UNL     1       4.598   1.480  -9.971  0.00  0.00    +0.417 C 
ATOM     21  F   UNL     1       3.898   2.639  -9.621  0.00  0.00    -0.166 F 
ATOM     22  F   UNL     1       5.945   1.794 -10.182  0.00  0.00    -0.166 F 
ATOM     23  F   UNL     1       4.055   0.943 -11.143  0.00  0.00    -0.166 F 
ENDBRANCH  17  20
ENDBRANCH   1  14
BRANCH   1  24
ATOM     24  N   UNL     1       3.760  -3.689  -6.257  0.00  0.00    +0.387 N 
ATOM     25  C   UNL     1       4.801  -4.205  -7.181  0.00  0.00    -0.078 C 
ATOM     26  C   UNL     1       4.519  -5.728  -7.219  0.00  0.00    -0.020 C 
ATOM     27  C   UNL     1       4.109  -6.040  -5.761  0.00  0.00    -0.020 C 
ATOM     28  C   UNL     1       3.646  -4.693  -5.176  0.00  0.00    -0.078 C 
ATOM     29  H   UNL     1       2.879  -3.597  -6.740  0.00  0.00    -0.080 HD
ENDBRANCH   1  24
TORSDOF 6
