REMARK  Name = ZINC45148168
REMARK  3 active torsions:
REMARK  status: ('A' for Active; 'I' for Inactive)
REMARK    1  A    between atoms: C_3  and  N_21
REMARK    2  A    between atoms: C_4  and  S_8
REMARK    3  A    between atoms: S_8  and  N_11
REMARK                            x       y       z     vdW  Elec       q    Type
REMARK                         _______ _______ _______ _____ _____    ______ ____
ROOT
ATOM      1  S   UNL     1       3.874  -0.902  -0.386  0.00  0.00    +0.106 S 
ATOM      2  O   UNL     1       3.552  -2.058  -1.147  0.00  0.00    -0.146 OA
ATOM      3  O   UNL     1       4.853   0.039  -0.806  0.00  0.00    -0.146 OA
ENDROOT
BRANCH   1   4
ATOM      4  N   UNL     1       4.342  -1.436   1.110  0.00  0.00    -0.103 NA
ATOM      5  C   UNL     1       5.440  -2.139   1.241  0.00  0.00    +0.192 A 
ATOM      6  N   UNL     1       6.341  -2.534   0.282  0.00  0.00    -0.336 N 
ATOM      7  C   UNL     1       7.444  -3.279   0.646  0.00  0.00    +0.028 A 
ATOM      8  C   UNL     1       7.582  -3.583   1.942  0.00  0.00    +0.012 A 
ATOM      9  S   UNL     1       6.173  -2.833   2.716  0.00  0.00    -0.053 S 
ATOM     10  C   UNL     1       8.677  -4.371   2.589  0.00  0.00    +0.044 C 
ATOM     11  C   UNL     1       9.459  -5.108   1.492  0.00  0.00    +0.006 C 
ATOM     12  C   UNL     1       9.769  -4.117   0.365  0.00  0.00    +0.006 C 
ATOM     13  C   UNL     1       8.481  -3.750  -0.371  0.00  0.00    +0.054 C 
ATOM     14  H   UNL     1       6.202  -2.292  -0.646  0.00  0.00    +0.168 HD
ENDBRANCH   1   4
BRANCH   1  18
ATOM     15  C   UNL     1       0.011   1.405   0.161  0.00  0.00    +0.005 A 
ATOM     16  C   UNL     1       1.220   2.017   0.430  0.00  0.00    +0.025 A 
ATOM     17  C   UNL     1       2.405   1.313   0.263  0.00  0.00    +0.055 A 
ATOM     18  C   UNL     1       2.372  -0.005  -0.173  0.00  0.00    +0.168 A 
ATOM     19  C   UNL     1       1.159  -0.613  -0.440  0.00  0.00    +0.152 A 
ATOM     20  C   UNL     1      -0.021   0.093  -0.273  0.00  0.00    +0.040 A 
ATOM     21  F   UNL     1       1.125  -1.895  -0.865  0.00  0.00    -0.203 F 
BRANCH  17  22
ATOM     22  N   UNL     1       3.629   1.930   0.534  0.00  0.00    -0.356 N 
ATOM     23  H   UNL     1       3.668   2.889   0.676  0.00  0.00    +0.142 HD
ATOM     24  H   UNL     1       4.440   1.400   0.579  0.00  0.00    +0.142 HD
ENDBRANCH  17  22
ENDBRANCH   1  18
TORSDOF 3
