REMARK  Name = ZINC63480264
REMARK  11 active torsions:
REMARK  status: ('A' for Active; 'I' for Inactive)
REMARK    1  A    between atoms: C_1  and  C_2
REMARK    2  A    between atoms: C_7  and  O_32
REMARK    3  A    between atoms: C_13  and  C_15
REMARK    4  A    between atoms: C_15  and  C_16
REMARK    5  A    between atoms: C_16  and  C_17
REMARK    6  A    between atoms: N_19  and  C_20
REMARK    7  A    between atoms: C_20  and  C_21
REMARK    8  A    between atoms: C_21  and  C_22
REMARK    9  A    between atoms: O_32  and  C_33
REMARK   10  A    between atoms: C_33  and  C_34
REMARK   11  A    between atoms: C_34  and  C_36
REMARK                            x       y       z     vdW  Elec       q    Type
REMARK                         _______ _______ _______ _____ _____    ______ ____
ROOT
ATOM      1  C   UNL     1       0.441  -1.995   1.458  0.00  0.00    +0.024 C 
ENDROOT
BRANCH   1  13
ATOM      2  C   UNL     1      -0.019   1.526   0.010  0.00  0.00    +0.013 C 
ATOM      3  C   UNL     1       0.002  -0.004   0.002  0.00  0.00    +0.033 C 
ATOM      4  C   UNL     1       0.705  -0.489  -1.241  0.00  0.00    -0.001 A 
ATOM      5  C   UNL     1      -0.004  -0.514  -2.432  0.00  0.00    +0.011 A 
ATOM      6  C   UNL     1       0.599  -0.943  -3.596  0.00  0.00    +0.046 A 
ATOM      7  C   UNL     1       1.925  -1.353  -3.580  0.00  0.00    +0.124 A 
ATOM      8  C   UNL     1       2.636  -1.332  -2.392  0.00  0.00    +0.092 A 
ATOM      9  C   UNL     1       2.025  -0.903  -1.219  0.00  0.00    +0.139 A 
ATOM     10  O   UNL     1       2.754  -0.916  -0.069  0.00  0.00    -0.425 OA
ATOM     11  C   UNL     1       2.223  -0.312   1.012  0.00  0.00    +0.316 C 
ATOM     12  O   UNL     1       2.898   0.355   1.760  0.00  0.00    -0.250 OA
ATOM     13  C   UNL     1       0.740  -0.510   1.245  0.00  0.00    +0.106 C 
BRANCH   7  14
ATOM     14  O   UNL     1       2.524  -1.772  -4.725  0.00  0.00    -0.488 OA
BRANCH  14  15
ATOM     15  C   UNL     1       1.728  -1.766  -5.912  0.00  0.00    +0.259 C 
BRANCH  15  16
ATOM     16  C   UNL     1       2.554  -2.259  -7.073  0.00  0.00    -0.043 C 
ATOM     17  C   UNL     1       3.803  -2.610  -6.886  0.00  0.00    +0.011 C 
ATOM     18  C   UNL     1       1.944  -2.349  -8.448  0.00  0.00    +0.042 C 
ENDBRANCH  15  16
ENDBRANCH  14  15
ENDBRANCH   7  14
ENDBRANCH   1  13
BRANCH   1  19
ATOM     19  C   UNL     1       1.079  -2.462   2.768  0.00  0.00    +0.096 C 
BRANCH  19  20
ATOM     20  C   UNL     1       0.785  -3.925   2.977  0.00  0.00    +0.213 C 
ATOM     21  O   UNL     1       0.129  -4.535   2.159  0.00  0.00    -0.276 OA
ATOM     22  N   UNL     1       1.250  -4.556   4.074  0.00  0.00    -0.315 N 
ATOM     23  H   UNL     1       1.775  -4.068   4.728  0.00  0.00    +0.149 HD
BRANCH  22  24
ATOM     24  C   UNL     1       0.964  -5.978   4.277  0.00  0.00    +0.108 C 
BRANCH  24  25
ATOM     25  C   UNL     1       1.603  -6.444   5.587  0.00  0.00    +0.052 C 
BRANCH  25  26
ATOM     26  C   UNL     1       1.308  -7.907   5.796  0.00  0.00    -0.040 C 
ATOM     27  C   UNL     1       2.101  -8.952   5.465  0.00  0.00    +0.002 A 
ATOM     28  C   UNL     1       3.424  -9.034   4.833  0.00  0.00    +0.048 A 
ATOM     29  C   UNL     1       3.976 -10.253   4.625  0.00  0.00    +0.124 A 
ATOM     30  C   UNL     1       3.317 -11.435   4.996  0.00  0.00    +0.040 A 
ATOM     31  C   UNL     1       2.100 -11.438   5.580  0.00  0.00    +0.029 A 
ATOM     32  C   UNL     1       1.427 -10.213   5.847  0.00  0.00    +0.043 A 
ATOM     33  N   UNL     1       0.263  -9.959   6.393  0.00  0.00    -0.380 N 
ATOM     34  C   UNL     1       0.070  -8.505   6.426  0.00  0.00    +0.144 C 
ATOM     35  F   UNL     1       5.193 -10.332   4.044  0.00  0.00    -0.205 F 
ATOM     36  H   UNL     1      -0.364 -10.621   6.724  0.00  0.00    +0.160 HD
ENDBRANCH  25  26
ENDBRANCH  24  25
ENDBRANCH  22  24
ENDBRANCH  19  20
ENDBRANCH   1  19
TORSDOF 9
