REMARK  Name = ZINC40161536
REMARK  12 active torsions:
REMARK  status: ('A' for Active; 'I' for Inactive)
REMARK    1  A    between atoms: C_1  and  C_2
REMARK    2  A    between atoms: C_9  and  C_16
REMARK    3  A    between atoms: C_11  and  O_12
REMARK    4  A    between atoms: C_16  and  N_17
REMARK    5  A    between atoms: C_22  and  O_35
REMARK    6  A    between atoms: C_23  and  O_33
REMARK    7  A    between atoms: C_26  and  C_28
REMARK    8  A    between atoms: C_28  and  C_29
REMARK    9  A    between atoms: C_29  and  O_31
REMARK   10  A    between atoms: O_31  and  C_32
REMARK   11  A    between atoms: O_33  and  C_34
REMARK   12  A    between atoms: O_35  and  C_36
REMARK                            x       y       z     vdW  Elec       q    Type
REMARK                         _______ _______ _______ _____ _____    ______ ____
ROOT
ATOM      1  N   UNL     1      -2.835  -7.258  -2.007  0.00  0.00    -0.290 NA
ATOM      2  C   UNL     1      -2.990  -5.986  -2.732  0.00  0.00    +0.090 C 
ATOM      3  C   UNL     1      -3.120  -6.291  -4.225  0.00  0.00    +0.051 C 
ATOM      4  C   UNL     1      -4.174  -7.346  -4.444  0.00  0.00    -0.038 A 
ATOM      5  C   UNL     1      -4.693  -7.504  -5.721  0.00  0.00    +0.053 A 
ATOM      6  C   UNL     1      -5.659  -8.462  -5.971  0.00  0.00    +0.162 A 
ATOM      7  C   UNL     1      -6.111  -9.271  -4.932  0.00  0.00    +0.162 A 
ATOM      8  C   UNL     1      -5.591  -9.108  -3.660  0.00  0.00    +0.054 A 
ATOM      9  C   UNL     1      -4.624  -8.144  -3.415  0.00  0.00    -0.023 A 
ATOM     10  C   UNL     1      -4.099  -8.000  -2.010  0.00  0.00    +0.098 C 
ENDROOT
BRANCH   7  11
ATOM     11  O   UNL     1      -7.059 -10.217  -5.167  0.00  0.00    -0.491 OA
ATOM     12  C   UNL     1      -7.474 -11.010  -4.053  0.00  0.00    +0.277 C 
ENDBRANCH   7  11
BRANCH   6  13
ATOM     13  O   UNL     1      -6.165  -8.612  -7.224  0.00  0.00    -0.491 OA
ATOM     14  C   UNL     1      -5.653  -7.746  -8.238  0.00  0.00    +0.277 C 
ENDBRANCH   6  13
BRANCH   1  15
ATOM     15  C   UNL     1      -2.362  -7.027  -0.636  0.00  0.00    +0.121 C 
BRANCH  15  24
ATOM     16  C   UNL     1       1.348   0.982  -0.618  0.00  0.00    +0.109 C 
ATOM     17  C   UNL     1       1.062  -0.484  -0.818  0.00  0.00    +0.214 C 
ATOM     18  O   UNL     1       1.906  -1.206  -1.319  0.00  0.00    -0.276 OA
ATOM     19  N   UNL     1      -0.100  -0.985  -0.450  0.00  0.00    -0.286 N 
ATOM     20  C   UNL     1      -0.310  -2.329  -0.505  0.00  0.00    +0.037 A 
ATOM     21  C   UNL     1      -1.622  -2.835  -0.468  0.00  0.00    +0.024 A 
ATOM     22  C   UNL     1      -1.844  -4.174  -0.522  0.00  0.00    +0.014 A 
ATOM     23  C   UNL     1      -0.758  -5.062  -0.616  0.00  0.00    +0.022 A 
ATOM     24  C   UNL     1      -0.968  -6.456  -0.674  0.00  0.00    -0.016 A 
ATOM     25  C   UNL     1       0.132  -7.286  -0.766  0.00  0.00    +0.093 A 
ATOM     26  C   UNL     1       1.407  -6.741  -0.800  0.00  0.00    +0.285 A 
ATOM     27  O   UNL     1       1.602  -5.419  -0.744  0.00  0.00    -0.425 OA
ATOM     28  C   UNL     1       0.563  -4.564  -0.654  0.00  0.00    +0.141 A 
ATOM     29  C   UNL     1       0.778  -3.198  -0.603  0.00  0.00    +0.070 A 
ATOM     30  H   UNL     1      -0.806  -0.397  -0.141  0.00  0.00    +0.155 HD
BRANCH  26  31
ATOM     31  O   UNL     1       2.472  -7.561  -0.890  0.00  0.00    -0.480 OA
ATOM     32  H   UNL     1       3.322  -7.101  -0.908  0.00  0.00    +0.295 HD
ENDBRANCH  26  31
ENDBRANCH  15  24
ENDBRANCH   1  15
BRANCH  10  33
ATOM     33  C   UNL     1      -3.870  -9.389  -1.411  0.00  0.00    +0.144 C 
BRANCH  33  34
ATOM     34  C   UNL     1      -2.808 -10.108  -2.203  0.00  0.00    +0.309 C 
ATOM     35  O   UNL     1      -2.241  -9.541  -3.107  0.00  0.00    -0.251 OA
BRANCH  34  36
ATOM     36  O   UNL     1      -2.493 -11.378  -1.904  0.00  0.00    -0.468 OA
ATOM     37  C   UNL     1      -1.478 -11.998  -2.696  0.00  0.00    +0.280 C 
ENDBRANCH  34  36
ENDBRANCH  33  34
ENDBRANCH  10  33
TORSDOF 8
