REMARK  Name = ZINC40986809
REMARK  4 active torsions:
REMARK  status: ('A' for Active; 'I' for Inactive)
REMARK    1  A    between atoms: C_6  and  C_7
REMARK    2  A    between atoms: C_9  and  C_12
REMARK    3  A    between atoms: N_14  and  C_15
REMARK    4  A    between atoms: C_16  and  C_24
REMARK                            x       y       z     vdW  Elec       q    Type
REMARK                         _______ _______ _______ _____ _____    ______ ____
ROOT
ATOM      1  C   UNL     1      -3.350  -3.792   0.022  0.00  0.00    +0.270 C 
ATOM      2  O   UNL     1      -2.623  -4.765   0.015  0.00  0.00    -0.268 OA
ATOM      3  N   UNL     1      -4.689  -3.950   0.032  0.00  0.00    -0.274 N 
ATOM      4  H   UNL     1      -5.269  -3.173   0.037  0.00  0.00    +0.156 HD
ENDROOT
BRANCH   3   5
ATOM      5  C   UNL     1      -5.235  -5.223   0.034  0.00  0.00    +0.085 A 
ATOM      6  C   UNL     1      -6.576  -5.575   0.037  0.00  0.00    +0.068 A 
ATOM      7  C   UNL     1      -6.891  -6.993   0.039  0.00  0.00    -0.023 A 
ATOM      8  C   UNL     1      -5.807  -7.799   0.037  0.00  0.00    -0.004 A 
ATOM      9  S   UNL     1      -4.426  -6.694   0.024  0.00  0.00    -0.077 S 
ATOM     10  C   UNL     1      -5.800  -9.296   0.039  0.00  0.00    +0.043 C 
ATOM     11  C   UNL     1      -7.204  -9.784   0.425  0.00  0.00    +0.005 C 
ATOM     12  C   UNL     1      -8.240  -9.025  -0.409  0.00  0.00    +0.005 C 
ATOM     13  C   UNL     1      -8.301  -7.564   0.042  0.00  0.00    +0.037 C 
BRANCH   6  14
ATOM     14  C   UNL     1      -7.633  -4.558   0.040  0.00  0.00    +0.244 C 
ATOM     15  O   UNL     1      -8.075  -4.136  -1.013  0.00  0.00    -0.270 OA
ATOM     16  N   UNL     1      -8.114  -4.090   1.209  0.00  0.00    -0.325 N 
ATOM     17  H   UNL     1      -7.763  -4.426   2.048  0.00  0.00    +0.145 HD
ATOM     18  H   UNL     1      -8.813  -3.418   1.211  0.00  0.00    +0.145 HD
ENDBRANCH   6  14
ENDBRANCH   3   5
BRANCH   1  21
ATOM     19  C   UNL     1      -1.266  -0.763   0.011  0.00  0.00    +0.168 A 
ATOM     20  C   UNL     1      -1.388  -2.117   0.010  0.00  0.00    +0.086 A 
ATOM     21  C   UNL     1      -2.765  -2.429   0.020  0.00  0.00    +0.169 A 
ATOM     22  N   UNL     1      -3.436  -1.301   0.026  0.00  0.00    -0.073 NA
ATOM     23  O   UNL     1      -2.505  -0.235   0.026  0.00  0.00    -0.354 OA
BRANCH  19  29
ATOM     24  C   UNL     1      -0.017   1.391   0.010  0.00  0.00    +0.014 A 
ATOM     25  C   UNL     1       1.169   2.096   0.002  0.00  0.00    +0.042 A 
ATOM     26  C   UNL     1       2.379   1.421  -0.013  0.00  0.00    +0.158 A 
ATOM     27  C   UNL     1       2.405   0.033  -0.021  0.00  0.00    +0.159 A 
ATOM     28  C   UNL     1       1.223  -0.681  -0.014  0.00  0.00    +0.053 A 
ATOM     29  C   UNL     1       0.002  -0.004   0.002  0.00  0.00    +0.023 A 
ATOM     30  F   UNL     1       3.587  -0.620  -0.037  0.00  0.00    -0.202 F 
ATOM     31  F   UNL     1       3.537   2.116  -0.020  0.00  0.00    -0.202 F 
ENDBRANCH  19  29
ENDBRANCH   1  21
TORSDOF 4
