REMARK  Name = ZINC35337837
REMARK  10 active torsions:
REMARK  status: ('A' for Active; 'I' for Inactive)
REMARK    1  A    between atoms: C_1  and  C_2
REMARK    2  A    between atoms: C_4  and  C_35
REMARK    3  A    between atoms: C_5  and  S_9
REMARK    4  A    between atoms: C_6  and  C_8
REMARK    5  A    between atoms: S_9  and  N_12
REMARK    6  A    between atoms: N_12  and  C_13
REMARK    7  A    between atoms: C_16  and  C_19
REMARK    8  A    between atoms: C_21  and  C_31
REMARK    9  A    between atoms: C_22  and  C_30
REMARK   10  A    between atoms: N_33  and  C_34
REMARK                            x       y       z     vdW  Elec       q    Type
REMARK                         _______ _______ _______ _____ _____    ______ ____
ROOT
ATOM      1  C   UNL     1       0.082  -6.061   0.239  0.00  0.00    +0.048 A 
ATOM      2  C   UNL     1       0.100  -4.697   0.499  0.00  0.00    +0.025 A 
ATOM      3  C   UNL     1       1.113  -4.154   1.265  0.00  0.00    +0.007 A 
ATOM      4  C   UNL     1       2.109  -4.968   1.774  0.00  0.00    -0.022 A 
ATOM      5  C   UNL     1       2.094  -6.327   1.518  0.00  0.00    +0.007 A 
ATOM      6  C   UNL     1       1.081  -6.876   0.757  0.00  0.00    +0.025 A 
ENDROOT
BRANCH   4   7
ATOM      7  C   UNL     1       3.213  -4.372   2.609  0.00  0.00    +0.142 C 
ATOM      8  C   UNL     1       2.934  -4.618   4.074  0.00  0.00    +0.058 C 
ATOM      9  C   UNL     1       3.451  -5.723   4.678  0.00  0.00    +0.025 C 
ATOM     10  N   UNL     1       4.235  -6.567   4.005  0.00  0.00    -0.341 N 
ATOM     11  C   UNL     1       4.756  -6.236   2.840  0.00  0.00    +0.135 C 
ATOM     12  N   UNL     1       4.496  -5.017   2.272  0.00  0.00    -0.300 N 
ATOM     13  C   UNL     1       5.430  -4.321   1.410  0.00  0.00    +0.109 C 
ATOM     14  C   UNL     1       6.210  -5.184   0.447  0.00  0.00    +0.030 C 
ATOM     15  C   UNL     1       6.988  -6.287   1.167  0.00  0.00    +0.078 C 
ATOM     16  S   UNL     1       5.773  -7.389   1.966  0.00  0.00    -0.092 S 
ATOM     17  C   UNL     1       3.134  -5.997   6.126  0.00  0.00    +0.064 C 
ATOM     18  H   UNL     1       4.426  -7.441   4.380  0.00  0.00    +0.167 HD
BRANCH   8  19
ATOM     19  C   UNL     1       2.146  -3.711   4.807  0.00  0.00    +0.244 C 
ATOM     20  O   UNL     1       1.819  -3.975   5.951  0.00  0.00    -0.270 OA
ATOM     21  N   UNL     1       1.754  -2.551   4.245  0.00  0.00    -0.315 N 
ATOM     22  C   UNL     1       0.934  -1.607   5.008  0.00  0.00    +0.128 C 
ATOM     23  H   UNL     1       2.014  -2.341   3.334  0.00  0.00    +0.149 HD
ENDBRANCH   8  19
ENDBRANCH   4   7
BRANCH   1  24
ATOM     24  N   UNL     1      -0.941  -6.613  -0.535  0.00  0.00    -0.216 N 
ATOM     25  H   UNL     1      -0.728  -7.237  -1.246  0.00  0.00    +0.174 HD
BRANCH  24  26
ATOM     26  S   UNL     1      -2.517  -6.201  -0.239  0.00  0.00    +0.073 S 
ATOM     27  O   UNL     1      -2.717  -6.336   1.161  0.00  0.00    -0.150 OA
ATOM     28  O   UNL     1      -3.305  -6.901  -1.192  0.00  0.00    -0.150 OA
BRANCH  26  33
ATOM     29  C   UNL     1      -3.090  -0.329  -1.505  0.00  0.00    +0.044 C 
ATOM     30  C   UNL     1      -2.947  -1.796  -1.189  0.00  0.00    -0.050 A 
ATOM     31  C   UNL     1      -2.798  -2.209   0.122  0.00  0.00    +0.008 A 
ATOM     32  C   UNL     1      -2.667  -3.554   0.412  0.00  0.00    -0.023 A 
ATOM     33  C   UNL     1      -2.685  -4.486  -0.609  0.00  0.00    +0.114 A 
ATOM     34  C   UNL     1      -2.836  -4.073  -1.920  0.00  0.00    -0.023 A 
ATOM     35  C   UNL     1      -2.971  -2.728  -2.209  0.00  0.00    +0.008 A 
ATOM     36  C   UNL     1      -2.855  -5.089  -3.032  0.00  0.00    +0.046 C 
ATOM     37  C   UNL     1      -2.503  -4.004   1.840  0.00  0.00    +0.046 C 
ENDBRANCH  26  33
ENDBRANCH  24  26
ENDBRANCH   1  24
TORSDOF 5
