REMARK  Name = ZINC40914161
REMARK  11 active torsions:
REMARK  status: ('A' for Active; 'I' for Inactive)
REMARK    1  A    between atoms: C_1  and  C_2
REMARK    2  A    between atoms: C_2  and  O_3
REMARK    3  A    between atoms: O_3  and  C_4
REMARK    4  A    between atoms: C_6  and  C_20
REMARK    5  A    between atoms: C_9  and  O_10
REMARK    6  A    between atoms: O_10  and  C_11
REMARK    7  A    between atoms: C_11  and  C_12
REMARK    8  A    between atoms: C_22  and  C_31
REMARK    9  A    between atoms: C_23  and  C_30
REMARK   10  A    between atoms: C_31  and  O_33
REMARK   11  A    between atoms: O_33  and  C_34
REMARK                            x       y       z     vdW  Elec       q    Type
REMARK                         _______ _______ _______ _____ _____    ______ ____
ROOT
ATOM      1  C   UNL     1       0.736  -1.730  -1.097  0.00  0.00    +0.163 A 
ATOM      2  C   UNL     1       0.123  -2.641  -0.253  0.00  0.00    +0.055 A 
ATOM      3  C   UNL     1       0.326  -3.997  -0.433  0.00  0.00    -0.014 A 
ATOM      4  C   UNL     1       1.141  -4.447  -1.455  0.00  0.00    +0.025 A 
ATOM      5  C   UNL     1       1.757  -3.542  -2.302  0.00  0.00    +0.063 A 
ATOM      6  C   UNL     1       1.552  -2.182  -2.130  0.00  0.00    +0.176 A 
ATOM      7 BR   UNL     1       2.872  -4.162  -3.698  0.00  0.00    -0.046 Br
ENDROOT
BRANCH   3   8
ATOM      8  C   UNL     1      -0.342  -4.986   0.486  0.00  0.00    +0.179 C 
ATOM      9  C   UNL     1       0.707  -5.805   1.190  0.00  0.00    +0.082 C 
ATOM     10  C   UNL     1       0.943  -7.095   0.904  0.00  0.00    +0.020 C 
ATOM     11  N   UNL     1       0.230  -7.774  -0.053  0.00  0.00    -0.287 N 
ATOM     12  C   UNL     1      -0.922  -7.171  -0.540  0.00  0.00    +0.218 A 
ATOM     13  N   UNL     1      -1.206  -5.868  -0.293  0.00  0.00    -0.221 N 
ATOM     14  N   UNL     1      -2.425  -5.603  -0.916  0.00  0.00    -0.156 NA
ATOM     15  C   UNL     1      -2.803  -6.716  -1.495  0.00  0.00    +0.247 A 
ATOM     16  N   UNL     1      -1.888  -7.664  -1.265  0.00  0.00    -0.201 NA
ATOM     17  C   UNL     1       2.026  -7.822   1.658  0.00  0.00    +0.061 C 
ATOM     18  H   UNL     1       0.520  -8.642  -0.376  0.00  0.00    +0.155 HD
BRANCH   9  19
ATOM     19  C   UNL     1       1.480  -5.187   2.198  0.00  0.00    +0.339 C 
ATOM     20  O   UNL     1       1.029  -5.064   3.321  0.00  0.00    -0.245 OA
BRANCH  19  21
ATOM     21  O   UNL     1       2.719  -4.732   1.914  0.00  0.00    -0.465 OA
ATOM     22  C   UNL     1       3.444  -4.118   2.982  0.00  0.00    +0.280 C 
ENDBRANCH  19  21
ENDBRANCH   9  19
ENDBRANCH   3   8
BRANCH   1  23
ATOM     23  O   UNL     1       0.537  -0.396  -0.921  0.00  0.00    -0.489 OA
BRANCH  23  25
ATOM     24  C   UNL     1      -0.415   1.522   0.200  0.00  0.00    +0.048 C 
ATOM     25  C   UNL     1      -0.312  -0.004   0.160  0.00  0.00    +0.226 C 
ENDBRANCH  23  25
ENDBRANCH   1  23
BRANCH   6  26
ATOM     26  O   UNL     1       2.152  -1.292  -2.965  0.00  0.00    -0.483 OA
BRANCH  26  27
ATOM     27  C   UNL     1       3.446  -0.819  -2.587  0.00  0.00    +0.267 C 
BRANCH  27  28
ATOM     28  C   UNL     1       3.949   0.152  -3.624  0.00  0.00    +0.025 A 
ATOM     29  C   UNL     1       3.168   0.454  -4.724  0.00  0.00    +0.010 A 
ATOM     30  C   UNL     1       3.629   1.345  -5.675  0.00  0.00    +0.001 A 
ATOM     31  C   UNL     1       4.872   1.934  -5.529  0.00  0.00    +0.003 A 
ATOM     32  C   UNL     1       5.654   1.633  -4.430  0.00  0.00    +0.039 A 
ATOM     33  C   UNL     1       5.191   0.745  -3.473  0.00  0.00    +0.130 A 
ATOM     34  F   UNL     1       5.953   0.454  -2.396  0.00  0.00    -0.205 F 
ENDBRANCH  27  28
ENDBRANCH  26  27
ENDBRANCH   6  26
TORSDOF 8
