REMARK  Name = ZINC20355324
REMARK  11 active torsions:
REMARK  status: ('A' for Active; 'I' for Inactive)
REMARK    1  A    between atoms: C_1  and  C_2
REMARK    2  A    between atoms: C_6  and  C_8
REMARK    3  A    between atoms: C_8  and  N_9
REMARK    4  A    between atoms: C_18  and  C_19
REMARK    5  A    between atoms: C_22  and  C_25
REMARK    6  A    between atoms: N_27  and  C_28
REMARK    7  A    between atoms: C_28  and  C_29
REMARK    8  A    between atoms: C_29  and  C_30
REMARK    9  A    between atoms: C_30  and  N_31
REMARK   10  A    between atoms: C_33  and  C_40
REMARK   11  A    between atoms: C_36  and  C_39
REMARK                            x       y       z     vdW  Elec       q    Type
REMARK                         _______ _______ _______ _____ _____    ______ ____
ROOT
ATOM      1  C   UNL     1      -3.390  -9.024  -1.367  0.00  0.00    -0.021 A 
ATOM      2  C   UNL     1      -4.540  -8.228  -1.326  0.00  0.00    +0.009 A 
ATOM      3  C   UNL     1      -4.466  -6.945  -0.864  0.00  0.00    +0.013 A 
ATOM      4  C   UNL     1      -3.242  -6.426  -0.432  0.00  0.00    +0.037 A 
ATOM      5  C   UNL     1      -2.091  -7.218  -0.478  0.00  0.00    +0.013 A 
ATOM      6  C   UNL     1      -2.164  -8.504  -0.934  0.00  0.00    +0.009 A 
ENDROOT
BRANCH   1  16
ATOM      7  N   UNL     1      -0.164 -10.665  -3.348  0.00  0.00    -0.257 N 
ATOM      8  C   UNL     1      -0.045 -12.042  -3.125  0.00  0.00    +0.079 A 
ATOM      9  C   UNL     1       1.209 -12.636  -3.106  0.00  0.00    +0.027 A 
ATOM     10  C   UNL     1       1.325 -13.995  -2.882  0.00  0.00    +0.002 A 
ATOM     11  C   UNL     1       0.195 -14.766  -2.676  0.00  0.00    +0.004 A 
ATOM     12  C   UNL     1      -1.058 -14.182  -2.694  0.00  0.00    +0.048 A 
ATOM     13  C   UNL     1      -1.183 -12.820  -2.918  0.00  0.00    +0.150 A 
ATOM     14  O   UNL     1      -2.415 -12.241  -2.937  0.00  0.00    -0.449 OA
ATOM     15  C   UNL     1      -2.458 -10.915  -2.606  0.00  0.00    +0.191 C 
ATOM     16  C   UNL     1      -3.468 -10.405  -1.865  0.00  0.00    +0.059 C 
ATOM     17  C   UNL     1      -1.354 -10.061  -3.100  0.00  0.00    +0.287 C 
ATOM     18  O   UNL     1      -1.508  -8.867  -3.271  0.00  0.00    -0.266 OA
BRANCH   7  19
ATOM     19  C   UNL     1       0.974  -9.889  -3.848  0.00  0.00    +0.149 C 
BRANCH  19  25
ATOM     20  C   UNL     1       2.305 -11.925  -8.221  0.00  0.00    +0.044 C 
ATOM     21  C   UNL     1       1.587 -10.850  -7.447  0.00  0.00    -0.050 A 
ATOM     22  C   UNL     1       0.907  -9.852  -8.119  0.00  0.00    +0.003 A 
ATOM     23  C   UNL     1       0.249  -8.865  -7.409  0.00  0.00    +0.001 A 
ATOM     24  C   UNL     1       0.271  -8.877  -6.027  0.00  0.00    +0.005 A 
ATOM     25  C   UNL     1       0.950  -9.876  -5.355  0.00  0.00    -0.029 A 
ATOM     26  C   UNL     1       1.612 -10.860  -6.065  0.00  0.00    +0.008 A 
ENDBRANCH  19  25
ENDBRANCH   7  19
ENDBRANCH   1  16
BRANCH   4  27
ATOM     27  C   UNL     1      -3.163  -5.039   0.067  0.00  0.00    +0.244 C 
ATOM     28  O   UNL     1      -4.163  -4.348   0.103  0.00  0.00    -0.270 OA
ATOM     29  N   UNL     1      -1.983  -4.538   0.484  0.00  0.00    -0.311 N 
ATOM     30  H   UNL     1      -1.079  -5.163   0.452  0.00  0.00    +0.149 HD
BRANCH  29  31
ATOM     31  C   UNL     1      -1.905  -3.162   0.979  0.00  0.00    +0.102 C 
BRANCH  31  32
ATOM     32  C   UNL     1      -0.464  -2.847   1.385  0.00  0.00    +0.000 C 
BRANCH  32  33
ATOM     33  C   UNL     1      -0.382  -1.409   1.902  0.00  0.00    -0.077 C 
BRANCH  33  34
ATOM     34  N   UNL     1       1.002  -1.107   2.291  0.00  0.00    +0.380 N 
ATOM     35  C   UNL     1       1.169   0.326   2.568  0.00  0.00    -0.076 C 
ATOM     36  C   UNL     1       2.647   0.627   2.827  0.00  0.00    -0.031 C 
ATOM     37  C   UNL     1       3.131  -0.202   4.020  0.00  0.00    +0.003 C 
ATOM     38  C   UNL     1       2.900  -1.687   3.726  0.00  0.00    -0.031 C 
ATOM     39  C   UNL     1       1.415  -1.921   3.441  0.00  0.00    -0.076 C 
ATOM     40  C   UNL     1       3.726  -2.101   2.506  0.00  0.00    +0.005 C 
ATOM     41  C   UNL     1       2.819   2.115   3.136  0.00  0.00    +0.005 C 
ATOM     42  H   UNL     1       1.656  -1.364   1.445  0.00  0.00    -0.082 HD
ENDBRANCH  33  34
ENDBRANCH  32  33
ENDBRANCH  31  32
ENDBRANCH  29  31
ENDBRANCH   4  27
TORSDOF 8
