REMARK  Name = ZINC36202522
REMARK  11 active torsions:
REMARK  status: ('A' for Active; 'I' for Inactive)
REMARK    1  A    between atoms: C_1  and  C_2
REMARK    2  A    between atoms: C_5  and  C_7
REMARK    3  A    between atoms: C_7  and  N_8
REMARK    4  A    between atoms: N_8  and  C_9
REMARK    5  A    between atoms: N_8  and  C_31
REMARK    6  A    between atoms: C_9  and  C_10
REMARK    7  A    between atoms: C_13  and  C_15
REMARK    8  A    between atoms: C_15  and  C_16
REMARK    9  A    between atoms: C_15  and  C_23
REMARK   10  A    between atoms: C_15  and  O_30
REMARK   11  A    between atoms: C_31  and  C_32
REMARK                            x       y       z     vdW  Elec       q    Type
REMARK                         _______ _______ _______ _____ _____    ______ ____
ROOT
ATOM      1  C   UNL     1       2.657  -3.548  -2.524  0.00  0.00    +0.089 A 
ATOM      2  C   UNL     1       3.963  -3.305  -2.731  0.00  0.00    +0.043 A 
ATOM      3  C   UNL     1       4.348  -4.066  -3.858  0.00  0.00    +0.048 A 
ATOM      4  C   UNL     1       3.254  -4.729  -4.273  0.00  0.00    +0.146 A 
ATOM      5  O   UNL     1       2.234  -4.416  -3.457  0.00  0.00    -0.463 OA
ENDROOT
BRANCH   1   6
ATOM      6  C   UNL     1       1.812  -2.953  -1.427  0.00  0.00    -0.002 C 
BRANCH   6   7
ATOM      7  N   UNL     1       1.204  -1.703  -1.900  0.00  0.00    +0.391 N 
ATOM      8  H   UNL     1       1.928  -1.070  -2.204  0.00  0.00    -0.080 HD
BRANCH   7   9
ATOM      9  C   UNL     1       0.441  -1.085  -0.808  0.00  0.00    -0.002 C 
BRANCH   9  14
ATOM     10  C   UNL     1       0.310   3.861  -1.790  0.00  0.00    +0.086 C 
ATOM     11  C   UNL     1      -0.114   2.419  -1.672  0.00  0.00    +0.102 A 
ATOM     12  C   UNL     1      -1.315   1.922  -2.016  0.00  0.00    +0.044 A 
ATOM     13  C   UNL     1      -1.278   0.535  -1.741  0.00  0.00    +0.043 A 
ATOM     14  C   UNL     1      -0.057   0.269  -1.246  0.00  0.00    +0.089 A 
ATOM     15  O   UNL     1       0.646   1.412  -1.212  0.00  0.00    -0.467 OA
ENDBRANCH   9  14
ENDBRANCH   7   9
BRANCH   7  16
ATOM     16  C   UNL     1       0.303  -1.992  -3.024  0.00  0.00    -0.046 C 
BRANCH  16  17
ATOM     17  C   UNL     1      -0.883  -2.822  -2.527  0.00  0.00    +0.102 C 
ATOM     18  C   UNL     1      -1.887  -3.069  -3.680  0.00  0.00    +0.032 C 
ATOM     19  C   UNL     1      -2.582  -4.370  -3.192  0.00  0.00    +0.030 C 
ATOM     20  C   UNL     1      -1.431  -5.106  -2.474  0.00  0.00    +0.160 C 
ATOM     21  O   UNL     1      -0.443  -4.129  -2.124  0.00  0.00    -0.378 OA
ENDBRANCH  16  17
ENDBRANCH   7  16
ENDBRANCH   6   7
ENDBRANCH   1   6
BRANCH   4  22
ATOM     22  C   UNL     1       3.185  -5.669  -5.449  0.00  0.00    +0.174 C 
BRANCH  22  23
ATOM     23  C   UNL     1       2.138  -6.721  -5.192  0.00  0.00    -0.002 A 
ATOM     24  C   UNL     1       0.797  -6.404  -5.310  0.00  0.00    +0.007 A 
ATOM     25  C   UNL     1      -0.165  -7.368  -5.074  0.00  0.00    +0.003 A 
ATOM     26  C   UNL     1       0.212  -8.650  -4.719  0.00  0.00    +0.038 A 
ATOM     27  C   UNL     1       1.554  -8.968  -4.601  0.00  0.00    +0.124 A 
ATOM     28  C   UNL     1       2.517  -8.003  -4.843  0.00  0.00    +0.045 A 
ATOM     29  F   UNL     1       1.924 -10.220  -4.254  0.00  0.00    -0.205 F 
ENDBRANCH  22  23
BRANCH  22  30
ATOM     30  C   UNL     1       2.825  -4.894  -6.690  0.00  0.00    -0.002 A 
ATOM     31  C   UNL     1       1.841  -3.923  -6.638  0.00  0.00    +0.007 A 
ATOM     32  C   UNL     1       1.509  -3.212  -7.775  0.00  0.00    +0.003 A 
ATOM     33  C   UNL     1       2.160  -3.470  -8.967  0.00  0.00    +0.038 A 
ATOM     34  C   UNL     1       3.145  -4.441  -9.021  0.00  0.00    +0.124 A 
ATOM     35  C   UNL     1       3.481  -5.149  -7.879  0.00  0.00    +0.045 A 
ATOM     36  F   UNL     1       3.781  -4.695 -10.185  0.00  0.00    -0.205 F 
ENDBRANCH  22  30
BRANCH  22  37
ATOM     37  O   UNL     1       4.456  -6.296  -5.632  0.00  0.00    -0.372 OA
ATOM     38  H   UNL     1       4.752  -6.814  -4.871  0.00  0.00    +0.212 HD
ENDBRANCH  22  37
ENDBRANCH   4  22
TORSDOF 10
