REMARK  Name = ZINC64491614
REMARK  3 active torsions:
REMARK  status: ('A' for Active; 'I' for Inactive)
REMARK    1  A    between atoms: C_6  and  C_11
REMARK    2  A    between atoms: N_16  and  S_19
REMARK    3  A    between atoms: S_19  and  C_22
REMARK                            x       y       z     vdW  Elec       q    Type
REMARK                         _______ _______ _______ _____ _____    ______ ____
ROOT
ATOM      1  C   UNL     1       3.631  -2.749  -1.285  0.00  0.00    +0.242 C 
ATOM      2  O   UNL     1       4.291  -2.141  -2.101  0.00  0.00    -0.273 OA
ATOM      3  N   UNL     1       3.335  -4.048  -1.491  0.00  0.00    -0.297 N 
ATOM      4  C   UNL     1       2.531  -4.795  -0.513  0.00  0.00    +0.125 C 
ATOM      5  C   UNL     1       1.323  -5.404  -1.236  0.00  0.00    +0.128 C 
ATOM      6  N   UNL     1       1.797  -6.098  -2.442  0.00  0.00    -0.174 NA
ATOM      7  C   UNL     1       2.601  -5.350  -3.419  0.00  0.00    +0.128 C 
ATOM      8  C   UNL     1       3.804  -4.740  -2.699  0.00  0.00    +0.125 C 
ENDROOT
BRANCH   1  14
ATOM      9  C   UNL     1      -0.016   1.348   0.009  0.00  0.00    +0.001 A 
ATOM     10  C   UNL     1       1.166   2.101   0.002  0.00  0.00    +0.002 A 
ATOM     11  C   UNL     1       2.391   1.535  -0.013  0.00  0.00    +0.026 A 
ATOM     12  C   UNL     1       2.529   0.120  -0.022  0.00  0.00    +0.043 A 
ATOM     13  N   UNL     1       3.587  -0.654  -0.037  0.00  0.00    -0.370 N 
ATOM     14  C   UNL     1       3.143  -2.053  -0.041  0.00  0.00    +0.190 C 
ATOM     15  C   UNL     1       1.631  -2.008  -0.025  0.00  0.00    +0.016 C 
ATOM     16  C   UNL     1       1.295  -0.698  -0.014  0.00  0.00    -0.004 A 
ATOM     17  C   UNL     1       0.002  -0.004   0.002  0.00  0.00    +0.010 A 
ATOM     18  H   UNL     1       4.509  -0.353  -0.045  0.00  0.00    +0.161 HD
ENDBRANCH   1  14
BRANCH   6  19
ATOM     19  S   UNL     1       1.433  -7.693  -2.695  0.00  0.00    +0.062 S 
ATOM     20  O   UNL     1       2.432  -8.204  -3.566  0.00  0.00    -0.153 OA
ATOM     21  O   UNL     1       1.175  -8.258  -1.417  0.00  0.00    -0.153 OA
BRANCH  19  22
ATOM     22  C   UNL     1      -0.087  -7.746  -3.585  0.00  0.00    +0.127 A 
ATOM     23  C   UNL     1      -0.115  -8.255  -4.871  0.00  0.00    +0.077 A 
ATOM     24  C   UNL     1      -1.308  -8.296  -5.570  0.00  0.00    +0.144 A 
ATOM     25  C   UNL     1      -2.478  -7.824  -4.977  0.00  0.00    +0.077 A 
ATOM     26  C   UNL     1      -2.445  -7.316  -3.689  0.00  0.00    +0.049 A 
ATOM     27  C   UNL     1      -1.249  -7.283  -2.993  0.00  0.00    +0.069 A 
ATOM     28 CL   UNL     1      -1.205  -6.653  -1.376  0.00  0.00    -0.081 Cl
ATOM     29  N   UNL     1      -3.680  -7.872  -5.698  0.00  0.00    -0.280 N 
ATOM     30  C   UNL     1      -3.750  -8.645  -6.803  0.00  0.00    +0.255 C 
ATOM     31  O   UNL     1      -4.769  -8.677  -7.460  0.00  0.00    -0.272 OA
ATOM     32  C   UNL     1      -2.556  -9.467  -7.218  0.00  0.00    +0.325 C 
ATOM     33  O   UNL     1      -1.353  -8.794  -6.835  0.00  0.00    -0.481 OA
ATOM     34  H   UNL     1      -4.449  -7.357  -5.407  0.00  0.00    +0.155 HD
ENDBRANCH  19  22
ENDBRANCH   6  19
TORSDOF 3
