REMARK  Name = ZINC13466868
REMARK  5 active torsions:
REMARK  status: ('A' for Active; 'I' for Inactive)
REMARK    1  A    between atoms: C_1  and  C_2
REMARK    2  A    between atoms: C_13  and  O_15
REMARK    3  A    between atoms: C_21  and  C_25
REMARK    4  A    between atoms: C_23  and  C_24
REMARK    5  A    between atoms: C_25  and  C_27
REMARK                            x       y       z     vdW  Elec       q    Type
REMARK                         _______ _______ _______ _____ _____    ______ ____
ROOT
ATOM      1  C   UNL     1      -2.618  -0.040   0.881  0.00  0.00    +0.014 C 
ATOM      2  C   UNL     1      -2.255   1.443   0.780  0.00  0.00    -0.003 C 
ATOM      3  C   UNL     1      -3.228   2.249   1.612  0.00  0.00    +0.010 C 
ATOM      4  C   UNL     1      -2.828   3.721   1.620  0.00  0.00    +0.005 C 
ATOM      5  C   UNL     1      -1.426   3.858   2.235  0.00  0.00    +0.003 C 
ATOM      6  C   UNL     1      -0.422   3.081   1.402  0.00  0.00    -0.003 C 
ATOM      7  C   UNL     1      -0.797   1.616   1.246  0.00  0.00    +0.001 C 
ATOM      8  C   UNL     1      -0.013   1.086   0.008  0.00  0.00    +0.007 C 
ATOM      9  C   UNL     1      -0.814   1.624  -1.198  0.00  0.00    +0.032 C 
ATOM     10  C   UNL     1      -2.253   1.859  -0.697  0.00  0.00    +0.121 C 
ATOM     11  C   UNL     1       0.987   3.126   1.990  0.00  0.00    +0.008 C 
ATOM     12  C   UNL     1       1.262   4.405   2.764  0.00  0.00    +0.032 C 
ATOM     13  C   UNL     1       0.409   5.523   2.223  0.00  0.00    -0.059 C 
ATOM     14  C   UNL     1       0.966   6.642   1.768  0.00  0.00    +0.051 C 
ATOM     15  C   UNL     1       0.120   7.706   1.215  0.00  0.00    +0.186 C 
ATOM     16  C   UNL     1      -1.180   7.419   0.857  0.00  0.00    +0.051 C 
ATOM     17  C   UNL     1      -1.701   6.012   1.001  0.00  0.00    +0.054 C 
ATOM     18  C   UNL     1      -1.093   5.357   2.252  0.00  0.00    -0.003 C 
ATOM     19  C   UNL     1      -1.668   5.992   3.519  0.00  0.00    +0.016 C 
ATOM     20  O   UNL     1       0.612   8.955   1.057  0.00  0.00    -0.287 OA
ENDROOT
BRANCH  10  21
ATOM     21  O   UNL     1      -2.600   3.240  -0.821  0.00  0.00    -0.391 OA
ATOM     22  H   UNL     1      -2.647   3.708  -1.815  0.00  0.00    +0.210 HD
ENDBRANCH  10  21
BRANCH  16  23
ATOM     23  C   UNL     1      -2.011   8.428   0.363  0.00  0.00    +0.265 C 
ATOM     24  O   UNL     1      -1.588   9.563   0.249  0.00  0.00    -0.283 OA
BRANCH  23  25
ATOM     25  C   UNL     1      -3.432   8.111  -0.027  0.00  0.00    +0.455 C 
ATOM     26  F   UNL     1      -4.059   9.273  -0.488  0.00  0.00    -0.163 F 
ATOM     27  F   UNL     1      -3.433   7.147  -1.040  0.00  0.00    -0.163 F 
ATOM     28  F   UNL     1      -4.122   7.619   1.086  0.00  0.00    -0.163 F 
ENDBRANCH  23  25
ENDBRANCH  16  23
TORSDOF 3
