REMARK  Name = ZINC39325377
REMARK  10 active torsions:
REMARK  status: ('A' for Active; 'I' for Inactive)
REMARK    1  A    between atoms: C_1  and  O_2
REMARK    2  A    between atoms: O_2  and  C_3
REMARK    3  A    between atoms: C_10  and  C_15
REMARK    4  A    between atoms: C_15  and  N_16
REMARK    5  A    between atoms: N_16  and  C_17
REMARK    6  A    between atoms: N_16  and  S_21
REMARK    7  A    between atoms: C_17  and  C_18
REMARK    8  A    between atoms: C_18  and  C_19
REMARK    9  A    between atoms: C_19  and  O_20
REMARK   10  A    between atoms: S_21  and  C_24
REMARK                            x       y       z     vdW  Elec       q    Type
REMARK                         _______ _______ _______ _____ _____    ______ ____
ROOT
ATOM      1  N   UNL     1      -5.416  -6.315   1.150  0.00  0.00    -0.175 NA
ENDROOT
BRANCH   1   2
ATOM      2  S   UNL     1      -6.770  -5.632   1.815  0.00  0.00    +0.061 S 
ATOM      3  O   UNL     1      -7.613  -6.705   2.212  0.00  0.00    -0.153 OA
ATOM      4  O   UNL     1      -6.318  -4.641   2.728  0.00  0.00    -0.153 OA
BRANCH   2   5
ATOM      5  C   UNL     1      -7.612  -4.780   0.523  0.00  0.00    +0.106 A 
ATOM      6  C   UNL     1      -7.423  -3.421   0.354  0.00  0.00    +0.029 A 
ATOM      7  C   UNL     1      -8.083  -2.753  -0.660  0.00  0.00    +0.017 A 
ATOM      8  C   UNL     1      -8.932  -3.444  -1.505  0.00  0.00    +0.018 A 
ATOM      9  C   UNL     1      -9.121  -4.803  -1.336  0.00  0.00    +0.017 A 
ATOM     10  C   UNL     1      -8.456  -5.472  -0.325  0.00  0.00    +0.029 A 
ATOM     11 BR   UNL     1      -9.836  -2.530  -2.892  0.00  0.00    -0.050 Br
ENDBRANCH   2   5
ENDBRANCH   1   2
BRANCH   1  12
ATOM     12  C   UNL     1      -4.125  -5.628   1.247  0.00  0.00    +0.126 C 
BRANCH  12  20
ATOM     13  C   UNL     1      -0.442  -1.690  -0.991  0.00  0.00    +0.121 A 
ATOM     14  C   UNL     1      -1.486  -1.001  -1.618  0.00  0.00    +0.047 A 
ATOM     15  C   UNL     1      -2.738  -1.516  -1.732  0.00  0.00    +0.027 A 
ATOM     16  C   UNL     1      -3.038  -2.788  -1.211  0.00  0.00    +0.041 A 
ATOM     17  N   UNL     1      -4.271  -3.281  -1.329  0.00  0.00    -0.284 N 
ATOM     18  C   UNL     1      -4.623  -4.468  -0.863  0.00  0.00    +0.225 C 
ATOM     19  O   UNL     1      -5.764  -4.865  -1.002  0.00  0.00    -0.275 OA
ATOM     20  C   UNL     1      -3.600  -5.330  -0.159  0.00  0.00    +0.114 C 
ATOM     21  C   UNL     1      -2.196  -4.774  -0.021  0.00  0.00    -0.003 C 
ATOM     22  C   UNL     1      -1.959  -3.538  -0.544  0.00  0.00    -0.004 A 
ATOM     23  C   UNL     1      -0.631  -2.930  -0.460  0.00  0.00    +0.055 A 
ATOM     24  H   UNL     1      -4.943  -2.743  -1.778  0.00  0.00    +0.155 HD
BRANCH  13  26
ATOM     25  C   UNL     1       0.928   0.189  -1.487  0.00  0.00    +0.277 C 
ATOM     26  O   UNL     1       0.786  -1.113  -0.914  0.00  0.00    -0.495 OA
ENDBRANCH  13  26
ENDBRANCH  12  20
ENDBRANCH   1  12
BRANCH   1  27
ATOM     27  C   UNL     1      -5.508  -7.607   0.465  0.00  0.00    +0.112 C 
BRANCH  27  28
ATOM     28  C   UNL     1      -5.150  -8.729   1.442  0.00  0.00    +0.045 C 
BRANCH  28  29
ATOM     29  C   UNL     1      -5.246 -10.078   0.727  0.00  0.00    +0.157 C 
BRANCH  29  30
ATOM     30  O   UNL     1      -4.912 -11.126   1.639  0.00  0.00    -0.395 OA
ATOM     31  H   UNL     1      -4.952 -12.011   1.252  0.00  0.00    +0.209 HD
ENDBRANCH  29  30
ENDBRANCH  28  29
ENDBRANCH  27  28
ENDBRANCH   1  27
TORSDOF 9
