REMARK  Name = ZINC14746203
REMARK  6 active torsions:
REMARK  status: ('A' for Active; 'I' for Inactive)
REMARK    1  A    between atoms: C_4  and  C_7
REMARK    2  A    between atoms: C_7  and  C_8
REMARK    3  A    between atoms: C_8  and  N_9
REMARK    4  A    between atoms: N_12  and  C_29
REMARK    5  A    between atoms: C_20  and  N_69
REMARK    6  A    between atoms: C_29  and  C_30
REMARK                            x       y       z     vdW  Elec       q    Type
REMARK                         _______ _______ _______ _____ _____    ______ ____
ROOT
ATOM      1  N   UNL     1      -3.113  -0.323   3.386  0.00  0.00    -0.271 N 
ATOM      2  C   UNL     1      -2.622  -0.354   2.132  0.00  0.00    +0.312 C 
ATOM      3  O   UNL     1      -1.946  -1.263   1.693  0.00  0.00    -0.252 OA
ATOM      4  N   UNL     1      -2.960   0.731   1.424  0.00  0.00    -0.220 N 
ATOM      5  C   UNL     1      -3.718   1.580   2.148  0.00  0.00    +0.247 C 
ATOM      6  O   UNL     1      -4.181   2.641   1.788  0.00  0.00    -0.273 OA
ATOM      7  C   UNL     1      -3.868   0.930   3.504  0.00  0.00    +0.112 C 
ATOM      8  C   UNL     1      -5.337   0.644   3.800  0.00  0.00    +0.017 C 
ATOM      9  C   UNL     1      -5.461   0.012   5.189  0.00  0.00    -0.076 C 
ATOM     10  C   UNL     1      -3.458   1.146   5.954  0.00  0.00    -0.076 C 
ATOM     11  C   UNL     1      -3.268   1.817   4.591  0.00  0.00    +0.017 C 
ATOM     12  N   UNL     1      -4.905   0.946   6.191  0.00  0.00    +0.382 N 
ATOM     13  H   UNL     1      -5.384   1.850   6.104  0.00  0.00    -0.081 HD
ENDROOT
BRANCH  12  14
ATOM     14  C   UNL     1      -5.124   0.416   7.552  0.00  0.00    -0.060 C 
ATOM     15  C   UNL     1      -6.634   0.232   7.816  0.00  0.00    +0.020 C 
ATOM     16  C   UNL     1      -6.828   0.597   9.272  0.00  0.00    -0.046 A 
ATOM     17  C   UNL     1      -7.880   0.327  10.133  0.00  0.00    +0.004 A 
ATOM     18  C   UNL     1      -7.838   0.768  11.441  0.00  0.00    +0.000 A 
ATOM     19  C   UNL     1      -6.744   1.482  11.894  0.00  0.00    +0.000 A 
ATOM     20  C   UNL     1      -5.695   1.752  11.037  0.00  0.00    +0.004 A 
ATOM     21  C   UNL     1      -5.735   1.311   9.725  0.00  0.00    -0.046 A 
ATOM     22  C   UNL     1      -4.730   1.474   8.604  0.00  0.00    +0.020 C 
ENDBRANCH  12  14
BRANCH   1  23
ATOM     23  C   UNL     1      -2.933  -1.341   4.424  0.00  0.00    +0.115 C 
BRANCH  23  24
ATOM     24  C   UNL     1      -1.462  -1.389   4.841  0.00  0.00    +0.054 C 
BRANCH  24  28
ATOM     25  C   UNL     1      -0.873  -4.584   7.615  0.00  0.00    +0.000 A 
ATOM     26  C   UNL     1      -0.837  -4.833   6.256  0.00  0.00    +0.000 A 
ATOM     27  C   UNL     1      -1.028  -3.799   5.358  0.00  0.00    +0.004 A 
ATOM     28  C   UNL     1      -1.255  -2.516   5.820  0.00  0.00    -0.046 A 
ATOM     29  C   UNL     1      -1.285  -2.266   7.179  0.00  0.00    +0.004 A 
ATOM     30  C   UNL     1      -1.100  -3.301   8.077  0.00  0.00    +0.000 A 
ENDBRANCH  24  28
ENDBRANCH  23  24
ENDBRANCH   1  23
BRANCH   4  31
ATOM     31  C   UNL     1      -2.562   0.964   0.034  0.00  0.00    +0.153 C 
BRANCH  31  32
ATOM     32  C   UNL     1      -1.252   1.710   0.005  0.00  0.00    -0.030 A 
ATOM     33  C   UNL     1      -0.060   1.011  -0.013  0.00  0.00    +0.005 A 
ATOM     34  C   UNL     1       1.141   1.694  -0.046  0.00  0.00    +0.000 A 
ATOM     35  C   UNL     1       1.150   3.076  -0.055  0.00  0.00    +0.000 A 
ATOM     36  C   UNL     1      -0.042   3.775  -0.031  0.00  0.00    +0.000 A 
ATOM     37  C   UNL     1      -1.244   3.092   0.001  0.00  0.00    +0.005 A 
ENDBRANCH  31  32
ENDBRANCH   4  31
TORSDOF 6
