REMARK  Name = ZINC34734896
REMARK  9 active torsions:
REMARK  status: ('A' for Active; 'I' for Inactive)
REMARK    1  A    between atoms: C_1  and  C_2
REMARK    2  A    between atoms: C_5  and  C_35
REMARK    3  A    between atoms: C_6  and  C_8
REMARK    4  A    between atoms: C_8  and  N_9
REMARK    5  A    between atoms: C_24  and  C_26
REMARK    6  A    between atoms: C_24  and  C_27
REMARK    7  A    between atoms: N_30  and  C_31
REMARK    8  A    between atoms: C_31  and  C_32
REMARK    9  A    between atoms: C_32  and  C_34
REMARK                            x       y       z     vdW  Elec       q    Type
REMARK                         _______ _______ _______ _____ _____    ______ ____
ROOT
ATOM      1  N   UNL     1       2.638  -2.840   2.060  0.00  0.00    +0.384 N 
ATOM      2  C   UNL     1       4.085  -2.592   2.076  0.00  0.00    -0.059 C 
ATOM      3  C   UNL     1       4.769  -3.625   2.979  0.00  0.00    +0.089 C 
ATOM      4  N   UNL     1       4.131  -3.582   4.303  0.00  0.00    -0.304 N 
ATOM      5  C   UNL     1       2.663  -3.659   4.368  0.00  0.00    +0.089 C 
ATOM      6  C   UNL     1       2.079  -2.625   3.400  0.00  0.00    -0.059 C 
ATOM      7  C   UNL     1       4.883  -3.473   5.446  0.00  0.00    +0.202 A 
ATOM      8  N   UNL     1       5.813  -2.545   5.526  0.00  0.00    -0.208 NA
ATOM      9  C   UNL     1       6.556  -2.417   6.619  0.00  0.00    +0.118 A 
ATOM     10  C   UNL     1       6.392  -3.254   7.736  0.00  0.00    +0.076 A 
ATOM     11  C   UNL     1       7.284  -2.992   8.863  0.00  0.00    -0.018 A 
ATOM     12  C   UNL     1       8.170  -1.982   8.725  0.00  0.00    +0.021 A 
ATOM     13  S   UNL     1       7.872  -1.329   7.107  0.00  0.00    -0.071 S 
ATOM     14  C   UNL     1       9.172  -1.537   9.744  0.00  0.00    +0.203 C 
ATOM     15  O   UNL     1       8.828  -2.146  10.998  0.00  0.00    -0.368 OA
ATOM     16  C   UNL     1       8.574  -3.550  10.900  0.00  0.00    +0.068 C 
ATOM     17  C   UNL     1       7.256  -3.797  10.160  0.00  0.00    +0.071 C 
ATOM     18  C   UNL     1       9.718  -4.220  10.136  0.00  0.00    +0.041 C 
ATOM     19  C   UNL     1       8.487  -4.149  12.305  0.00  0.00    +0.041 C 
ATOM     20  C   UNL     1       5.373  -4.253   7.621  0.00  0.00    +0.264 A 
ATOM     21  O   UNL     1       5.158  -5.025   8.539  0.00  0.00    -0.267 OA
ATOM     22  N   UNL     1       4.653  -4.325   6.486  0.00  0.00    -0.276 N 
ATOM     23  H   UNL     1       2.466  -3.792   1.773  0.00  0.00    -0.081 HD
ENDROOT
BRANCH   1  24
ATOM     24  C   UNL     1       1.997  -1.921   1.110  0.00  0.00    -0.043 C 
BRANCH  24  30
ATOM     25  C   UNL     1       4.985  -0.870  -2.764  0.00  0.00    +0.044 C 
ATOM     26  C   UNL     1       3.909  -1.719  -2.139  0.00  0.00    -0.050 A 
ATOM     27  C   UNL     1       3.364  -2.776  -2.846  0.00  0.00    +0.003 A 
ATOM     28  C   UNL     1       2.377  -3.555  -2.272  0.00  0.00    +0.004 A 
ATOM     29  C   UNL     1       1.935  -3.278  -0.992  0.00  0.00    -0.049 A 
ATOM     30  C   UNL     1       2.479  -2.223  -0.285  0.00  0.00    -0.061 A 
ATOM     31  C   UNL     1       3.470  -1.446  -0.857  0.00  0.00    +0.005 A 
ATOM     32  C   UNL     1       0.858  -4.127  -0.367  0.00  0.00    +0.044 C 
ENDBRANCH  24  30
ENDBRANCH   1  24
BRANCH  22  33
ATOM     33  C   UNL     1       3.605  -5.341   6.364  0.00  0.00    +0.158 C 
BRANCH  33  34
ATOM     34  C   UNL     1       4.197  -6.608   5.803  0.00  0.00    -0.060 C 
ATOM     35  C   UNL     1       4.597  -7.558   6.612  0.00  0.00    +0.009 C 
ATOM     36  C   UNL     1       4.329  -6.783   4.312  0.00  0.00    +0.040 C 
ENDBRANCH  33  34
ENDBRANCH  22  33
TORSDOF 4
