REMARK  Name = ZINC03371641
REMARK  6 active torsions:
REMARK  status: ('A' for Active; 'I' for Inactive)
REMARK    1  A    between atoms: C_1  and  N_47
REMARK    2  A    between atoms: C_2  and  C_3
REMARK    3  A    between atoms: C_2  and  N_47
REMARK    4  A    between atoms: C_15  and  C_16
REMARK    5  A    between atoms: C_15  and  N_47
REMARK    6  A    between atoms: C_22  and  C_27
REMARK                            x       y       z     vdW  Elec       q    Type
REMARK                         _______ _______ _______ _____ _____    ______ ____
ROOT
ATOM      1  C   UNL     1      -1.360  -0.549  -0.083  0.00  0.00    -0.003 C 
ENDROOT
BRANCH   1   2
ATOM      2  C   UNL     1      -1.962  -0.191  -1.417  0.00  0.00    +0.094 A 
ATOM      3  N   UNL     1      -3.224  -0.597  -1.710  0.00  0.00    -0.312 N 
ATOM      4  H   UNL     1      -3.721  -1.112  -1.056  0.00  0.00    +0.170 HD
ATOM      5  C   UNL     1      -3.799  -0.298  -2.889  0.00  0.00    +0.260 A 
ATOM      6  O   UNL     1      -4.933  -0.670  -3.137  0.00  0.00    -0.267 OA
ATOM      7  C   UNL     1      -3.058   0.463  -3.849  0.00  0.00    +0.080 A 
ATOM      8  C   UNL     1      -3.455   0.907  -5.180  0.00  0.00    +0.010 A 
ATOM      9  C   UNL     1      -2.572   1.626  -5.918  0.00  0.00    +0.057 A 
ATOM     10  S   UNL     1      -1.147   1.745  -4.854  0.00  0.00    -0.076 S 
ATOM     11  C   UNL     1      -1.762   0.838  -3.458  0.00  0.00    +0.116 A 
ATOM     12  N   UNL     1      -1.263   0.509  -2.270  0.00  0.00    -0.229 NA
BRANCH   8  13
ATOM     13  C   UNL     1      -4.794   0.581  -5.715  0.00  0.00    +0.021 A 
ATOM     14  C   UNL     1      -5.722   1.412  -6.283  0.00  0.00    +0.016 A 
ATOM     15  C   UNL     1      -6.915   0.874  -6.717  0.00  0.00    +0.008 A 
ATOM     16  C   UNL     1      -7.137  -0.455  -6.561  0.00  0.00    +0.046 A 
ATOM     17  S   UNL     1      -5.625  -0.998  -5.782  0.00  0.00    -0.097 S 
ENDBRANCH   8  13
ENDBRANCH   1   2
BRANCH   1  19
ATOM     18  C   UNL     1      -0.018   1.465   0.010  0.00  0.00    -0.095 C 
ATOM     19  N   UNL     1       0.017  -0.013  -0.021  0.00  0.00    +0.387 N 
ATOM     20  H   UNL     1       0.530  -0.317  -0.857  0.00  0.00    -0.081 HD
BRANCH  19  21
ATOM     21  C   UNL     1       0.706  -0.527   1.180  0.00  0.00    -0.003 C 
BRANCH  21  22
ATOM     22  C   UNL     1       2.163  -0.149   1.104  0.00  0.00    +0.094 A 
ATOM     23  N   UNL     1       2.985  -0.545   2.111  0.00  0.00    -0.312 N 
ATOM     24  H   UNL     1       2.626  -1.058   2.851  0.00  0.00    +0.170 HD
ATOM     25  C   UNL     1       4.301  -0.231   2.089  0.00  0.00    +0.259 A 
ATOM     26  O   UNL     1       5.049  -0.580   2.984  0.00  0.00    -0.267 OA
ATOM     27  C   UNL     1       4.793   0.548   0.943  0.00  0.00    +0.065 A 
ATOM     28  C   UNL     1       6.130   0.923   0.825  0.00  0.00    +0.015 A 
ATOM     29  C   UNL     1       6.536   1.652  -0.271  0.00  0.00    +0.001 A 
ATOM     30  C   UNL     1       5.625   2.015  -1.255  0.00  0.00    +0.002 A 
ATOM     31  C   UNL     1       4.300   1.655  -1.157  0.00  0.00    +0.028 A 
ATOM     32  C   UNL     1       3.864   0.916  -0.056  0.00  0.00    +0.078 A 
ATOM     33  N   UNL     1       2.569   0.535   0.078  0.00  0.00    -0.236 NA
ENDBRANCH  21  22
ENDBRANCH  19  21
ENDBRANCH   1  19
TORSDOF 5
