REMARK  Name = ZINC39610003
REMARK  6 active torsions:
REMARK  status: ('A' for Active; 'I' for Inactive)
REMARK    1  A    between atoms: C_1  and  O_2
REMARK    2  A    between atoms: O_2  and  C_3
REMARK    3  A    between atoms: C_6  and  C_9
REMARK    4  A    between atoms: C_9  and  N_10
REMARK    5  A    between atoms: C_11  and  C_13
REMARK    6  A    between atoms: C_24  and  C_26
REMARK                            x       y       z     vdW  Elec       q    Type
REMARK                         _______ _______ _______ _____ _____    ______ ____
ROOT
ATOM      1  C   UNL     1      -7.056  -3.696  -3.080  0.00  0.00    +0.100 C 
ATOM      2  C   UNL     1      -5.993  -4.541  -3.817  0.00  0.00    +0.121 C 
ATOM      3  N   UNL     1      -6.469  -5.939  -3.687  0.00  0.00    -0.297 N 
ATOM      4  C   UNL     1      -7.939  -5.844  -3.856  0.00  0.00    +0.115 C 
ATOM      5  C   UNL     1      -8.333  -4.553  -3.111  0.00  0.00    -0.004 C 
ATOM      6  C   UNL     1      -9.440  -3.824  -3.865  0.00  0.00    -0.010 C 
ATOM      7  C   UNL     1     -10.716  -4.670  -3.832  0.00  0.00    -0.082 C 
ATOM      8  N   UNL     1     -11.116  -4.901  -2.438  0.00  0.00    +0.379 N 
ATOM      9  C   UNL     1     -10.086  -5.684  -1.745  0.00  0.00    -0.082 C 
ATOM     10  C   UNL     1      -8.783  -4.881  -1.690  0.00  0.00    -0.010 C 
ATOM     11  C   UNL     1      -5.733  -7.045  -3.466  0.00  0.00    +0.260 C 
ATOM     12  O   UNL     1      -4.543  -6.949  -3.252  0.00  0.00    -0.271 OA
ATOM     13  H   UNL     1     -11.234  -4.014  -1.972  0.00  0.00    -0.086 HD
ATOM     14  H   UNL     1     -11.990  -5.406  -2.420  0.00  0.00    -0.086 HD
ENDROOT
BRANCH  11  15
ATOM     15  C   UNL     1      -6.388  -8.402  -3.484  0.00  0.00    +0.296 C 
ATOM     16  C   UNL     1      -6.824  -8.747  -4.914  0.00  0.00    +0.283 C 
ATOM     17  O   UNL     1      -7.428 -10.045  -4.898  0.00  0.00    -0.484 OA
ATOM     18  C   UNL     1      -6.767 -11.018  -4.214  0.00  0.00    +0.162 A 
ATOM     19  C   UNL     1      -7.082 -12.349  -4.449  0.00  0.00    +0.049 A 
ATOM     20  C   UNL     1      -6.422 -13.348  -3.760  0.00  0.00    +0.004 A 
ATOM     21  C   UNL     1      -5.446 -13.025  -2.836  0.00  0.00    +0.004 A 
ATOM     22  C   UNL     1      -5.126 -11.702  -2.598  0.00  0.00    +0.049 A 
ATOM     23  C   UNL     1      -5.784 -10.694  -3.287  0.00  0.00    +0.163 A 
ATOM     24  O   UNL     1      -5.453  -9.395  -3.048  0.00  0.00    -0.473 OA
ENDBRANCH  11  15
BRANCH   1  26
ATOM     25  N   UNL     1      -7.015  -2.313  -1.030  0.00  0.00    -0.311 N 
ATOM     26  C   UNL     1      -6.629  -3.441  -1.657  0.00  0.00    +0.218 C 
ATOM     27  O   UNL     1      -5.938  -4.252  -1.077  0.00  0.00    -0.275 OA
ATOM     28  H   UNL     1      -7.568  -1.665  -1.494  0.00  0.00    +0.149 HD
BRANCH  25  29
ATOM     29  C   UNL     1      -6.600  -2.065   0.353  0.00  0.00    +0.139 C 
BRANCH  29  33
ATOM     30  C   UNL     1      -8.190   1.677   1.669  0.00  0.00    +0.120 A 
ATOM     31  C   UNL     1      -8.918   0.511   1.851  0.00  0.00    +0.046 A 
ATOM     32  C   UNL     1      -8.402  -0.698   1.425  0.00  0.00    +0.009 A 
ATOM     33  C   UNL     1      -7.161  -0.745   0.817  0.00  0.00    -0.030 A 
ATOM     34  C   UNL     1      -6.433   0.416   0.635  0.00  0.00    +0.009 A 
ATOM     35  C   UNL     1      -6.947   1.628   1.054  0.00  0.00    +0.046 A 
BRANCH  30  37
ATOM     36  C   UNL     1      -9.980   2.843   2.712  0.00  0.00    +0.277 C 
ATOM     37  O   UNL     1      -8.695   2.868   2.087  0.00  0.00    -0.495 OA
ENDBRANCH  30  37
ENDBRANCH  29  33
ENDBRANCH  25  29
ENDBRANCH   1  26
TORSDOF 5
