REMARK  Name = ZINC39324844
REMARK  7 active torsions:
REMARK  status: ('A' for Active; 'I' for Inactive)
REMARK    1  A    between atoms: C_1  and  C_2
REMARK    2  A    between atoms: C_5  and  S_8
REMARK    3  A    between atoms: S_8  and  N_11
REMARK    4  A    between atoms: N_11  and  C_12
REMARK    5  A    between atoms: N_11  and  C_22
REMARK    6  A    between atoms: C_12  and  C_13
REMARK    7  A    between atoms: C_22  and  C_23
REMARK                            x       y       z     vdW  Elec       q    Type
REMARK                         _______ _______ _______ _____ _____    ______ ____
ROOT
ATOM      1  N   UNL     1       1.533  -4.838  -0.252  0.00  0.00    -0.171 NA
ENDROOT
BRANCH   1   2
ATOM      2  S   UNL     1      -0.017  -4.257  -0.299  0.00  0.00    +0.061 S 
ATOM      3  O   UNL     1      -0.589  -4.522   0.975  0.00  0.00    -0.153 OA
ATOM      4  O   UNL     1      -0.593  -4.734  -1.507  0.00  0.00    -0.153 OA
BRANCH   2   9
ATOM      5  C   UNL     1       0.341   1.744  -0.814  0.00  0.00    +0.044 C 
ATOM      6  C   UNL     1       0.252   0.245  -0.685  0.00  0.00    -0.050 A 
ATOM      7  C   UNL     1       0.219  -0.545  -1.819  0.00  0.00    +0.005 A 
ATOM      8  C   UNL     1       0.137  -1.920  -1.701  0.00  0.00    +0.029 A 
ATOM      9  C   UNL     1       0.089  -2.505  -0.449  0.00  0.00    +0.106 A 
ATOM     10  C   UNL     1       0.122  -1.714   0.685  0.00  0.00    +0.029 A 
ATOM     11  C   UNL     1       0.208  -0.340   0.567  0.00  0.00    +0.005 A 
ENDBRANCH   2   9
ENDBRANCH   1   2
BRANCH   1  12
ATOM     12  C   UNL     1       2.180  -5.096   1.037  0.00  0.00    +0.144 C 
BRANCH  12  13
ATOM     13  C   UNL     1       2.007  -6.548   1.404  0.00  0.00    -0.028 A 
ATOM     14  C   UNL     1       0.903  -6.948   2.133  0.00  0.00    +0.009 A 
ATOM     15  C   UNL     1       0.740  -8.279   2.472  0.00  0.00    +0.050 A 
ATOM     16  C   UNL     1       1.684  -9.214   2.081  0.00  0.00    +0.166 A 
ATOM     17  C   UNL     1       2.797  -8.811   1.347  0.00  0.00    +0.167 A 
ATOM     18  C   UNL     1       2.951  -7.477   1.006  0.00  0.00    +0.054 A 
ATOM     19  O   UNL     1       3.569  -9.906   1.087  0.00  0.00    -0.453 OA
ATOM     20  C   UNL     1       3.130 -10.915   2.017  0.00  0.00    +0.466 C 
ATOM     21  O   UNL     1       1.760 -10.562   2.282  0.00  0.00    -0.453 OA
ENDBRANCH  12  13
ENDBRANCH   1  12
BRANCH   1  22
ATOM     22  C   UNL     1       2.258  -5.095  -1.499  0.00  0.00    +0.126 C 
BRANCH  22  23
ATOM     23  C   UNL     1       3.525  -4.238  -1.538  0.00  0.00    +0.114 C 
ATOM     24  C   UNL     1       4.308  -4.623  -2.777  0.00  0.00    -0.003 C 
ATOM     25  C   UNL     1       4.583  -3.638  -3.674  0.00  0.00    -0.003 A 
ATOM     26  C   UNL     1       5.335  -3.928  -4.896  0.00  0.00    +0.059 A 
ATOM     27  C   UNL     1       5.594  -2.921  -5.771  0.00  0.00    +0.167 A 
ATOM     28  C   UNL     1       5.150  -1.604  -5.522  0.00  0.00    +0.168 A 
ATOM     29  C   UNL     1       4.438  -1.281  -4.387  0.00  0.00    +0.073 A 
ATOM     30  C   UNL     1       4.128  -2.257  -3.432  0.00  0.00    +0.044 A 
ATOM     31  N   UNL     1       3.437  -1.922  -2.339  0.00  0.00    -0.284 N 
ATOM     32  C   UNL     1       3.111  -2.791  -1.399  0.00  0.00    +0.225 C 
ATOM     33  O   UNL     1       2.480  -2.427  -0.424  0.00  0.00    -0.275 OA
ATOM     34  O   UNL     1       5.552  -0.817  -6.562  0.00  0.00    -0.453 OA
ATOM     35  C   UNL     1       6.590  -1.555  -7.230  0.00  0.00    +0.466 C 
ATOM     36  O   UNL     1       6.267  -2.931  -6.962  0.00  0.00    -0.453 OA
ATOM     37  H   UNL     1       3.162  -0.998  -2.231  0.00  0.00    +0.155 HD
ENDBRANCH  22  23
ENDBRANCH   1  22
TORSDOF 6
