REMARK  Name = ZINC34757355
REMARK  8 active torsions:
REMARK  status: ('A' for Active; 'I' for Inactive)
REMARK    1  A    between atoms: C_1  and  C_2
REMARK    2  A    between atoms: C_2  and  C_3
REMARK    3  A    between atoms: C_2  and  C_4
REMARK    4  A    between atoms: C_4  and  S_5
REMARK    5  A    between atoms: S_5  and  C_6
REMARK    6  A    between atoms: N_21  and  C_24
REMARK    7  A    between atoms: C_24  and  C_25
REMARK    8  A    between atoms: N_27  and  C_28
REMARK                            x       y       z     vdW  Elec       q    Type
REMARK                         _______ _______ _______ _____ _____    ______ ____
ROOT
ATOM      1  C   UNL     1      -4.042  -2.666   1.099  0.00  0.00    +0.191 A 
ATOM      2  N   UNL     1      -4.349  -3.952   0.966  0.00  0.00    -0.206 NA
ATOM      3  C   UNL     1      -4.713  -4.471  -0.195  0.00  0.00    +0.134 A 
ATOM      4  C   UNL     1      -4.779  -3.628  -1.339  0.00  0.00    +0.051 A 
ATOM      5  C   UNL     1      -5.156  -3.987  -2.717  0.00  0.00    -0.025 A 
ATOM      6  C   UNL     1      -5.139  -3.001  -3.627  0.00  0.00    -0.004 A 
ATOM      7  S   UNL     1      -4.634  -1.551  -2.730  0.00  0.00    -0.073 S 
ATOM      8  C   UNL     1      -4.442  -2.280  -1.126  0.00  0.00    +0.115 A 
ATOM      9  N   UNL     1      -4.092  -1.835   0.066  0.00  0.00    -0.215 NA
ATOM     10  C   UNL     1      -5.536  -3.484  -4.997  0.00  0.00    +0.043 C 
ATOM     11  C   UNL     1      -5.394  -5.020  -4.922  0.00  0.00    +0.010 C 
ATOM     12  C   UNL     1      -5.591  -5.279  -3.416  0.00  0.00    +0.037 C 
ATOM     13  N   UNL     1      -5.025  -5.814  -0.295  0.00  0.00    -0.318 N 
ATOM     14  C   UNL     1      -6.415  -6.279  -0.175  0.00  0.00    +0.088 C 
ATOM     15  C   UNL     1      -6.460  -7.420   0.847  0.00  0.00    -0.059 C 
ATOM     16  N   UNL     1      -5.504  -8.463   0.457  0.00  0.00    +0.387 N 
ATOM     17  C   UNL     1      -4.135  -7.934   0.514  0.00  0.00    -0.059 C 
ATOM     18  C   UNL     1      -3.976  -6.819  -0.530  0.00  0.00    +0.088 C 
ATOM     19  H   UNL     1      -5.705  -8.768  -0.484  0.00  0.00    -0.081 HD
ENDROOT
BRANCH   1  20
ATOM     20  S   UNL     1      -3.566  -2.051   2.680  0.00  0.00    -0.086 S 
BRANCH  20  21
ATOM     21  C   UNL     1      -3.257  -0.287   2.390  0.00  0.00    +0.080 C 
BRANCH  21  23
ATOM     22  C   UNL     1      -2.448   1.835   3.431  0.00  0.00    +0.008 C 
ATOM     23  C   UNL     1      -2.829   0.378   3.700  0.00  0.00    -0.007 C 
ATOM     24  C   UNL     1      -3.988   0.329   4.698  0.00  0.00    +0.008 C 
ENDBRANCH  21  23
ENDBRANCH  20  21
ENDBRANCH   1  20
BRANCH  16  25
ATOM     25  C   UNL     1      -5.625  -9.604   1.374  0.00  0.00    +0.019 C 
BRANCH  25  26
ATOM     26  C   UNL     1      -4.733 -10.724   0.903  0.00  0.00    +0.197 C 
ATOM     27  O   UNL     1      -4.063 -10.586  -0.098  0.00  0.00    -0.278 OA
ATOM     28  N   UNL     1      -4.681 -11.880   1.595  0.00  0.00    -0.314 N 
ATOM     29  H   UNL     1      -5.217 -11.990   2.396  0.00  0.00    +0.149 HD
BRANCH  28  30
ATOM     30  C   UNL     1      -3.814 -12.968   1.138  0.00  0.00    +0.073 C 
ATOM     31  C   UNL     1      -4.552 -13.801   0.087  0.00  0.00    +0.022 C 
ATOM     32  C   UNL     1      -3.647 -14.938  -0.390  0.00  0.00    +0.002 C 
ATOM     33  C   UNL     1      -3.276 -15.828   0.798  0.00  0.00    +0.000 C 
ATOM     34  C   UNL     1      -2.538 -14.996   1.848  0.00  0.00    +0.002 C 
ATOM     35  C   UNL     1      -3.443 -13.858   2.326  0.00  0.00    +0.022 C 
ENDBRANCH  28  30
ENDBRANCH  25  26
ENDBRANCH  16  25
TORSDOF 6
