REMARK  Name = ZINC20038293
REMARK  6 active torsions:
REMARK  status: ('A' for Active; 'I' for Inactive)
REMARK    1  A    between atoms: C_1  and  C_2
REMARK    2  A    between atoms: C_3  and  C_35
REMARK    3  A    between atoms: C_19  and  C_20
REMARK    4  A    between atoms: C_23  and  C_25
REMARK    5  A    between atoms: C_35  and  O_37
REMARK    6  A    between atoms: O_37  and  C_38
REMARK                            x       y       z     vdW  Elec       q    Type
REMARK                         _______ _______ _______ _____ _____    ______ ____
ROOT
ATOM      1  C   UNL     1       1.104  -5.158   6.953  0.00  0.00    +0.041 C 
ATOM      2  C   UNL     1       1.959  -4.809   5.732  0.00  0.00    +0.121 C 
ATOM      3  C   UNL     1       2.426  -5.913   4.755  0.00  0.00    +0.177 C 
ATOM      4  C   UNL     1       3.407  -5.204   5.697  0.00  0.00    +0.176 C 
ATOM      5  C   UNL     1       4.440  -4.178   5.173  0.00  0.00    +0.173 C 
ATOM      6  C   UNL     1       5.603  -5.061   4.926  0.00  0.00    +0.021 A 
ATOM      7  C   UNL     1       6.697  -4.971   4.096  0.00  0.00    +0.009 A 
ATOM      8  C   UNL     1       7.620  -6.010   4.141  0.00  0.00    +0.001 A 
ATOM      9  C   UNL     1       7.448  -7.088   4.984  0.00  0.00    +0.004 A 
ATOM     10  C   UNL     1       6.348  -7.195   5.821  0.00  0.00    +0.046 A 
ATOM     11  C   UNL     1       5.412  -6.168   5.784  0.00  0.00    +0.127 A 
ATOM     12  O   UNL     1       4.240  -6.058   6.477  0.00  0.00    -0.480 OA
ATOM     13  N   UNL     1       3.846  -3.415   4.079  0.00  0.00    -0.275 N 
ATOM     14  C   UNL     1       4.536  -2.942   3.038  0.00  0.00    +0.268 A 
ATOM     15  O   UNL     1       5.652  -3.358   2.783  0.00  0.00    -0.266 OA
ATOM     16  C   UNL     1       3.911  -1.902   2.213  0.00  0.00    +0.083 A 
ATOM     17  C   UNL     1       4.440  -1.178   1.185  0.00  0.00    +0.066 C 
ATOM     18  S   UNL     1       2.268  -1.846   2.912  0.00  0.00    -0.046 S 
ATOM     19  C   UNL     1       2.485  -3.095   4.152  0.00  0.00    +0.173 A 
ATOM     20  N   UNL     1       1.595  -3.587   4.955  0.00  0.00    -0.249 NA
ENDROOT
BRANCH  17  21
ATOM     21  C   UNL     1       3.648  -0.219   0.516  0.00  0.00    +0.130 A 
ATOM     22  C   UNL     1       4.056   0.580  -0.536  0.00  0.00    +0.050 A 
ATOM     23  C   UNL     1       2.958   1.370  -0.891  0.00  0.00    +0.050 A 
ATOM     24  C   UNL     1       1.935   1.038  -0.050  0.00  0.00    +0.137 A 
ATOM     25  O   UNL     1       2.360   0.077   0.791  0.00  0.00    -0.455 OA
BRANCH  24  26
ATOM     26  C   UNL     1       0.583   1.630  -0.064  0.00  0.00    +0.036 A 
ATOM     27  C   UNL     1      -0.545   0.805  -0.079  0.00  0.00    +0.013 A 
ATOM     28  C   UNL     1      -1.804   1.365  -0.099  0.00  0.00    +0.001 A 
ATOM     29  C   UNL     1      -1.954   2.741  -0.093  0.00  0.00    +0.001 A 
ATOM     30  C   UNL     1      -0.843   3.565  -0.079  0.00  0.00    +0.021 A 
ATOM     31  C   UNL     1       0.425   3.019  -0.064  0.00  0.00    +0.052 A 
ATOM     32 CL   UNL     1       1.818   4.054  -0.047  0.00  0.00    -0.083 Cl
ENDBRANCH  24  26
ENDBRANCH  17  21
BRANCH   3  33
ATOM     33  C   UNL     1       2.490  -5.569   3.289  0.00  0.00    +0.316 C 
ATOM     34  O   UNL     1       1.525  -5.095   2.737  0.00  0.00    -0.250 OA
BRANCH  33  35
ATOM     35  O   UNL     1       3.619  -5.787   2.597  0.00  0.00    -0.468 OA
ATOM     36  C   UNL     1       3.609  -5.431   1.189  0.00  0.00    +0.280 C 
ENDBRANCH  33  35
ENDBRANCH   3  33
TORSDOF 4
