REMARK  Name = ZINC33483420
REMARK  7 active torsions:
REMARK  status: ('A' for Active; 'I' for Inactive)
REMARK    1  A    between atoms: C_1  and  C_2
REMARK    2  A    between atoms: C_5  and  N_9
REMARK    3  A    between atoms: C_6  and  C_8
REMARK    4  A    between atoms: C_10  and  C_12
REMARK    5  A    between atoms: N_17  and  C_28
REMARK    6  A    between atoms: N_19  and  C_20
REMARK    7  A    between atoms: C_28  and  C_29
REMARK                            x       y       z     vdW  Elec       q    Type
REMARK                         _______ _______ _______ _____ _____    ______ ____
ROOT
ATOM      1  C   UNL     1      -0.134  -6.343  -1.187  0.00  0.00    +0.149 C 
ATOM      2  C   UNL     1       0.584  -6.906  -2.415  0.00  0.00    +0.120 C 
ATOM      3  C   UNL     1       0.351  -8.367  -2.591  0.00  0.00    +0.223 C 
ATOM      4  O   UNL     1       1.233  -8.975  -3.159  0.00  0.00    -0.275 OA
ATOM      5  N   UNL     1      -0.690  -9.090  -2.207  0.00  0.00    -0.246 N 
ATOM      6  C   UNL     1      -1.724  -8.611  -1.425  0.00  0.00    +0.164 C 
ATOM      7  N   UNL     1      -2.555  -9.425  -0.817  0.00  0.00    -0.226 NA
ATOM      8  S   UNL     1      -1.882  -6.852  -1.275  0.00  0.00    -0.077 S 
ENDROOT
BRANCH   7   9
ATOM      9  C   UNL     1      -3.571  -8.920  -0.049  0.00  0.00    +0.068 A 
ATOM     10  C   UNL     1      -3.321  -7.875   0.844  0.00  0.00    +0.028 A 
ATOM     11  C   UNL     1      -4.348  -7.371   1.614  0.00  0.00    +0.003 A 
ATOM     12  C   UNL     1      -5.623  -7.897   1.505  0.00  0.00    +0.020 A 
ATOM     13  C   UNL     1      -5.877  -8.933   0.623  0.00  0.00    +0.043 A 
ATOM     14  C   UNL     1      -4.860  -9.443  -0.160  0.00  0.00    +0.047 A 
ATOM     15 CL   UNL     1      -7.480  -9.587   0.494  0.00  0.00    -0.083 Cl
ENDBRANCH   7   9
BRANCH   1  17
ATOM     16  N   UNL     1       0.059  -4.170  -0.021  0.00  0.00    -0.284 N 
ATOM     17  C   UNL     1      -0.040  -4.839  -1.187  0.00  0.00    +0.231 C 
ATOM     18  O   UNL     1      -0.054  -4.230  -2.236  0.00  0.00    -0.274 OA
ATOM     19  H   UNL     1       0.135  -4.658   0.814  0.00  0.00    +0.155 HD
BRANCH  16  24
ATOM     20  C   UNL     1       0.025   1.503   0.005  0.00  0.00    +0.044 C 
ATOM     21  C   UNL     1       0.034  -0.004  -0.002  0.00  0.00    -0.050 A 
ATOM     22  C   UNL     1       0.632  -0.685  -1.046  0.00  0.00    +0.005 A 
ATOM     23  C   UNL     1       0.641  -2.066  -1.055  0.00  0.00    +0.024 A 
ATOM     24  C   UNL     1       0.051  -2.771  -0.014  0.00  0.00    +0.036 A 
ATOM     25  C   UNL     1      -0.548  -2.083   1.033  0.00  0.00    -0.029 A 
ATOM     26  C   UNL     1      -0.550  -0.702   1.039  0.00  0.00    +0.008 A 
ATOM     27  C   UNL     1      -1.190  -2.843   2.165  0.00  0.00    +0.045 C 
ENDBRANCH  16  24
ENDBRANCH   1  17
BRANCH   5  28
ATOM     28  C   UNL     1      -0.749 -10.489  -2.640  0.00  0.00    +0.150 C 
BRANCH  28  29
ATOM     29  C   UNL     1      -0.066 -11.360  -1.618  0.00  0.00    -0.026 A 
ATOM     30  C   UNL     1       1.288 -11.619  -1.727  0.00  0.00    +0.009 A 
ATOM     31  C   UNL     1       1.919 -12.418  -0.792  0.00  0.00    +0.050 A 
ATOM     32  C   UNL     1       1.196 -12.961   0.257  0.00  0.00    +0.166 A 
ATOM     33  C   UNL     1      -0.168 -12.701   0.367  0.00  0.00    +0.167 A 
ATOM     34  C   UNL     1      -0.793 -11.895  -0.571  0.00  0.00    +0.054 A 
ATOM     35  O   UNL     1      -0.648 -13.343   1.472  0.00  0.00    -0.453 OA
ATOM     36  C   UNL     1       0.347 -14.329   1.806  0.00  0.00    +0.466 C 
ATOM     37  O   UNL     1       1.570 -13.767   1.294  0.00  0.00    -0.453 OA
ENDBRANCH  28  29
ENDBRANCH   5  28
TORSDOF 5
