REMARK  Name = ZINC35270664
REMARK  17 active torsions:
REMARK  status: ('A' for Active; 'I' for Inactive)
REMARK    1  A    between atoms: C_1  and  C_2
REMARK    2  A    between atoms: C_2  and  C_4
REMARK    3  A    between atoms: C_2  and  O_34
REMARK    4  A    between atoms: C_4  and  C_6
REMARK    5  A    between atoms: C_4  and  O_33
REMARK    6  A    between atoms: C_7  and  C_8
REMARK    7  A    between atoms: C_9  and  C_10
REMARK    8  A    between atoms: C_10  and  O_12
REMARK    9  A    between atoms: O_12  and  C_13
REMARK   10  A    between atoms: C_16  and  C_31
REMARK   11  A    between atoms: C_17  and  C_28
REMARK   12  A    between atoms: C_17  and  O_30
REMARK   13  A    between atoms: C_18  and  C_27
REMARK   14  A    between atoms: C_21  and  C_25
REMARK   15  A    between atoms: C_21  and  C_26
REMARK   16  A    between atoms: C_28  and  O_29
REMARK   17  A    between atoms: C_31  and  O_32
REMARK                            x       y       z     vdW  Elec       q    Type
REMARK                         _______ _______ _______ _____ _____    ______ ____
ROOT
ATOM      1  C   UNL     1       4.458  -8.292   1.526  0.00  0.00    +0.204 C 
ATOM      2  C   UNL     1       4.044  -8.778   2.888  0.00  0.00    +0.022 C 
ATOM      3  C   UNL     1       4.808  -9.466   3.667  0.00  0.00    -0.011 C 
ATOM      4  C   UNL     1       6.202  -9.895   3.327  0.00  0.00    +0.118 C 
ATOM      5  C   UNL     1       6.774  -9.053   2.168  0.00  0.00    +0.010 C 
ATOM      6  C   UNL     1       5.727  -8.997   1.064  0.00  0.00    +0.048 C 
ATOM      7  C   UNL     1       6.223  -8.501  -0.279  0.00  0.00    -0.028 C 
ATOM      8  C   UNL     1       7.484  -9.268  -0.700  0.00  0.00    +0.007 C 
ATOM      9  C   UNL     1       8.553  -9.138   0.382  0.00  0.00    +0.001 C 
ATOM     10  C   UNL     1       8.039  -9.765   1.676  0.00  0.00    +0.010 C 
ATOM     11  C   UNL     1       6.524  -7.008  -0.333  0.00  0.00    +0.011 C 
ATOM     12  C   UNL     1       5.147  -8.801  -1.345  0.00  0.00    +0.011 C 
ATOM     13  C   UNL     1       7.144  -7.675   2.720  0.00  0.00    +0.015 C 
ENDROOT
BRANCH   4  14
ATOM     14  O   UNL     1       6.190 -11.273   2.953  0.00  0.00    -0.381 OA
ATOM     15  H   UNL     1       5.867 -11.865   3.645  0.00  0.00    +0.211 HD
ENDBRANCH   4  14
BRANCH   1  16
ATOM     16  O   UNL     1       4.583  -6.875   1.584  0.00  0.00    -0.454 OA
BRANCH  16  17
ATOM     17  C   UNL     1       3.458  -6.153   1.397  0.00  0.00    +0.332 C 
ATOM     18  O   UNL     1       2.401  -6.717   1.188  0.00  0.00    -0.246 OA
BRANCH  17  20
ATOM     19  C   UNL     1       2.382  -4.013   1.253  0.00  0.00    +0.007 C 
ATOM     20  C   UNL     1       3.509  -4.737   1.442  0.00  0.00    +0.091 C 
BRANCH  19  22
ATOM     21  C   UNL     1       1.322  -1.838   1.114  0.00  0.00    +0.006 C 
ATOM     22  C   UNL     1       2.434  -2.552   1.300  0.00  0.00    -0.001 C 
BRANCH  21  23
ATOM     23  C   UNL     1       1.376  -0.333   1.162  0.00  0.00    +0.166 C 
BRANCH  23  25
ATOM     24  C   UNL     1       0.850   1.768  -0.083  0.00  0.00    +0.040 C 
ATOM     25  C   UNL     1       0.795   0.240  -0.132  0.00  0.00    +0.144 C 
BRANCH  25  26
ATOM     26  O   UNL     1      -0.563  -0.183  -0.272  0.00  0.00    -0.389 OA
ATOM     27  H   UNL     1      -1.140   0.100   0.450  0.00  0.00    +0.210 HD
ENDBRANCH  25  26
ENDBRANCH  23  25
BRANCH  23  28
ATOM     28  O   UNL     1       2.734   0.091   1.302  0.00  0.00    -0.385 OA
ATOM     29  H   UNL     1       3.311  -0.192   0.580  0.00  0.00    +0.210 HD
ENDBRANCH  23  28
ENDBRANCH  21  23
ENDBRANCH  19  22
ENDBRANCH  17  20
ENDBRANCH  16  17
ENDBRANCH   1  16
BRANCH   4  30
ATOM     30  C   UNL     1       7.090  -9.714   4.561  0.00  0.00    +0.195 C 
BRANCH  30  31
ATOM     31  O   UNL     1       6.585 -10.514   5.632  0.00  0.00    -0.392 OA
ATOM     32  H   UNL     1       7.100 -10.448   6.448  0.00  0.00    +0.210 HD
ENDBRANCH  30  31
ENDBRANCH   4  30
BRANCH   3  33
ATOM     33  C   UNL     1       4.260  -9.869   5.014  0.00  0.00    +0.189 C 
BRANCH  33  34
ATOM     34  O   UNL     1       2.927  -9.373   5.154  0.00  0.00    -0.391 OA
ATOM     35  H   UNL     1       2.512  -9.595   5.999  0.00  0.00    +0.210 HD
ENDBRANCH  33  34
ENDBRANCH   3  33
TORSDOF 13
