REMARK  Name = ZINC21783175
REMARK  5 active torsions:
REMARK  status: ('A' for Active; 'I' for Inactive)
REMARK    1  A    between atoms: C_1  and  C_2
REMARK    2  A    between atoms: C_10  and  C_11
REMARK    3  A    between atoms: N_13  and  N_14
REMARK    4  A    between atoms: C_15  and  C_17
REMARK    5  A    between atoms: C_17  and  C_22
REMARK                            x       y       z     vdW  Elec       q    Type
REMARK                         _______ _______ _______ _____ _____    ______ ____
ROOT
ATOM      1  C   UNL     1      -3.049   1.680   0.323  0.00  0.00    +0.296 C 
ATOM      2  O   UNL     1      -2.714   1.295  -0.782  0.00  0.00    -0.265 OA
ATOM      3  N   UNL     1      -4.342   1.967   0.573  0.00  0.00    -0.228 N 
ATOM      4  H   UNL     1      -4.645   2.315   1.571  0.00  0.00    +0.173 HD
ENDROOT
BRANCH   1  14
ATOM      5  C   UNL     1      -0.013   1.086   0.008  0.00  0.00    +0.048 C 
ATOM      6  C   UNL     1      -0.718   1.572   1.248  0.00  0.00    +0.008 A 
ATOM      7  C   UNL     1      -0.112   1.866   2.546  0.00  0.00    +0.024 A 
ATOM      8  C   UNL     1       1.190   1.809   3.048  0.00  0.00    +0.012 A 
ATOM      9  C   UNL     1       1.432   2.162   4.346  0.00  0.00    +0.001 A 
ATOM     10  C   UNL     1       0.392   2.576   5.167  0.00  0.00    +0.004 A 
ATOM     11  C   UNL     1      -0.900   2.638   4.692  0.00  0.00    +0.047 A 
ATOM     12  C   UNL     1      -1.170   2.284   3.374  0.00  0.00    +0.136 A 
ATOM     13  O   UNL     1      -2.300   2.245   2.643  0.00  0.00    -0.450 OA
ATOM     14  C   UNL     1      -2.044   1.831   1.384  0.00  0.00    +0.195 A 
ENDBRANCH   1  14
BRANCH   3  15
ATOM     15  N   UNL     1      -5.300   1.823  -0.440  0.00  0.00    -0.234 N 
ATOM     16  C   UNL     1      -6.593   2.110  -0.190  0.00  0.00    +0.238 C 
ATOM     17  O   UNL     1      -6.927   2.494   0.911  0.00  0.00    -0.274 OA
ATOM     18  H   UNL     1      -4.997   1.475  -1.438  0.00  0.00    +0.173 HD
BRANCH  16  19
ATOM     19  C   UNL     1      -7.623   1.955  -1.278  0.00  0.00    +0.081 C 
ATOM     20  C   UNL     1      -8.654   0.836  -1.121  0.00  0.00    +0.058 C 
ATOM     21  C   UNL     1      -9.074   2.295  -0.931  0.00  0.00    +0.133 C 
ATOM     22 CL   UNL     1      -9.420   2.851   0.749  0.00  0.00    -0.100 Cl
ATOM     23 CL   UNL     1     -10.085   3.046  -2.222  0.00  0.00    -0.100 Cl
ATOM     24  C   UNL     1      -7.141   2.278  -2.694  0.00  0.00    +0.024 C 
ENDBRANCH  16  19
ENDBRANCH   3  15
TORSDOF 3
