REMARK  Name = ZINC09699857
REMARK  6 active torsions:
REMARK  status: ('A' for Active; 'I' for Inactive)
REMARK    1  A    between atoms: C_3  and  N_11
REMARK    2  A    between atoms: C_6  and  C_7
REMARK    3  A    between atoms: C_12  and  C_14
REMARK    4  A    between atoms: C_14  and  C_15
REMARK    5  A    between atoms: C_21  and  C_23
REMARK    6  A    between atoms: N_28  and  C_30
REMARK                            x       y       z     vdW  Elec       q    Type
REMARK                         _______ _______ _______ _____ _____    ______ ____
ROOT
ATOM      1  C   UNL     1       3.380  11.202   1.760  0.00  0.00    +0.059 A 
ATOM      2  C   UNL     1       4.306  10.660   2.588  0.00  0.00    +0.072 A 
ATOM      3  S   UNL     1       4.121   8.925   2.202  0.00  0.00    -0.060 S 
ATOM      4  C   UNL     1       2.874   9.092   1.005  0.00  0.00    +0.165 A 
ATOM      5  N   UNL     1       2.683  10.396   0.983  0.00  0.00    -0.229 NA
ATOM      6  N   UNL     1       2.238   8.103   0.264  0.00  0.00    -0.264 N 
ATOM      7  C   UNL     1       2.579   6.810   0.432  0.00  0.00    +0.224 C 
ATOM      8  O   UNL     1       3.442   6.509   1.230  0.00  0.00    -0.275 OA
ATOM      9  H   UNL     1       1.548   8.344  -0.374  0.00  0.00    +0.157 HD
ENDROOT
BRANCH   7  10
ATOM     10  C   UNL     1       1.889   5.738  -0.371  0.00  0.00    +0.102 C 
ATOM     11  C   UNL     1       0.372   5.711  -0.071  0.00  0.00    +0.110 C 
ATOM     12  C   UNL     1       0.014   4.242  -0.101  0.00  0.00    +0.221 C 
ATOM     13  O   UNL     1      -1.113   3.804  -0.191  0.00  0.00    -0.275 OA
ATOM     14  N   UNL     1       1.127   3.493  -0.013  0.00  0.00    -0.271 N 
ATOM     15  C   UNL     1       2.326   4.331   0.099  0.00  0.00    +0.127 C 
BRANCH  14  16
ATOM     16  C   UNL     1       1.139   2.093  -0.022  0.00  0.00    +0.036 A 
ATOM     17  C   UNL     1      -0.057   1.387  -0.014  0.00  0.00    +0.026 A 
ATOM     18  C   UNL     1      -0.042   0.006  -0.022  0.00  0.00    +0.040 A 
ATOM     19  C   UNL     1       1.164  -0.675  -0.039  0.00  0.00    +0.124 A 
ATOM     20  C   UNL     1       2.357   0.027  -0.048  0.00  0.00    +0.040 A 
ATOM     21  C   UNL     1       2.347   1.408  -0.038  0.00  0.00    +0.026 A 
ATOM     22  F   UNL     1       1.176  -2.026  -0.048  0.00  0.00    -0.205 F 
ENDBRANCH  14  16
ENDBRANCH   7  10
BRANCH   1  23
ATOM     23  C   UNL     1       3.153  12.692   1.726  0.00  0.00    +0.152 C 
BRANCH  23  25
ATOM     24  N   UNL     1       3.150  14.503   0.041  0.00  0.00    -0.285 N 
ATOM     25  C   UNL     1       3.309  13.192   0.313  0.00  0.00    +0.223 C 
ATOM     26  O   UNL     1       3.578  12.416  -0.579  0.00  0.00    -0.275 OA
ATOM     27  H   UNL     1       3.013  15.135   0.764  0.00  0.00    +0.155 HD
BRANCH  24  30
ATOM     28  C   UNL     1       2.703  14.600  -3.607  0.00  0.00    +0.014 A 
ATOM     29  C   UNL     1       2.670  14.155  -2.300  0.00  0.00    +0.024 A 
ATOM     30  C   UNL     1       3.182  14.951  -1.284  0.00  0.00    +0.033 A 
ATOM     31  C   UNL     1       3.722  16.194  -1.585  0.00  0.00    +0.024 A 
ATOM     32  C   UNL     1       3.757  16.631  -2.895  0.00  0.00    +0.014 A 
ATOM     33  C   UNL     1       3.247  15.837  -3.905  0.00  0.00    +0.055 A 
BRANCH  33  34
ATOM     34  C   UNL     1       3.282  16.319  -5.332  0.00  0.00    +0.417 C 
ATOM     35  F   UNL     1       2.109  17.027  -5.614  0.00  0.00    -0.166 F 
ATOM     36  F   UNL     1       4.387  17.157  -5.514  0.00  0.00    -0.166 F 
ATOM     37  F   UNL     1       3.382  15.221  -6.193  0.00  0.00    -0.166 F 
ENDBRANCH  33  34
ENDBRANCH  24  30
ENDBRANCH  23  25
ENDBRANCH   1  23
TORSDOF 6
