REMARK  Name = ZINC13129343
REMARK  8 active torsions:
REMARK  status: ('A' for Active; 'I' for Inactive)
REMARK    1  A    between atoms: C_1  and  N_52
REMARK    2  A    between atoms: C_2  and  N_52
REMARK    3  A    between atoms: C_3  and  C_9
REMARK    4  A    between atoms: C_3  and  N_52
REMARK    5  A    between atoms: C_9  and  N_10
REMARK    6  A    between atoms: C_11  and  C_13
REMARK    7  A    between atoms: C_13  and  O_14
REMARK    8  A    between atoms: O_14  and  C_15
REMARK                            x       y       z     vdW  Elec       q    Type
REMARK                         _______ _______ _______ _____ _____    ______ ____
ROOT
ATOM      1  N   UNL     1       1.435   6.345   2.466  0.00  0.00    -0.314 N 
ATOM      2  C   UNL     1       1.685   5.423   1.515  0.00  0.00    +0.251 C 
ATOM      3  O   UNL     1       1.696   5.745   0.346  0.00  0.00    -0.272 OA
ATOM      4  H   UNL     1       1.427   6.087   3.401  0.00  0.00    +0.149 HD
ENDROOT
BRANCH   1   5
ATOM      5  C   UNL     1       1.178   7.736   2.088  0.00  0.00    +0.092 C 
BRANCH   5   6
ATOM      6  C   UNL     1       0.895   8.562   3.344  0.00  0.00    -0.050 C 
ATOM      7  C   UNL     1       0.496   9.983   2.941  0.00  0.00    -0.010 C 
ATOM      8  C   UNL     1       1.637  10.629   2.153  0.00  0.00    -0.001 C 
ATOM      9  C   UNL     1       2.894  10.680   3.024  0.00  0.00    -0.000 C 
ATOM     10  C   UNL     1       3.293   9.258   3.427  0.00  0.00    -0.001 C 
ATOM     11  C   UNL     1       2.152   8.613   4.215  0.00  0.00    -0.010 C 
BRANCH   6  14
ATOM     12  C   UNL     1      -0.433   8.651   5.367  0.00  0.00    -0.096 C 
ATOM     13  C   UNL     1      -1.429   7.885   3.298  0.00  0.00    -0.096 C 
ATOM     14  N   UNL     1      -0.193   7.915   4.108  0.00  0.00    +0.381 N 
ATOM     15  H   UNL     1       0.083   6.952   4.331  0.00  0.00    -0.082 HD
ENDBRANCH   6  14
ENDBRANCH   5   6
ENDBRANCH   1   5
BRANCH   2  16
ATOM     16  C   UNL     1       1.950   3.991   1.904  0.00  0.00    +0.324 C 
BRANCH  16  17
ATOM     17  O   UNL     1       2.184   3.214   0.729  0.00  0.00    -0.480 OA
BRANCH  17  18
ATOM     18  C   UNL     1       2.441   1.891   0.905  0.00  0.00    +0.160 A 
ATOM     19  C   UNL     1       1.409   0.981   0.919  0.00  0.00    +0.059 A 
ATOM     20  C   UNL     1       1.657  -0.378   1.098  0.00  0.00    +0.038 A 
ATOM     21  C   UNL     1       2.927  -0.842   1.264  0.00  0.00    +0.051 A 
ATOM     22  C   UNL     1       4.006   0.057   1.256  0.00  0.00    +0.022 A 
ATOM     23  C   UNL     1       3.767   1.442   1.074  0.00  0.00    +0.115 A 
ATOM     24  N   UNL     1       4.791   2.299   1.065  0.00  0.00    -0.251 NA
ATOM     25  C   UNL     1       6.026   1.888   1.221  0.00  0.00    +0.111 A 
ATOM     26  C   UNL     1       6.332   0.541   1.404  0.00  0.00    +0.020 A 
ATOM     27  C   UNL     1       5.331  -0.389   1.424  0.00  0.00    +0.013 A 
ATOM     28 CL   UNL     1       3.211  -2.540   1.485  0.00  0.00    -0.083 Cl
ATOM     29  I   UNL     1      -0.561   1.647   0.658  0.00  0.00    -0.040 I 
ENDBRANCH  17  18
ENDBRANCH  16  17
ENDBRANCH   2  16
TORSDOF 6
