REMARK  Name = ZINC60361394
REMARK  8 active torsions:
REMARK  status: ('A' for Active; 'I' for Inactive)
REMARK    1  A    between atoms: C_1  and  C_2
REMARK    2  A    between atoms: C_2  and  O_3
REMARK    3  A    between atoms: O_3  and  C_4
REMARK    4  A    between atoms: C_4  and  C_6
REMARK    5  A    between atoms: C_7  and  C_35
REMARK    6  A    between atoms: C_13  and  C_17
REMARK    7  A    between atoms: C_17  and  C_19
REMARK    8  A    between atoms: C_17  and  N_20
REMARK                            x       y       z     vdW  Elec       q    Type
REMARK                         _______ _______ _______ _____ _____    ______ ____
ROOT
ATOM      1  C   UNL     1       4.420  -4.331  -7.734  0.00  0.00    -0.003 C 
ATOM      2  C   UNL     1       5.692  -5.180  -7.782  0.00  0.00    -0.005 C 
ENDROOT
BRANCH   1   3
ATOM      3  N   UNL     1       4.709  -2.988  -8.255  0.00  0.00    +0.391 N 
ATOM      4  C   UNL     1       5.363  -3.110  -9.559  0.00  0.00    -0.041 C 
ATOM      5  C   UNL     1       5.365  -1.804 -10.302  0.00  0.00    -0.056 A 
ATOM      6  C   UNL     1       6.497  -1.020 -10.361  0.00  0.00    +0.002 A 
ATOM      7  C   UNL     1       6.477   0.170 -11.069  0.00  0.00    +0.000 A 
ATOM      8  C   UNL     1       5.327   0.579 -11.720  0.00  0.00    +0.001 A 
ATOM      9  C   UNL     1       4.184  -0.196 -11.661  0.00  0.00    +0.009 A 
ATOM     10  C   UNL     1       4.200  -1.385 -10.945  0.00  0.00    -0.016 A 
ATOM     11  C   UNL     1       2.987  -2.229 -10.810  0.00  0.00    -0.016 A 
ATOM     12  C   UNL     1       2.215  -2.577 -11.909  0.00  0.00    +0.009 A 
ATOM     13  C   UNL     1       1.105  -3.382 -11.735  0.00  0.00    +0.001 A 
ATOM     14  C   UNL     1       0.771  -3.838 -10.472  0.00  0.00    +0.000 A 
ATOM     15  C   UNL     1       1.535  -3.486  -9.373  0.00  0.00    +0.002 A 
ATOM     16  C   UNL     1       2.638  -2.675  -9.534  0.00  0.00    -0.056 A 
ATOM     17  C   UNL     1       3.458  -2.234  -8.354  0.00  0.00    -0.041 C 
ATOM     18  H   UNL     1       5.330  -2.513  -7.618  0.00  0.00    -0.080 HD
ENDBRANCH   1   3
BRANCH   1  26
ATOM     19  C   UNL     1       2.510  -2.386  -2.027  0.00  0.00    +0.102 A 
ATOM     20  C   UNL     1       2.630  -3.690  -2.413  0.00  0.00    -0.015 A 
ATOM     21  C   UNL     1       3.063  -3.995  -3.704  0.00  0.00    +0.076 A 
ATOM     22  C   UNL     1       3.266  -5.320  -4.335  0.00  0.00    +0.260 A 
ATOM     23  O   UNL     1       3.049  -6.346  -3.716  0.00  0.00    -0.267 OA
ATOM     24  N   UNL     1       3.696  -5.360  -5.611  0.00  0.00    -0.312 N 
ATOM     25  H   UNL     1       3.834  -6.220  -6.039  0.00  0.00    +0.170 HD
ATOM     26  C   UNL     1       3.940  -4.224  -6.310  0.00  0.00    +0.097 A 
ATOM     27  N   UNL     1       3.772  -3.041  -5.784  0.00  0.00    -0.228 NA
ATOM     28  C   UNL     1       3.352  -2.888  -4.535  0.00  0.00    +0.116 A 
ATOM     29  S   UNL     1       3.003  -1.495  -3.493  0.00  0.00    -0.062 S 
ATOM     30  C   UNL     1       2.296  -4.797  -1.446  0.00  0.00    +0.046 C 
BRANCH  19  31
ATOM     31  C   UNL     1       2.078  -1.851  -0.734  0.00  0.00    +0.346 C 
ATOM     32  O   UNL     1       1.774  -2.610   0.167  0.00  0.00    -0.244 OA
BRANCH  31  33
ATOM     33  O   UNL     1       2.018  -0.517  -0.542  0.00  0.00    -0.461 OA
BRANCH  33  35
ATOM     34  C   UNL     1       1.583   1.464   0.772  0.00  0.00    +0.048 C 
ATOM     35  C   UNL     1       1.588  -0.066   0.744  0.00  0.00    +0.229 C 
ENDBRANCH  33  35
ENDBRANCH  31  33
ENDBRANCH  19  31
ENDBRANCH   1  26
TORSDOF 5
