REMARK  Name = ZINC07145291
REMARK  7 active torsions:
REMARK  status: ('A' for Active; 'I' for Inactive)
REMARK    1  A    between atoms: C_1  and  C_2
REMARK    2  A    between atoms: C_2  and  C_4
REMARK    3  A    between atoms: C_2  and  O_12
REMARK    4  A    between atoms: O_12  and  C_13
REMARK    5  A    between atoms: C_13  and  C_15
REMARK    6  A    between atoms: C_18  and  S_21
REMARK    7  A    between atoms: S_21  and  C_22
REMARK                            x       y       z     vdW  Elec       q    Type
REMARK                         _______ _______ _______ _____ _____    ______ ____
ROOT
ATOM      1  C   UNL     1      -5.149   5.030   0.135  0.00  0.00    +0.340 C 
ATOM      2  O   UNL     1      -5.740   4.082   0.615  0.00  0.00    -0.245 OA
ENDROOT
BRANCH   1   3
ATOM      3  C   UNL     1      -5.841   6.320  -0.033  0.00  0.00    +0.059 A 
ATOM      4  C   UNL     1      -5.162   7.414  -0.580  0.00  0.00    +0.016 A 
ATOM      5  C   UNL     1      -5.807   8.607  -0.739  0.00  0.00    +0.016 A 
ATOM      6  C   UNL     1      -7.138   8.739  -0.347  0.00  0.00    +0.016 A 
ATOM      7  C   UNL     1      -7.816   7.652   0.202  0.00  0.00    +0.016 A 
ATOM      8  C   UNL     1      -7.177   6.455   0.359  0.00  0.00    +0.016 A 
BRANCH   6   9
ATOM      9  S   UNL     1      -7.964  10.281  -0.548  0.00  0.00    -0.016 S 
BRANCH   9  10
ATOM     10  C   UNL     1      -6.706  11.361  -1.283  0.00  0.00    +0.448 C 
ATOM     11  F   UNL     1      -6.288  10.825  -2.506  0.00  0.00    -0.160 F 
ATOM     12  F   UNL     1      -7.249  12.634  -1.494  0.00  0.00    -0.160 F 
ATOM     13  F   UNL     1      -5.611  11.459  -0.418  0.00  0.00    -0.160 F 
ENDBRANCH   9  10
ENDBRANCH   6   9
ENDBRANCH   1   3
BRANCH   1  14
ATOM     14  O   UNL     1      -3.862   4.901  -0.243  0.00  0.00    -0.449 OA
BRANCH  14  16
ATOM     15  C   UNL     1      -3.455   2.744  -1.297  0.00  0.00    +0.062 C 
ATOM     16  C   UNL     1      -3.245   3.602  -0.047  0.00  0.00    +0.259 C 
BRANCH  16  17
ATOM     17  C   UNL     1      -1.768   3.779   0.198  0.00  0.00    +0.264 C 
ATOM     18  O   UNL     1      -1.246   4.856   0.003  0.00  0.00    -0.271 OA
ATOM     19  N   UNL     1      -1.028   2.740   0.633  0.00  0.00    -0.221 N 
ATOM     20  C   UNL     1       0.433   2.747   0.803  0.00  0.00    +0.137 C 
ATOM     21  C   UNL     1       0.751   1.329   1.316  0.00  0.00    +0.125 C 
ATOM     22  N   UNL     1      -0.564   0.674   1.381  0.00  0.00    -0.297 N 
ATOM     23  C   UNL     1      -1.506   1.536   0.975  0.00  0.00    +0.309 C 
ATOM     24  O   UNL     1      -2.686   1.253   0.924  0.00  0.00    -0.252 OA
ATOM     25  H   UNL     1      -0.724  -0.238   1.668  0.00  0.00    +0.150 HD
ENDBRANCH  16  17
ENDBRANCH  14  16
ENDBRANCH   1  14
TORSDOF 6
