REMARK  Name = ZINC12887434
REMARK  10 active torsions:
REMARK  status: ('A' for Active; 'I' for Inactive)
REMARK    1  A    between atoms: C_1  and  C_2
REMARK    2  A    between atoms: C_2  and  C_3
REMARK    3  A    between atoms: C_2  and  C_4
REMARK    4  A    between atoms: C_4  and  C_6
REMARK    5  A    between atoms: C_4  and  N_13
REMARK    6  A    between atoms: N_8  and  C_9
REMARK    7  A    between atoms: C_9  and  C_10
REMARK    8  A    between atoms: C_10  and  O_11
REMARK    9  A    between atoms: O_11  and  C_12
REMARK   10  A    between atoms: C_14  and  C_16
REMARK                            x       y       z     vdW  Elec       q    Type
REMARK                         _______ _______ _______ _____ _____    ______ ____
ROOT
ATOM      1  C   UNL     1      -2.723   1.027   3.005  0.00  0.00    +0.167 C 
ATOM      2  C   UNL     1      -1.830   0.905   4.248  0.00  0.00    +0.069 C 
ATOM      3  C   UNL     1      -2.677   0.789   5.489  0.00  0.00    -0.015 A 
ATOM      4  C   UNL     1      -2.251   0.971   6.865  0.00  0.00    +0.003 A 
ATOM      5  C   UNL     1      -1.016   1.297   7.434  0.00  0.00    +0.010 A 
ATOM      6  C   UNL     1      -0.969   1.387   8.803  0.00  0.00    +0.001 A 
ATOM      7  C   UNL     1      -2.086   1.169   9.594  0.00  0.00    +0.002 A 
ATOM      8  C   UNL     1      -3.320   0.845   9.056  0.00  0.00    +0.026 A 
ATOM      9  C   UNL     1      -3.397   0.746   7.668  0.00  0.00    +0.047 A 
ATOM     10  N   UNL     1      -4.431   0.453   6.827  0.00  0.00    -0.356 N 
ATOM     11  H   UNL     1      -5.337   0.250   7.106  0.00  0.00    +0.166 HD
ATOM     12  C   UNL     1      -3.995   0.488   5.530  0.00  0.00    +0.046 A 
ATOM     13  C   UNL     1      -4.824   0.255   4.291  0.00  0.00    +0.155 C 
ATOM     14  N   UNL     1      -3.858   0.115   3.176  0.00  0.00    -0.273 N 
ATOM     15  C   UNL     1      -4.201  -0.957   2.449  0.00  0.00    +0.248 C 
ATOM     16  O   UNL     1      -3.765  -1.225   1.347  0.00  0.00    -0.270 OA
ATOM     17  C   UNL     1      -5.184  -1.756   3.188  0.00  0.00    +0.042 A 
ATOM     18  C   UNL     1      -5.592  -1.022   4.345  0.00  0.00    -0.009 A 
ATOM     19  C   UNL     1      -6.479  -1.546   5.236  0.00  0.00    +0.006 A 
ATOM     20  C   UNL     1      -7.009  -2.802   4.957  0.00  0.00    +0.000 A 
ATOM     21  C   UNL     1      -6.648  -3.509   3.827  0.00  0.00    +0.001 A 
ATOM     22  C   UNL     1      -5.732  -3.010   2.912  0.00  0.00    +0.013 A 
ENDROOT
BRANCH   1  24
ATOM     23  N   UNL     1      -1.545  -0.634   1.600  0.00  0.00    -0.302 N 
ATOM     24  C   UNL     1      -1.941   0.642   1.775  0.00  0.00    +0.235 C 
ATOM     25  O   UNL     1      -1.667   1.482   0.943  0.00  0.00    -0.274 OA
ATOM     26  H   UNL     1      -1.764  -1.305   2.265  0.00  0.00    +0.150 HD
BRANCH  23  27
ATOM     27  C   UNL     1      -0.785  -1.008   0.405  0.00  0.00    +0.161 C 
BRANCH  27  28
ATOM     28  C   UNL     1      -0.987  -2.474   0.119  0.00  0.00    +0.234 C 
ATOM     29  O   UNL     1      -1.235  -3.240   1.026  0.00  0.00    -0.274 OA
ATOM     30  N   UNL     1      -0.891  -2.934  -1.144  0.00  0.00    -0.312 N 
ATOM     31  H   UNL     1      -0.621  -2.336  -1.859  0.00  0.00    +0.149 HD
BRANCH  30  32
ATOM     32  C   UNL     1      -1.195  -4.336  -1.438  0.00  0.00    +0.132 C 
BRANCH  32  33
ATOM     33  C   UNL     1      -1.010  -4.596  -2.934  0.00  0.00    +0.178 C 
BRANCH  33  34
ATOM     34  O   UNL     1       0.366  -4.427  -3.280  0.00  0.00    -0.381 OA
ATOM     35  C   UNL     1       0.648  -4.647  -4.664  0.00  0.00    +0.194 C 
ENDBRANCH  33  34
ENDBRANCH  32  33
ENDBRANCH  30  32
ENDBRANCH  27  28
BRANCH  27  37
ATOM     36  C   UNL     1       1.486  -1.045  -0.637  0.00  0.00    +0.009 C 
ATOM     37  C   UNL     1       0.702  -0.734   0.640  0.00  0.00    +0.012 C 
ATOM     38  C   UNL     1       0.897   0.737   1.012  0.00  0.00    +0.009 C 
ENDBRANCH  27  37
ENDBRANCH  23  27
ENDBRANCH   1  24
TORSDOF 7
