REMARK  Name = ZINC35777764
REMARK  16 active torsions:
REMARK  status: ('A' for Active; 'I' for Inactive)
REMARK    1  A    between atoms: C_1  and  C_2
REMARK    2  A    between atoms: C_3  and  C_22
REMARK    3  A    between atoms: C_4  and  O_13
REMARK    4  A    between atoms: N_5  and  C_7
REMARK    5  A    between atoms: O_13  and  C_14
REMARK    6  A    between atoms: C_22  and  N_23
REMARK    7  A    between atoms: N_23  and  C_24
REMARK    8  A    between atoms: N_23  and  C_28
REMARK    9  A    between atoms: C_24  and  C_25
REMARK   10  A    between atoms: C_25  and  O_26
REMARK   11  A    between atoms: O_26  and  C_27
REMARK   12  A    between atoms: C_28  and  C_29
REMARK   13  A    between atoms: C_29  and  C_31
REMARK   14  A    between atoms: C_29  and  O_39
REMARK   15  A    between atoms: C_31  and  O_32
REMARK   16  A    between atoms: O_32  and  C_33
REMARK                            x       y       z     vdW  Elec       q    Type
REMARK                         _______ _______ _______ _____ _____    ______ ____
ROOT
ATOM      1  C   UNL     1       0.033   1.823   0.708  0.00  0.00    +0.068 C 
ATOM      2  C   UNL     1       0.341   0.351   0.603  0.00  0.00    +0.065 A 
ATOM      3  C   UNL     1       0.331  -0.404  -0.573  0.00  0.00    +0.021 A 
ATOM      4  C   UNL     1       0.661  -1.683  -0.251  0.00  0.00    +0.225 A 
ATOM      5  N   UNL     1       0.871  -1.725   1.092  0.00  0.00    -0.200 N 
ATOM      6  N   UNL     1       0.668  -0.435   1.597  0.00  0.00    -0.168 NA
ENDROOT
BRANCH   5   7
ATOM      7  C   UNL     1       1.232  -2.856   1.837  0.00  0.00    +0.069 A 
ATOM      8  C   UNL     1       0.601  -4.071   1.607  0.00  0.00    +0.028 A 
ATOM      9  C   UNL     1       0.959  -5.184   2.342  0.00  0.00    +0.002 A 
ATOM     10  C   UNL     1       1.946  -5.090   3.306  0.00  0.00    +0.000 A 
ATOM     11  C   UNL     1       2.576  -3.881   3.537  0.00  0.00    +0.002 A 
ATOM     12  C   UNL     1       2.226  -2.766   2.802  0.00  0.00    +0.028 A 
ENDBRANCH   5   7
BRANCH   4  13
ATOM     13  O   UNL     1       0.761  -2.728  -1.112  0.00  0.00    -0.435 OA
BRANCH  13  14
ATOM     14  C   UNL     1      -0.369  -3.424  -1.407  0.00  0.00    +0.166 A 
ATOM     15  C   UNL     1      -1.595  -2.995  -0.920  0.00  0.00    +0.052 A 
ATOM     16  C   UNL     1      -2.743  -3.703  -1.220  0.00  0.00    +0.042 A 
ATOM     17  C   UNL     1      -2.671  -4.841  -2.006  0.00  0.00    +0.126 A 
ATOM     18  C   UNL     1      -1.449  -5.271  -2.494  0.00  0.00    +0.080 A 
ATOM     19  C   UNL     1      -0.298  -4.562  -2.201  0.00  0.00    +0.168 A 
ATOM     20  F   UNL     1       0.894  -4.978  -2.681  0.00  0.00    -0.202 F 
ATOM     21  F   UNL     1      -3.795  -5.531  -2.298  0.00  0.00    -0.205 F 
ENDBRANCH  13  14
ENDBRANCH   4  13
BRANCH   3  22
ATOM     22  C   UNL     1       0.010   0.108  -1.954  0.00  0.00    -0.036 C 
BRANCH  22  23
ATOM     23  N   UNL     1       1.244   0.570  -2.603  0.00  0.00    +0.386 N 
ATOM     24  H   UNL     1       1.681   1.277  -2.032  0.00  0.00    -0.081 HD
BRANCH  23  25
ATOM     25  C   UNL     1       2.164  -0.564  -2.768  0.00  0.00    -0.050 C 
BRANCH  25  26
ATOM     26  C   UNL     1       3.494  -0.063  -3.336  0.00  0.00    +0.141 C 
BRANCH  26  27
ATOM     27  O   UNL     1       4.101   0.835  -2.406  0.00  0.00    -0.385 OA
ATOM     28  C   UNL     1       5.355   1.364  -2.842  0.00  0.00    +0.193 C 
ENDBRANCH  26  27
ENDBRANCH  25  26
ENDBRANCH  23  25
BRANCH  23  29
ATOM     29  C   UNL     1       0.922   1.134  -3.921  0.00  0.00    -0.043 C 
BRANCH  29  30
ATOM     30  C   UNL     1       0.113   2.420  -3.741  0.00  0.00    +0.135 C 
BRANCH  30  31
ATOM     31  O   UNL     1      -1.184   2.099  -3.232  0.00  0.00    -0.390 OA
ATOM     32  H   UNL     1      -1.698   1.516  -3.806  0.00  0.00    +0.210 HD
ENDBRANCH  30  31
BRANCH  30  33
ATOM     33  C   UNL     1      -0.030   3.126  -5.091  0.00  0.00    +0.258 C 
BRANCH  33  34
ATOM     34  O   UNL     1      -0.684   4.383  -4.904  0.00  0.00    -0.489 OA
BRANCH  34  35
ATOM     35  C   UNL     1      -0.890   5.141  -6.013  0.00  0.00    +0.121 A 
ATOM     36  C   UNL     1      -0.477   4.683  -7.255  0.00  0.00    +0.045 A 
ATOM     37  C   UNL     1      -0.688   5.456  -8.380  0.00  0.00    +0.004 A 
ATOM     38  C   UNL     1      -1.310   6.686  -8.269  0.00  0.00    +0.000 A 
ATOM     39  C   UNL     1      -1.723   7.145  -7.032  0.00  0.00    +0.004 A 
ATOM     40  C   UNL     1      -1.520   6.373  -5.904  0.00  0.00    +0.045 A 
ENDBRANCH  34  35
ENDBRANCH  33  34
ENDBRANCH  30  33
ENDBRANCH  29  30
ENDBRANCH  23  29
ENDBRANCH  22  23
ENDBRANCH   3  22
TORSDOF 14
