REMARK  Name = ZINC16905062
REMARK  9 active torsions:
REMARK  status: ('A' for Active; 'I' for Inactive)
REMARK    1  A    between atoms: C_1  and  C_2
REMARK    2  A    between atoms: C_2  and  C_4
REMARK    3  A    between atoms: C_2  and  N_60
REMARK    4  A    between atoms: C_7  and  S_16
REMARK    5  A    between atoms: N_8  and  C_9
REMARK    6  A    between atoms: S_16  and  C_17
REMARK    7  A    between atoms: C_17  and  C_19
REMARK    8  A    between atoms: C_17  and  C_20
REMARK    9  A    between atoms: N_22  and  C_23
REMARK                            x       y       z     vdW  Elec       q    Type
REMARK                         _______ _______ _______ _____ _____    ______ ____
ROOT
ATOM      1  C   UNL     1       8.052   7.785   0.349  0.00  0.00    +0.125 A 
ATOM      2  N   UNL     1       8.341   6.628  -0.175  0.00  0.00    -0.135 NA
ATOM      3  N   UNL     1       7.295   5.882  -0.204  0.00  0.00    -0.122 NA
ATOM      4  C   UNL     1       6.268   6.531   0.295  0.00  0.00    +0.197 A 
ATOM      5  N   UNL     1       6.720   7.767   0.668  0.00  0.00    -0.275 N 
ENDROOT
BRANCH   5   6
ATOM      6  C   UNL     1       5.974   8.801   1.255  0.00  0.00    +0.050 A 
ATOM      7  C   UNL     1       5.782   9.994   0.572  0.00  0.00    +0.029 A 
ATOM      8  C   UNL     1       5.044  11.008   1.149  0.00  0.00    +0.040 A 
ATOM      9  C   UNL     1       4.504  10.840   2.413  0.00  0.00    +0.124 A 
ATOM     10  C   UNL     1       4.699   9.652   3.098  0.00  0.00    +0.040 A 
ATOM     11  C   UNL     1       5.433   8.634   2.522  0.00  0.00    +0.029 A 
ATOM     12  F   UNL     1       3.786  11.835   2.978  0.00  0.00    -0.205 F 
ENDBRANCH   5   6
BRANCH   1  14
ATOM     13  C   UNL     1       9.941   8.605   1.730  0.00  0.00    -0.005 C 
ATOM     14  C   UNL     1       9.006   8.932   0.564  0.00  0.00    -0.002 C 
BRANCH  14  20
ATOM     15  C   UNL     1      10.720  10.276  -0.492  0.00  0.00    -0.078 C 
ATOM     16  C   UNL     1      11.628  10.376  -1.720  0.00  0.00    -0.019 C 
ATOM     17  C   UNL     1      10.766  10.571  -2.971  0.00  0.00    -0.004 C 
ATOM     18  C   UNL     1       9.782   9.404  -3.090  0.00  0.00    -0.019 C 
ATOM     19  C   UNL     1       8.928   9.332  -1.822  0.00  0.00    -0.078 C 
ATOM     20  N   UNL     1       9.815   9.119  -0.658  0.00  0.00    +0.386 N 
ATOM     21  H   UNL     1      10.378   8.276  -0.818  0.00  0.00    -0.081 HD
ENDBRANCH  14  20
ENDBRANCH   1  14
BRANCH   4  22
ATOM     22  S   UNL     1       4.623   5.923   0.460  0.00  0.00    -0.073 S 
BRANCH  22  23
ATOM     23  C   UNL     1       4.829   4.266  -0.238  0.00  0.00    +0.137 C 
ATOM     24  C   UNL     1       5.186   4.378  -1.722  0.00  0.00    +0.029 C 
BRANCH  23  25
ATOM     25  C   UNL     1       3.543   3.494  -0.089  0.00  0.00    +0.230 C 
ATOM     26  O   UNL     1       2.488   4.085  -0.001  0.00  0.00    -0.274 OA
ATOM     27  N   UNL     1       3.566   2.147  -0.053  0.00  0.00    -0.284 N 
ATOM     28  H   UNL     1       4.414   1.676  -0.049  0.00  0.00    +0.155 HD
BRANCH  27  29
ATOM     29  C   UNL     1       2.365   1.427  -0.023  0.00  0.00    +0.036 A 
ATOM     30  C   UNL     1       2.293   0.224   0.666  0.00  0.00    +0.026 A 
ATOM     31  C   UNL     1       1.109  -0.486   0.695  0.00  0.00    +0.043 A 
ATOM     32  C   UNL     1      -0.008   0.001   0.038  0.00  0.00    +0.159 A 
ATOM     33  C   UNL     1       0.060   1.203  -0.651  0.00  0.00    +0.160 A 
ATOM     34  C   UNL     1       1.245   1.916  -0.682  0.00  0.00    +0.064 A 
ATOM     35  F   UNL     1      -1.030   1.677  -1.292  0.00  0.00    -0.202 F 
ATOM     36  F   UNL     1      -1.165  -0.695   0.068  0.00  0.00    -0.202 F 
ENDBRANCH  27  29
ENDBRANCH  23  25
ENDBRANCH  22  23
ENDBRANCH   4  22
TORSDOF 7
