REMARK  Name = ZINC64648368
REMARK  11 active torsions:
REMARK  status: ('A' for Active; 'I' for Inactive)
REMARK    1  A    between atoms: C_1  and  C_2
REMARK    2  A    between atoms: C_7  and  C_12
REMARK    3  A    between atoms: C_12  and  C_13
REMARK    4  A    between atoms: C_13  and  N_14
REMARK    5  A    between atoms: C_15  and  C_17
REMARK    6  A    between atoms: C_17  and  N_18
REMARK    7  A    between atoms: N_18  and  C_19
REMARK    8  A    between atoms: N_18  and  S_20
REMARK    9  A    between atoms: S_20  and  C_23
REMARK   10  A    between atoms: C_28  and  C_29
REMARK   11  A    between atoms: C_33  and  C_36
REMARK                            x       y       z     vdW  Elec       q    Type
REMARK                         _______ _______ _______ _____ _____    ______ ____
ROOT
ATOM      1  C   UNL     1       4.214  -9.535   1.948  0.00  0.00    +0.204 C 
ENDROOT
BRANCH   1   3
ATOM      2  N   UNL     1       2.965  -7.408   1.762  0.00  0.00    -0.314 N 
ATOM      3  C   UNL     1       3.168  -8.660   1.306  0.00  0.00    +0.229 C 
ATOM      4  O   UNL     1       2.511  -9.082   0.379  0.00  0.00    -0.274 OA
ATOM      5  H   UNL     1       3.491  -7.071   2.504  0.00  0.00    +0.149 HD
BRANCH   2   6
ATOM      6  C   UNL     1       1.949  -6.557   1.138  0.00  0.00    +0.108 C 
BRANCH   6   7
ATOM      7  C   UNL     1       1.921  -5.198   1.839  0.00  0.00    +0.065 C 
BRANCH   7  14
ATOM      8  C   UNL     1       1.707   1.516  -0.150  0.00  0.00    +0.044 C 
ATOM      9  C   UNL     1       1.575   0.015  -0.199  0.00  0.00    -0.048 A 
ATOM     10  C   UNL     1       1.781  -0.641  -1.426  0.00  0.00    +0.005 A 
ATOM     11  C   UNL     1       1.683  -1.978  -1.560  0.00  0.00    +0.027 A 
ATOM     12  C   UNL     1       1.349  -2.802  -0.390  0.00  0.00    +0.060 A 
ATOM     13  N   UNL     1       1.190  -4.083  -0.225  0.00  0.00    -0.363 N 
ATOM     14  C   UNL     1       0.860  -4.309   1.188  0.00  0.00    +0.175 C 
ATOM     15  N   UNL     1       0.847  -2.987   1.826  0.00  0.00    -0.363 N 
ATOM     16  C   UNL     1       1.131  -2.108   0.909  0.00  0.00    +0.060 A 
ATOM     17  C   UNL     1       1.270  -0.645   0.936  0.00  0.00    +0.030 A 
ATOM     18  H   UNL     1       1.275  -4.765  -0.911  0.00  0.00    +0.162 HD
ATOM     19  H   UNL     1       0.661  -2.802   2.760  0.00  0.00    +0.162 HD
ENDBRANCH   7  14
ENDBRANCH   6   7
ENDBRANCH   2   6
ENDBRANCH   1   3
BRANCH   1  20
ATOM     20  N   UNL     1       4.153 -10.877   1.364  0.00  0.00    -0.171 NA
ATOM     21  C   UNL     1       4.842 -11.159   0.103  0.00  0.00    +0.132 C 
BRANCH  20  22
ATOM     22  S   UNL     1       3.304 -12.076   2.130  0.00  0.00    +0.061 S 
ATOM     23  O   UNL     1       3.730 -13.304   1.557  0.00  0.00    -0.153 OA
ATOM     24  O   UNL     1       3.397 -11.812   3.523  0.00  0.00    -0.153 OA
BRANCH  22  25
ATOM     25  C   UNL     1       1.609 -11.876   1.691  0.00  0.00    +0.112 A 
ATOM     26  C   UNL     1       0.790 -11.065   2.457  0.00  0.00    +0.076 A 
ATOM     27  C   UNL     1      -0.540 -10.908   2.112  0.00  0.00    +0.145 A 
ATOM     28  C   UNL     1      -1.051 -11.567   0.995  0.00  0.00    +0.076 A 
ATOM     29  C   UNL     1      -0.226 -12.377   0.232  0.00  0.00    +0.032 A 
ATOM     30  C   UNL     1       1.105 -12.525   0.580  0.00  0.00    -0.022 A 
ATOM     31  C   UNL     1       2.005 -13.401  -0.252  0.00  0.00    +0.046 C 
ATOM     32  N   UNL     1      -2.402 -11.400   0.658  0.00  0.00    -0.280 N 
ATOM     33  C   UNL     1      -3.094 -10.382   1.214  0.00  0.00    +0.258 C 
ATOM     34  O   UNL     1      -4.271 -10.236   0.961  0.00  0.00    -0.271 OA
ATOM     35  C   UNL     1      -2.397  -9.427   2.149  0.00  0.00    +0.256 C 
ATOM     36  O   UNL     1      -1.359 -10.114   2.853  0.00  0.00    -0.478 OA
ATOM     37  C   UNL     1      -1.789  -8.277   1.343  0.00  0.00    +0.062 C 
ATOM     38  H   UNL     1      -2.833 -12.007   0.036  0.00  0.00    +0.155 HD
ENDBRANCH  22  25
ENDBRANCH  20  22
ENDBRANCH   1  20
TORSDOF 7
