REMARK  Name = ZINC40890619
REMARK  5 active torsions:
REMARK  status: ('A' for Active; 'I' for Inactive)
REMARK    1  A    between atoms: C_5  and  C_6
REMARK    2  A    between atoms: N_7  and  N_8
REMARK    3  A    between atoms: C_9  and  C_11
REMARK    4  A    between atoms: C_11  and  O_12
REMARK    5  A    between atoms: O_12  and  C_13
REMARK                            x       y       z     vdW  Elec       q    Type
REMARK                         _______ _______ _______ _____ _____    ______ ____
ROOT
ATOM      1  C   UNL     1      -3.191  -5.251   0.004  0.00  0.00    +0.326 C 
ENDROOT
BRANCH   1   3
ATOM      2  N   UNL     1      -2.142  -3.011   0.006  0.00  0.00    -0.204 N 
ATOM      3  C   UNL     1      -1.984  -4.350  -0.002  0.00  0.00    +0.270 C 
ATOM      4  O   UNL     1      -0.869  -4.829  -0.016  0.00  0.00    -0.270 OA
ATOM      5  H   UNL     1      -3.033  -2.628   0.017  0.00  0.00    +0.177 HD
BRANCH   2   7
ATOM      6  C   UNL     1      -1.172  -0.881   0.009  0.00  0.00    +0.176 C 
ATOM      7  N   UNL     1      -1.019  -2.173   0.000  0.00  0.00    -0.185 NA
BRANCH   6  12
ATOM      8  C   UNL     1      -0.016   1.361   0.009  0.00  0.00    +0.052 A 
ATOM      9  C   UNL     1       1.325   1.784  -0.001  0.00  0.00    +0.057 A 
ATOM     10  C   UNL     1       2.092   0.672  -0.014  0.00  0.00    +0.171 A 
ATOM     11  O   UNL     1       1.290  -0.405  -0.012  0.00  0.00    -0.447 OA
ATOM     12  C   UNL     1       0.002  -0.004   0.002  0.00  0.00    +0.149 A 
ATOM     13 BR   UNL     1       3.982   0.638  -0.033  0.00  0.00    -0.008 Br
ENDBRANCH   6  12
ENDBRANCH   2   7
ENDBRANCH   1   3
BRANCH   1  14
ATOM     14  O   UNL     1      -2.767  -6.616  -0.007  0.00  0.00    -0.480 OA
BRANCH  14  15
ATOM     15  C   UNL     1      -3.740  -7.565  -0.003  0.00  0.00    +0.161 A 
ATOM     16  C   UNL     1      -4.230  -8.052   1.201  0.00  0.00    +0.104 A 
ATOM     17  C   UNL     1      -5.221  -9.018   1.203  0.00  0.00    +0.083 A 
ATOM     18  C   UNL     1      -5.724  -9.498   0.006  0.00  0.00    +0.081 A 
ATOM     19  C   UNL     1      -5.236  -9.013  -1.196  0.00  0.00    +0.083 A 
ATOM     20  C   UNL     1      -4.249  -8.043  -1.202  0.00  0.00    +0.104 A 
ATOM     21 CL   UNL     1      -3.643  -7.431  -2.709  0.00  0.00    -0.078 Cl
ATOM     22 CL   UNL     1      -5.869  -9.617  -2.696  0.00  0.00    -0.080 Cl
ATOM     23 CL   UNL     1      -6.967 -10.710   0.011  0.00  0.00    -0.080 Cl
ATOM     24 CL   UNL     1      -5.834  -9.628   2.708  0.00  0.00    -0.080 Cl
ATOM     25 CL   UNL     1      -3.600  -7.451   2.702  0.00  0.00    -0.078 Cl
ENDBRANCH  14  15
ENDBRANCH   1  14
TORSDOF 5
