REMARK  Name = ZINC59087276
REMARK  9 active torsions:
REMARK  status: ('A' for Active; 'I' for Inactive)
REMARK    1  A    between atoms: C_1  and  C_2
REMARK    2  A    between atoms: C_2  and  C_3
REMARK    3  A    between atoms: N_9  and  C_29
REMARK    4  A    between atoms: C_11  and  C_12
REMARK    5  A    between atoms: C_13  and  C_14
REMARK    6  A    between atoms: C_13  and  C_16
REMARK    7  A    between atoms: N_18  and  C_19
REMARK    8  A    between atoms: C_19  and  C_20
REMARK    9  A    between atoms: C_29  and  C_30
REMARK                            x       y       z     vdW  Elec       q    Type
REMARK                         _______ _______ _______ _____ _____    ______ ____
ROOT
ATOM      1  C   UNL     1      -0.888  -1.390  -0.539  0.00  0.00    -0.024 A 
ATOM      2  C   UNL     1      -1.319  -1.929   0.654  0.00  0.00    +0.005 A 
ATOM      3  C   UNL     1      -2.636  -2.330   0.814  0.00  0.00    +0.001 A 
ATOM      4  C   UNL     1      -3.534  -2.193  -0.224  0.00  0.00    +0.010 A 
ATOM      5  C   UNL     1      -3.112  -1.650  -1.433  0.00  0.00    +0.007 A 
ATOM      6  C   UNL     1      -1.780  -1.238  -1.595  0.00  0.00    +0.053 A 
ATOM      7  N   UNL     1      -1.648  -0.738  -2.875  0.00  0.00    -0.337 N 
ATOM      8  C   UNL     1      -2.820  -0.802  -3.536  0.00  0.00    +0.095 A 
ATOM      9  C   UNL     1      -3.782  -1.365  -2.718  0.00  0.00    +0.002 A 
ENDROOT
BRANCH   1  11
ATOM     10  C   UNL     1       0.669   0.535  -0.391  0.00  0.00    +0.009 C 
ATOM     11  C   UNL     1       0.548  -0.959  -0.697  0.00  0.00    +0.034 C 
ENDBRANCH   1  11
BRANCH   9  12
ATOM     12  C   UNL     1      -5.136  -1.603  -3.041  0.00  0.00    +0.034 C 
ATOM     13  C   UNL     1      -5.714  -0.961  -4.122  0.00  0.00    +0.114 C 
BRANCH  13  14
ATOM     14  C   UNL     1      -7.070  -1.322  -4.552  0.00  0.00    +0.255 C 
ATOM     15  O   UNL     1      -7.687  -2.187  -3.958  0.00  0.00    -0.269 OA
ATOM     16  N   UNL     1      -7.633  -0.696  -5.605  0.00  0.00    -0.307 N 
ATOM     17  H   UNL     1      -7.141  -0.007  -6.079  0.00  0.00    +0.149 HD
BRANCH  16  18
ATOM     18  C   UNL     1      -8.986  -1.057  -6.034  0.00  0.00    +0.140 C 
BRANCH  18  19
ATOM     19  C   UNL     1      -9.377  -0.217  -7.223  0.00  0.00    -0.027 A 
ATOM     20  C   UNL     1     -10.005   1.000  -7.031  0.00  0.00    +0.009 A 
ATOM     21  C   UNL     1     -10.364   1.774  -8.118  0.00  0.00    +0.050 A 
ATOM     22  C   UNL     1     -10.097   1.332  -9.404  0.00  0.00    +0.166 A 
ATOM     23  C   UNL     1      -9.464   0.107  -9.597  0.00  0.00    +0.167 A 
ATOM     24  C   UNL     1      -9.101  -0.662  -8.502  0.00  0.00    +0.054 A 
ATOM     25  O   UNL     1      -9.315  -0.101 -10.938  0.00  0.00    -0.453 OA
ATOM     26  C   UNL     1     -10.226   0.816 -11.572  0.00  0.00    +0.466 C 
ATOM     27  O   UNL     1     -10.343   1.893 -10.623  0.00  0.00    -0.453 OA
ENDBRANCH  18  19
ENDBRANCH  16  18
ENDBRANCH  13  14
BRANCH  13  28
ATOM     28  C   UNL     1      -4.988   0.057  -4.821  0.00  0.00    +0.104 C 
ATOM     29  N   UNL     1      -4.413   0.864  -5.376  0.00  0.00    -0.191 NA
ENDBRANCH  13  28
ENDBRANCH   9  12
BRANCH   7  30
ATOM     30  C   UNL     1      -0.403  -0.209  -3.437  0.00  0.00    +0.217 C 
BRANCH  30  31
ATOM     31  C   UNL     1       0.419  -1.343  -3.993  0.00  0.00    +0.235 C 
ATOM     32  O   UNL     1       0.006  -2.482  -3.926  0.00  0.00    -0.274 OA
ATOM     33  N   UNL     1       1.614  -1.093  -4.565  0.00  0.00    -0.300 N 
ATOM     34  C   UNL     1       2.235   0.232  -4.707  0.00  0.00    +0.108 C 
ATOM     35  C   UNL     1       3.577   0.033  -5.441  0.00  0.00    +0.020 C 
ATOM     36  C   UNL     1       3.374  -1.320  -6.174  0.00  0.00    +0.020 C 
ATOM     37  C   UNL     1       2.517  -2.103  -5.146  0.00  0.00    +0.108 C 
ENDBRANCH  30  31
ENDBRANCH   7  30
TORSDOF 8
