REMARK  Name = ZINC36690333
REMARK  9 active torsions:
REMARK  status: ('A' for Active; 'I' for Inactive)
REMARK    1  A    between atoms: C_1  and  N_2
REMARK    2  A    between atoms: N_2  and  C_3
REMARK    3  A    between atoms: N_2  and  C_4
REMARK    4  A    between atoms: C_4  and  C_5
REMARK    5  A    between atoms: C_5  and  C_6
REMARK    6  A    between atoms: C_6  and  N_7
REMARK    7  A    between atoms: C_17  and  C_19
REMARK    8  A    between atoms: C_22  and  S_25
REMARK    9  A    between atoms: S_25  and  N_28
REMARK                            x       y       z     vdW  Elec       q    Type
REMARK                         _______ _______ _______ _____ _____    ______ ____
ROOT
ATOM      1  N   UNL     1      -4.790  -0.469  -2.386  0.00  0.00    -0.246 N 
ATOM      2  C   UNL     1      -4.664  -1.302  -3.485  0.00  0.00    +0.168 A 
ATOM      3  N   UNL     1      -4.606  -2.613  -3.523  0.00  0.00    -0.224 NA
ATOM      4  C   UNL     1      -4.482  -3.300  -4.678  0.00  0.00    +0.080 A 
ATOM      5  C   UNL     1      -4.409  -4.702  -4.857  0.00  0.00    +0.029 A 
ATOM      6  C   UNL     1      -4.282  -5.242  -6.110  0.00  0.00    +0.002 A 
ATOM      7  C   UNL     1      -4.220  -4.442  -7.242  0.00  0.00    +0.001 A 
ATOM      8  C   UNL     1      -4.289  -3.068  -7.104  0.00  0.00    +0.017 A 
ATOM      9  C   UNL     1      -4.416  -2.517  -5.854  0.00  0.00    +0.041 A 
ATOM     10  S   UNL     1      -4.546  -0.865  -5.214  0.00  0.00    -0.052 S 
ATOM     11  C   UNL     1      -4.942   0.858  -2.560  0.00  0.00    +0.252 C 
ATOM     12  O   UNL     1      -5.029   1.318  -3.682  0.00  0.00    -0.270 OA
ENDROOT
BRANCH  11  13
ATOM     13  C   UNL     1      -5.003   1.755  -1.387  0.00  0.00    +0.037 A 
ATOM     14  C   UNL     1      -4.358   1.402  -0.200  0.00  0.00    +0.015 A 
ATOM     15  C   UNL     1      -4.419   2.243   0.891  0.00  0.00    +0.029 A 
ATOM     16  C   UNL     1      -5.117   3.435   0.811  0.00  0.00    +0.109 A 
ATOM     17  C   UNL     1      -5.758   3.792  -0.362  0.00  0.00    +0.029 A 
ATOM     18  C   UNL     1      -5.700   2.962  -1.462  0.00  0.00    +0.015 A 
BRANCH  16  19
ATOM     19  S   UNL     1      -5.190   4.504   2.211  0.00  0.00    +0.075 S 
ATOM     20  O   UNL     1      -6.358   5.298   2.054  0.00  0.00    -0.150 OA
ATOM     21  O   UNL     1      -4.969   3.691   3.355  0.00  0.00    -0.150 OA
BRANCH  19  22
ATOM     22  N   UNL     1      -3.899   5.536   2.107  0.00  0.00    -0.202 N 
ATOM     23  C   UNL     1      -2.573   5.282   2.676  0.00  0.00    +0.136 C 
ATOM     24  C   UNL     1      -1.736   6.520   2.316  0.00  0.00    +0.058 C 
ATOM     25  C   UNL     1      -2.685   7.409   1.544  0.00  0.00    -0.023 A 
ATOM     26  C   UNL     1      -3.914   6.772   1.459  0.00  0.00    +0.054 A 
ATOM     27  C   UNL     1      -4.958   7.404   0.781  0.00  0.00    +0.025 A 
ATOM     28  C   UNL     1      -4.765   8.640   0.202  0.00  0.00    +0.002 A 
ATOM     29  C   UNL     1      -3.534   9.265   0.290  0.00  0.00    +0.000 A 
ATOM     30  C   UNL     1      -2.498   8.650   0.968  0.00  0.00    +0.005 A 
ENDBRANCH  19  22
ENDBRANCH  16  19
ENDBRANCH  11  13
BRANCH   1  31
ATOM     31  C   UNL     1      -4.758  -1.032  -1.034  0.00  0.00    +0.114 C 
BRANCH  31  32
ATOM     32  C   UNL     1      -3.329  -1.461  -0.694  0.00  0.00    +0.001 C 
BRANCH  32  33
ATOM     33  C   UNL     1      -3.295  -2.049   0.719  0.00  0.00    -0.078 C 
BRANCH  33  35
ATOM     34  C   UNL     1      -1.056  -1.277   1.096  0.00  0.00    -0.097 C 
ATOM     35  N   UNL     1      -1.924  -2.461   1.045  0.00  0.00    +0.376 N 
ATOM     36  C   UNL     1      -1.912  -3.133   2.351  0.00  0.00    -0.097 C 
ATOM     37  H   UNL     1      -1.586  -3.095   0.337  0.00  0.00    -0.083 HD
ENDBRANCH  33  35
ENDBRANCH  32  33
ENDBRANCH  31  32
ENDBRANCH   1  31
TORSDOF 7
