REMARK  Name = ZINC41004123
REMARK  11 active torsions:
REMARK  status: ('A' for Active; 'I' for Inactive)
REMARK    1  A    between atoms: C_1  and  C_2
REMARK    2  A    between atoms: C_2  and  S_3
REMARK    3  A    between atoms: S_3  and  C_4
REMARK    4  A    between atoms: C_9  and  C_21
REMARK    5  A    between atoms: C_15  and  C_19
REMARK    6  A    between atoms: C_15  and  C_20
REMARK    7  A    between atoms: C_24  and  O_29
REMARK    8  A    between atoms: C_25  and  O_27
REMARK    9  A    between atoms: O_27  and  C_28
REMARK   10  A    between atoms: O_29  and  C_30
REMARK   11  A    between atoms: C_30  and  C_31
REMARK                            x       y       z     vdW  Elec       q    Type
REMARK                         _______ _______ _______ _____ _____    ______ ____
ROOT
ATOM      1  C   UNL     1       0.818  -2.359   1.317  0.00  0.00    +0.210 A 
ATOM      2  N   UNL     1       0.242  -3.033   0.311  0.00  0.00    -0.187 NA
ATOM      3  C   UNL     1       0.381  -4.315   0.508  0.00  0.00    +0.219 A 
ATOM      4  N   UNL     1       1.057  -4.492   1.670  0.00  0.00    -0.220 N 
ATOM      5  N   UNL     1       1.334  -3.220   2.168  0.00  0.00    -0.141 NA
ATOM      6  C   UNL     1       1.387  -5.803   2.215  0.00  0.00    +0.176 C 
ATOM      7  C   UNL     1       1.182  -6.868   1.160  0.00  0.00    +0.041 C 
ATOM      8  C   UNL     1       0.498  -6.627   0.021  0.00  0.00    +0.020 C 
ATOM      9  N   UNL     1      -0.038  -5.392  -0.255  0.00  0.00    -0.287 N 
ATOM     10  C   UNL     1       0.288  -7.718  -1.003  0.00  0.00    +0.058 C 
ATOM     11  C   UNL     1       1.481  -8.675  -0.986  0.00  0.00    -0.023 C 
ATOM     12  C   UNL     1       1.609  -9.261   0.425  0.00  0.00    +0.086 C 
ATOM     13  C   UNL     1       1.740  -8.134   1.412  0.00  0.00    +0.164 C 
ATOM     14  O   UNL     1       2.342  -8.322   2.451  0.00  0.00    -0.292 OA
ATOM     15  C   UNL     1       1.252  -9.804  -1.993  0.00  0.00    +0.011 C 
ATOM     16  C   UNL     1       2.759  -7.914  -1.345  0.00  0.00    +0.011 C 
ATOM     17  H   UNL     1      -0.690  -5.278  -0.964  0.00  0.00    +0.155 HD
ENDROOT
BRANCH   6  18
ATOM     18  C   UNL     1       0.495  -6.093   3.395  0.00  0.00    -0.015 A 
ATOM     19  C   UNL     1      -0.876  -6.138   3.228  0.00  0.00    +0.010 A 
ATOM     20  C   UNL     1      -1.698  -6.404   4.307  0.00  0.00    +0.050 A 
ATOM     21  C   UNL     1      -1.148  -6.626   5.559  0.00  0.00    +0.162 A 
ATOM     22  C   UNL     1       0.233  -6.581   5.727  0.00  0.00    +0.162 A 
ATOM     23  C   UNL     1       1.051  -6.319   4.640  0.00  0.00    +0.055 A 
BRANCH  22  24
ATOM     24  O   UNL     1       0.778  -6.798   6.954  0.00  0.00    -0.491 OA
ATOM     25  C   UNL     1       2.202  -6.736   7.051  0.00  0.00    +0.277 C 
ENDBRANCH  22  24
BRANCH  21  26
ATOM     26  O   UNL     1      -1.955  -6.887   6.622  0.00  0.00    -0.484 OA
BRANCH  26  27
ATOM     27  C   UNL     1      -3.362  -6.917   6.376  0.00  0.00    +0.266 C 
BRANCH  27  28
ATOM     28  C   UNL     1      -4.091  -7.219   7.660  0.00  0.00    +0.008 A 
ATOM     29  C   UNL     1      -3.379  -7.409   8.830  0.00  0.00    +0.008 A 
ATOM     30  C   UNL     1      -4.047  -7.685  10.008  0.00  0.00    +0.000 A 
ATOM     31  C   UNL     1      -5.427  -7.772  10.018  0.00  0.00    +0.001 A 
ATOM     32  C   UNL     1      -6.139  -7.582   8.849  0.00  0.00    +0.020 A 
ATOM     33  C   UNL     1      -5.472  -7.299   7.670  0.00  0.00    +0.047 A 
ATOM     34 CL   UNL     1      -6.366  -7.054   6.203  0.00  0.00    -0.083 Cl
ENDBRANCH  27  28
ENDBRANCH  26  27
ENDBRANCH  21  26
ENDBRANCH   6  18
BRANCH   1  35
ATOM     35  S   UNL     1       0.879  -0.605   1.472  0.00  0.00    -0.085 S 
BRANCH  35  37
ATOM     36  C   UNL     1      -0.019   1.526   0.010  0.00  0.00    +0.016 C 
ATOM     37  C   UNL     1       0.002  -0.004   0.002  0.00  0.00    +0.074 C 
ENDBRANCH  35  37
ENDBRANCH   1  35
TORSDOF 7
