REMARK  Name = ZINC14162399
REMARK  8 active torsions:
REMARK  status: ('A' for Active; 'I' for Inactive)
REMARK    1  A    between atoms: C_1  and  C_2
REMARK    2  A    between atoms: C_2  and  O_3
REMARK    3  A    between atoms: O_3  and  C_4
REMARK    4  A    between atoms: C_4  and  C_6
REMARK    5  A    between atoms: C_7  and  N_38
REMARK    6  A    between atoms: C_14  and  C_32
REMARK    7  A    between atoms: C_29  and  C_30
REMARK    8  A    between atoms: C_29  and  C_31
REMARK                            x       y       z     vdW  Elec       q    Type
REMARK                         _______ _______ _______ _____ _____    ______ ____
ROOT
ATOM      1  C   UNL     1       2.872  -2.526   2.840  0.00  0.00    +0.117 C 
ATOM      2  C   UNL     1       4.041  -2.810   3.467  0.00  0.00    +0.195 C 
ATOM      3  O   UNL     1       4.921  -1.863   3.807  0.00  0.00    -0.446 OA
ATOM      4  C   UNL     1       4.692  -0.570   3.529  0.00  0.00    +0.115 C 
ATOM      5  C   UNL     1       3.581  -0.145   2.897  0.00  0.00    +0.057 C 
ATOM      6  C   UNL     1       2.505  -1.112   2.491  0.00  0.00    +0.142 C 
ATOM      7  C   UNL     1       1.199  -0.738   3.119  0.00  0.00    -0.001 A 
ATOM      8  C   UNL     1       0.765  -0.636   4.422  0.00  0.00    +0.010 A 
ATOM      9  C   UNL     1      -0.565  -0.272   4.615  0.00  0.00    -0.050 A 
ATOM     10  C   UNL     1      -1.426  -0.046   3.554  0.00  0.00    +0.009 A 
ATOM     11  C   UNL     1      -0.994  -0.163   2.249  0.00  0.00    -0.020 A 
ATOM     12  C   UNL     1       0.356  -0.435   2.059  0.00  0.00    +0.045 A 
ATOM     13  N   UNL     1       1.005  -0.504   0.820  0.00  0.00    -0.263 N 
ATOM     14  C   UNL     1       2.228  -1.032   0.995  0.00  0.00    +0.240 C 
ATOM     15  O   UNL     1       2.996  -1.415   0.141  0.00  0.00    -0.274 OA
ATOM     16  C   UNL     1       0.300  -0.056  -0.378  0.00  0.00    +0.043 C 
ATOM     17  C   UNL     1       0.343   1.510  -0.462  0.00  0.00    +0.026 C 
ATOM     18  C   UNL     1       1.776   1.955  -0.397  0.00  0.00    +0.002 C 
ATOM     19  C   UNL     1       2.397   2.264  -1.773  0.00  0.00    +0.000 C 
ATOM     20  C   UNL     1       2.216   1.111  -2.781  0.00  0.00    +0.000 C 
ATOM     21  C   UNL     1       2.159  -0.220  -2.130  0.00  0.00    +0.002 C 
ATOM     22  C   UNL     1       0.764  -0.583  -1.656  0.00  0.00    +0.026 C 
ATOM     23  C   UNL     1      -1.194  -0.425  -0.244  0.00  0.00    +0.037 C 
ATOM     24  C   UNL     1      -1.893  -0.088   1.055  0.00  0.00    -0.006 C 
ATOM     25  C   UNL     1      -3.024  -1.123   1.265  0.00  0.00    +0.016 C 
ATOM     26  C   UNL     1      -2.557   1.290   0.984  0.00  0.00    +0.016 C 
ATOM     27  C   UNL     1      -1.081  -0.124   6.023  0.00  0.00    +0.044 C 
ATOM     28  C   UNL     1       3.391   1.227   2.631  0.00  0.00    +0.164 C 
ATOM     29  O   UNL     1       2.312   1.609   2.220  0.00  0.00    -0.292 OA
ATOM     30  C   UNL     1       4.480   2.243   2.837  0.00  0.00    +0.080 C 
ATOM     31  C   UNL     1       5.838   1.541   2.918  0.00  0.00    +0.016 C 
ATOM     32  C   UNL     1       5.745   0.428   3.962  0.00  0.00    +0.075 C 
ENDROOT
BRANCH   2  33
ATOM     33  N   UNL     1       4.327  -4.118   3.768  0.00  0.00    -0.329 N 
ATOM     34  H   UNL     1       5.188  -4.351   4.150  0.00  0.00    +0.145 HD
ATOM     35  H   UNL     1       3.669  -4.810   3.597  0.00  0.00    +0.145 HD
ENDBRANCH   2  33
BRANCH   1  36
ATOM     36  C   UNL     1       1.992  -3.573   2.512  0.00  0.00    +0.342 C 
ATOM     37  O   UNL     1       1.963  -4.011   1.375  0.00  0.00    -0.245 OA
BRANCH  36  38
ATOM     38  O   UNL     1       1.178  -4.093   3.457  0.00  0.00    -0.462 OA
BRANCH  38  40
ATOM     39  C   UNL     1      -0.366  -5.745   4.307  0.00  0.00    +0.048 C 
ATOM     40  C   UNL     1       0.392  -5.226   3.084  0.00  0.00    +0.229 C 
ENDBRANCH  38  40
ENDBRANCH  36  38
ENDBRANCH   1  36
TORSDOF 4
