REMARK  Name = ZINC02319055
REMARK  10 active torsions:
REMARK  status: ('A' for Active; 'I' for Inactive)
REMARK    1  A    between atoms: C_1  and  C_2
REMARK    2  A    between atoms: C_2  and  C_3
REMARK    3  A    between atoms: C_2  and  C_4
REMARK    4  A    between atoms: C_7  and  C_10
REMARK    5  A    between atoms: N_11  and  N_12
REMARK    6  A    between atoms: C_13  and  C_15
REMARK    7  A    between atoms: C_15  and  S_16
REMARK    8  A    between atoms: S_16  and  C_17
REMARK    9  A    between atoms: C_20  and  C_23
REMARK   10  A    between atoms: N_21  and  C_22
REMARK                            x       y       z     vdW  Elec       q    Type
REMARK                         _______ _______ _______ _____ _____    ______ ____
ROOT
ATOM      1  N   UNL     1      -2.767   4.299   7.114  0.00  0.00    -0.206 N 
ATOM      2  C   UNL     1      -2.956   5.633   7.144  0.00  0.00    +0.242 C 
ATOM      3  O   UNL     1      -2.381   6.345   6.349  0.00  0.00    -0.273 OA
ATOM      4  H   UNL     1      -3.227   3.729   7.751  0.00  0.00    +0.177 HD
ENDROOT
BRANCH   1   6
ATOM      5  C   UNL     1      -1.724   2.450   6.136  0.00  0.00    +0.138 C 
ATOM      6  N   UNL     1      -1.906   3.735   6.164  0.00  0.00    -0.188 NA
BRANCH   5  10
ATOM      7  C   UNL     1       0.884   0.741   3.256  0.00  0.00    -0.045 A 
ATOM      8  C   UNL     1       0.697   2.111   3.287  0.00  0.00    +0.004 A 
ATOM      9  C   UNL     1      -0.153   2.673   4.217  0.00  0.00    +0.010 A 
ATOM     10  C   UNL     1      -0.817   1.856   5.135  0.00  0.00    -0.005 A 
ATOM     11  C   UNL     1      -0.619   0.474   5.101  0.00  0.00    +0.010 A 
ATOM     12  C   UNL     1       0.230  -0.074   4.163  0.00  0.00    +0.004 A 
BRANCH   7  14
ATOM     13  C   UNL     1       3.218   0.703   2.419  0.00  0.00    +0.012 C 
ATOM     14  C   UNL     1       1.810   0.134   2.234  0.00  0.00    +0.013 C 
ATOM     15  C   UNL     1       1.307   0.467   0.828  0.00  0.00    +0.012 C 
ENDBRANCH   7  14
ENDBRANCH   5  10
ENDBRANCH   1   6
BRANCH   2  16
ATOM     16  C   UNL     1      -3.883   6.240   8.167  0.00  0.00    +0.174 C 
BRANCH  16  17
ATOM     17  S   UNL     1      -3.924   8.037   7.952  0.00  0.00    -0.077 S 
BRANCH  17  18
ATOM     18  C   UNL     1      -5.049   8.472   9.236  0.00  0.00    +0.192 A 
ATOM     19  N   UNL     1      -5.645   7.644  10.065  0.00  0.00    -0.122 NA
ATOM     20  N   UNL     1      -6.395   8.298  10.878  0.00  0.00    -0.128 NA
ATOM     21  C   UNL     1      -6.332   9.582  10.613  0.00  0.00    +0.165 A 
ATOM     22  N   UNL     1      -5.468   9.733   9.553  0.00  0.00    -0.305 N 
ATOM     23  C   UNL     1      -5.078  10.985   8.900  0.00  0.00    +0.153 C 
BRANCH  21  24
ATOM     24  C   UNL     1      -7.053  10.662  11.319  0.00  0.00    +0.020 A 
ATOM     25  C   UNL     1      -7.247  11.898  10.699  0.00  0.00    +0.011 A 
ATOM     26  C   UNL     1      -7.921  12.901  11.364  0.00  0.00    +0.002 A 
ATOM     27  C   UNL     1      -8.405  12.685  12.642  0.00  0.00    +0.015 A 
ATOM     28  C   UNL     1      -8.217  11.463  13.262  0.00  0.00    +0.019 A 
ATOM     29  C   UNL     1      -7.548  10.448  12.606  0.00  0.00    +0.027 A 
ATOM     30 BR   UNL     1      -8.883  11.178  15.009  0.00  0.00    -0.050 Br
ENDBRANCH  21  24
ENDBRANCH  17  18
ENDBRANCH  16  17
ENDBRANCH   2  16
TORSDOF 7
