REMARK  Name = ZINC13945550
REMARK  9 active torsions:
REMARK  status: ('A' for Active; 'I' for Inactive)
REMARK    1  A    between atoms: C_1  and  C_2
REMARK    2  A    between atoms: C_5  and  O_9
REMARK    3  A    between atoms: C_6  and  C_8
REMARK    4  A    between atoms: O_9  and  C_10
REMARK    5  A    between atoms: C_10  and  C_11
REMARK    6  A    between atoms: N_13  and  N_14
REMARK    7  A    between atoms: C_15  and  C_16
REMARK    8  A    between atoms: C_18  and  C_23
REMARK    9  A    between atoms: C_21  and  O_22
REMARK                            x       y       z     vdW  Elec       q    Type
REMARK                         _______ _______ _______ _____ _____    ______ ____
ROOT
ATOM      1  C   UNL     1       3.822  -1.002   1.137  0.00  0.00    +0.270 C 
ATOM      2  O   UNL     1       4.673  -0.190   0.839  0.00  0.00    -0.270 OA
ATOM      3  N   UNL     1       4.037  -2.314   0.914  0.00  0.00    -0.204 N 
ATOM      4  H   UNL     1       3.357  -2.963   1.153  0.00  0.00    +0.177 HD
ENDROOT
BRANCH   3   5
ATOM      5  N   UNL     1       5.241  -2.739   0.339  0.00  0.00    -0.188 NA
ATOM      6  C   UNL     1       5.405  -3.988   0.026  0.00  0.00    +0.142 C 
BRANCH   6   7
ATOM      7  C   UNL     1       4.253  -4.907   0.033  0.00  0.00    +0.036 A 
ATOM      8  C   UNL     1       2.960  -4.415  -0.162  0.00  0.00    +0.016 A 
ATOM      9  C   UNL     1       1.887  -5.281  -0.160  0.00  0.00    -0.050 A 
ATOM     10  C   UNL     1       2.084  -6.636   0.046  0.00  0.00    +0.007 A 
ATOM     11  C   UNL     1       3.357  -7.135   0.245  0.00  0.00    +0.046 A 
ATOM     12  C   UNL     1       4.447  -6.279   0.240  0.00  0.00    +0.125 A 
ATOM     13  C   UNL     1       0.494  -4.749  -0.376  0.00  0.00    +0.044 C 
BRANCH  12  14
ATOM     14  O   UNL     1       5.699  -6.769   0.436  0.00  0.00    -0.506 OA
ATOM     15  H   UNL     1       6.000  -6.721   1.354  0.00  0.00    +0.292 HD
ENDBRANCH  12  14
ENDBRANCH   6   7
ENDBRANCH   3   5
BRANCH   1  16
ATOM     16  C   UNL     1       2.527  -0.544   1.756  0.00  0.00    +0.326 C 
BRANCH  16  17
ATOM     17  O   UNL     1       2.539   0.878   1.889  0.00  0.00    -0.482 OA
BRANCH  17  22
ATOM     18  C   UNL     1      -2.031   3.274   4.147  0.00  0.00    +0.044 C 
ATOM     19  C   UNL     1      -0.808   2.633   3.543  0.00  0.00    -0.050 A 
ATOM     20  C   UNL     1      -0.757   1.261   3.382  0.00  0.00    +0.007 A 
ATOM     21  C   UNL     1       0.365   0.670   2.833  0.00  0.00    +0.046 A 
ATOM     22  C   UNL     1       1.436   1.456   2.434  0.00  0.00    +0.124 A 
ATOM     23  C   UNL     1       1.380   2.833   2.593  0.00  0.00    -0.009 A 
ATOM     24  C   UNL     1       0.258   3.419   3.147  0.00  0.00    +0.010 A 
ATOM     25  C   UNL     1       2.543   3.690   2.162  0.00  0.00    +0.047 C 
ENDBRANCH  17  22
ENDBRANCH  16  17
ENDBRANCH   1  16
TORSDOF 6
