REMARK  Name = ZINC39127803
REMARK  11 active torsions:
REMARK  status: ('A' for Active; 'I' for Inactive)
REMARK    1  A    between atoms: C_1  and  C_2
REMARK    2  A    between atoms: C_2  and  N_3
REMARK    3  A    between atoms: C_4  and  O_6
REMARK    4  A    between atoms: O_6  and  C_7
REMARK    5  A    between atoms: C_8  and  C_30
REMARK    6  A    between atoms: C_9  and  C_29
REMARK    7  A    between atoms: C_12  and  C_13
REMARK    8  A    between atoms: N_17  and  C_18
REMARK    9  A    between atoms: C_18  and  C_19
REMARK   10  A    between atoms: C_22  and  S_25
REMARK   11  A    between atoms: S_25  and  N_28
REMARK                            x       y       z     vdW  Elec       q    Type
REMARK                         _______ _______ _______ _____ _____    ______ ____
ROOT
ATOM      1  C   UNL     1      -3.068  -3.653   0.091  0.00  0.00    +0.140 A 
ATOM      2  C   UNL     1      -2.934  -4.305  -1.131  0.00  0.00    -0.003 A 
ATOM      3  C   UNL     1      -3.094  -5.662  -1.238  0.00  0.00    -0.018 A 
ATOM      4  C   UNL     1      -3.402  -6.447  -0.103  0.00  0.00    +0.084 A 
ATOM      5  C   UNL     1      -3.530  -5.753   1.121  0.00  0.00    +0.047 A 
ATOM      6  C   UNL     1      -3.364  -4.395   1.225  0.00  0.00    +0.008 A 
ATOM      7  C   UNL     1      -3.508  -3.713   2.561  0.00  0.00    +0.049 C 
ATOM      8  S   UNL     1      -3.908  -7.063   2.261  0.00  0.00    -0.052 S 
ATOM      9  C   UNL     1      -3.873  -8.405   1.081  0.00  0.00    +0.159 A 
ATOM     10  N   UNL     1      -3.589  -7.785  -0.041  0.00  0.00    -0.225 NA
ATOM     11  N   UNL     1      -4.088  -9.752   1.295  0.00  0.00    -0.319 N 
ATOM     12  C   UNL     1      -2.940  -6.325  -2.583  0.00  0.00    +0.046 C 
ATOM     13  C   UNL     1      -2.606  -3.502  -2.363  0.00  0.00    +0.048 C 
ATOM     14  H   UNL     1      -4.037 -10.375   0.553  0.00  0.00    +0.148 HD
ENDROOT
BRANCH   1  15
ATOM     15  O   UNL     1      -2.904  -2.305   0.173  0.00  0.00    -0.411 OA
BRANCH  15  17
ATOM     16  N   UNL     1      -1.458  -0.504   0.505  0.00  0.00    -0.281 N 
ATOM     17  C   UNL     1      -1.667  -1.833   0.415  0.00  0.00    +0.406 C 
ATOM     18  O   UNL     1      -0.737  -2.604   0.552  0.00  0.00    -0.226 OA
ATOM     19  H   UNL     1      -2.200   0.112   0.395  0.00  0.00    +0.152 HD
BRANCH  16  21
ATOM     20  C   UNL     1      -0.152   1.539   0.821  0.00  0.00    +0.024 C 
ATOM     21  C   UNL     1      -0.112   0.011   0.768  0.00  0.00    +0.104 C 
ENDBRANCH  16  21
ENDBRANCH  15  17
ENDBRANCH   1  15
BRANCH  11  22
ATOM     22  C   UNL     1      -4.395 -10.240   2.642  0.00  0.00    +0.138 C 
BRANCH  22  23
ATOM     23  C   UNL     1      -4.584 -11.734   2.604  0.00  0.00    -0.030 A 
ATOM     24  C   UNL     1      -5.839 -12.266   2.371  0.00  0.00    +0.007 A 
ATOM     25  C   UNL     1      -6.013 -13.637   2.336  0.00  0.00    +0.029 A 
ATOM     26  C   UNL     1      -4.932 -14.476   2.534  0.00  0.00    +0.105 A 
ATOM     27  C   UNL     1      -3.677 -13.944   2.766  0.00  0.00    +0.029 A 
ATOM     28  C   UNL     1      -3.503 -12.573   2.797  0.00  0.00    +0.007 A 
BRANCH  26  29
ATOM     29  S   UNL     1      -5.154 -16.223   2.491  0.00  0.00    +0.056 S 
ATOM     30  O   UNL     1      -4.090 -16.787   3.246  0.00  0.00    -0.153 OA
ATOM     31  O   UNL     1      -6.520 -16.467   2.799  0.00  0.00    -0.153 OA
BRANCH  29  32
ATOM     32  N   UNL     1      -4.929 -16.707   0.923  0.00  0.00    -0.204 NA
ATOM     33  H   UNL     1      -4.717 -16.052   0.239  0.00  0.00    +0.144 HD
ATOM     34  H   UNL     1      -5.009 -17.645   0.688  0.00  0.00    +0.144 HD
ENDBRANCH  29  32
ENDBRANCH  26  29
ENDBRANCH  22  23
ENDBRANCH  11  22
TORSDOF 7
