REMARK  Name = ZINC03325226
REMARK  6 active torsions:
REMARK  status: ('A' for Active; 'I' for Inactive)
REMARK    1  A    between atoms: C_6  and  C_7
REMARK    2  A    between atoms: N_12  and  C_13
REMARK    3  A    between atoms: C_13  and  C_14
REMARK    4  A    between atoms: C_20  and  C_22
REMARK    5  A    between atoms: C_22  and  S_23
REMARK    6  A    between atoms: S_23  and  C_24
REMARK                            x       y       z     vdW  Elec       q    Type
REMARK                         _______ _______ _______ _____ _____    ______ ____
ROOT
ATOM      1  C   UNL     1       1.028   1.963   0.003  0.00  0.00    +0.080 A 
ATOM      2  C   UNL     1      -0.013   1.076   0.008  0.00  0.00    +0.076 A 
ATOM      3  S   UNL     1      -1.404   2.198   0.019  0.00  0.00    -0.060 S 
ATOM      4  C   UNL     1      -0.465   3.719   0.026  0.00  0.00    +0.168 A 
ATOM      5  N   UNL     1       0.774   3.263   0.012  0.00  0.00    -0.224 NA
ATOM      6  N   UNL     1      -0.918   5.032   0.037  0.00  0.00    -0.247 N 
ATOM      7  C   UNL     1      -0.034   6.050   0.034  0.00  0.00    +0.232 C 
ATOM      8  O   UNL     1       1.156   5.819   0.021  0.00  0.00    -0.274 OA
ENDROOT
BRANCH   1  14
ATOM      9  C   UNL     1       3.485   2.377   0.082  0.00  0.00    +0.011 A 
ATOM     10  C   UNL     1       4.786   1.917   0.072  0.00  0.00    +0.016 A 
ATOM     11  C   UNL     1       5.042   0.561  -0.043  0.00  0.00    +0.018 A 
ATOM     12  C   UNL     1       3.996  -0.340  -0.142  0.00  0.00    +0.016 A 
ATOM     13  C   UNL     1       2.691   0.110  -0.128  0.00  0.00    +0.011 A 
ATOM     14  C   UNL     1       2.428   1.474  -0.013  0.00  0.00    +0.001 A 
ATOM     15 BR   UNL     1       6.827  -0.062  -0.064  0.00  0.00    -0.050 Br
ENDBRANCH   1  14
BRANCH   6  16
ATOM     16  C   UNL     1      -2.356   5.311   0.053  0.00  0.00    +0.147 C 
BRANCH  16  17
ATOM     17  C   UNL     1      -2.843   5.401   1.501  0.00  0.00    +0.136 C 
ATOM     18  C   UNL     1      -4.378   5.569   1.542  0.00  0.00    +0.035 C 
ATOM     19  C   UNL     1      -4.617   6.537   2.723  0.00  0.00    +0.031 C 
ATOM     20  C   UNL     1      -3.198   6.838   3.255  0.00  0.00    +0.160 C 
ATOM     21  O   UNL     1      -2.323   6.591   2.133  0.00  0.00    -0.375 OA
ENDBRANCH  16  17
ENDBRANCH   6  16
BRANCH   7  22
ATOM     22  C   UNL     1      -0.525   7.474   0.046  0.00  0.00    +0.173 C 
BRANCH  22  23
ATOM     23  S   UNL     1       0.894   8.604   0.038  0.00  0.00    -0.075 S 
BRANCH  23  24
ATOM     24  C   UNL     1       0.163  10.207   0.053  0.00  0.00    +0.210 A 
ATOM     25  N   UNL     1       0.832  11.366   0.052  0.00  0.00    -0.188 NA
ATOM     26  C   UNL     1      -0.021  12.369   0.065  0.00  0.00    +0.209 A 
ATOM     27  N   UNL     1      -1.269  11.855   0.074  0.00  0.00    -0.246 N 
ATOM     28  H   UNL     1      -2.140  12.526   0.089  0.00  0.00    +0.192 HD
ATOM     29  N   UNL     1      -1.124  10.458   0.061  0.00  0.00    -0.144 NA
ATOM     30  N   UNL     1       0.304  13.713   0.069  0.00  0.00    -0.328 N 
ATOM     31  H   UNL     1      -0.492  14.471   0.080  0.00  0.00    +0.145 HD
ATOM     32  H   UNL     1       1.360  14.023   0.062  0.00  0.00    +0.145 HD
ENDBRANCH  23  24
ENDBRANCH  22  23
ENDBRANCH   7  22
TORSDOF 6
