REMARK  Name = ZINC35548531
REMARK  4 active torsions:
REMARK  status: ('A' for Active; 'I' for Inactive)
REMARK    1  A    between atoms: C_10  and  C_11
REMARK    2  A    between atoms: N_13  and  N_14
REMARK    3  A    between atoms: C_15  and  C_17
REMARK    4  A    between atoms: C_17  and  C_18
REMARK                            x       y       z     vdW  Elec       q    Type
REMARK                         _______ _______ _______ _____ _____    ______ ____
ROOT
ATOM      1  N   UNL     1       7.323   0.192   0.035  0.00  0.00    -0.234 N 
ATOM      2  C   UNL     1       8.497  -0.464   0.122  0.00  0.00    +0.234 C 
ATOM      3  O   UNL     1       8.511  -1.674   0.208  0.00  0.00    -0.274 OA
ATOM      4  H   UNL     1       7.312   1.159  -0.034  0.00  0.00    +0.173 HD
ENDROOT
BRANCH   1   7
ATOM      5  C   UNL     1       4.945   0.132  -0.044  0.00  0.00    +0.261 C 
ATOM      6  O   UNL     1       4.931   1.345  -0.130  0.00  0.00    -0.269 OA
ATOM      7  N   UNL     1       6.119  -0.524   0.043  0.00  0.00    -0.230 N 
ATOM      8  H   UNL     1       6.130  -1.491   0.112  0.00  0.00    +0.173 HD
BRANCH   5  18
ATOM      9  C   UNL     1      -0.015   1.356   0.075  0.00  0.00    +0.001 A 
ATOM     10  C   UNL     1       1.169   2.089   0.068  0.00  0.00    +0.001 A 
ATOM     11  C   UNL     1       2.379   1.464   0.032  0.00  0.00    +0.009 A 
ATOM     12  C   UNL     1       2.436   0.064   0.002  0.00  0.00    -0.006 A 
ATOM     13  C   UNL     1       1.233  -0.683   0.009  0.00  0.00    -0.017 A 
ATOM     14  C   UNL     1       0.003  -0.005   0.046  0.00  0.00    +0.008 A 
ATOM     15  C   UNL     1       1.289  -2.087  -0.021  0.00  0.00    +0.008 A 
ATOM     16  C   UNL     1       2.494  -2.723  -0.057  0.00  0.00    +0.001 A 
ATOM     17  C   UNL     1       3.685  -2.008  -0.064  0.00  0.00    +0.014 A 
ATOM     18  C   UNL     1       3.677  -0.621  -0.036  0.00  0.00    +0.046 A 
ENDBRANCH   5  18
ENDBRANCH   1   7
BRANCH   2  19
ATOM     19  C   UNL     1       9.793   0.306   0.114  0.00  0.00    +0.136 C 
BRANCH  19  20
ATOM     20  C   UNL     1      10.949  -0.655   0.222  0.00  0.00    +0.007 A 
ATOM     21  C   UNL     1      11.587  -1.027   1.344  0.00  0.00    +0.200 A 
ATOM     22  O   UNL     1      12.565  -1.898   1.046  0.00  0.00    -0.463 OA
ATOM     23  C   UNL     1      12.611  -2.135  -0.280  0.00  0.00    +0.136 A 
ATOM     24  C   UNL     1      11.598  -1.375  -0.872  0.00  0.00    +0.031 A 
ATOM     25  C   UNL     1      11.407  -1.439  -2.315  0.00  0.00    -0.007 A 
ATOM     26  C   UNL     1      10.413  -0.698  -2.963  0.00  0.00    +0.009 A 
ATOM     27  C   UNL     1      10.274  -0.791  -4.316  0.00  0.00    +0.001 A 
ATOM     28  C   UNL     1      11.110  -1.615  -5.065  0.00  0.00    +0.001 A 
ATOM     29  C   UNL     1      12.088  -2.350  -4.466  0.00  0.00    +0.008 A 
ATOM     30  C   UNL     1      12.260  -2.278  -3.074  0.00  0.00    -0.017 A 
ATOM     31  C   UNL     1      13.261  -3.022  -2.421  0.00  0.00    +0.012 A 
ATOM     32  C   UNL     1      13.429  -2.944  -1.078  0.00  0.00    +0.047 A 
ENDBRANCH  19  20
ENDBRANCH   2  19
TORSDOF 4
