REMARK  Name = ZINC10395793
REMARK  6 active torsions:
REMARK  status: ('A' for Active; 'I' for Inactive)
REMARK    1  A    between atoms: C_4  and  S_26
REMARK    2  A    between atoms: C_6  and  C_7
REMARK    3  A    between atoms: C_7  and  O_9
REMARK    4  A    between atoms: O_9  and  C_10
REMARK    5  A    between atoms: C_10  and  C_11
REMARK    6  A    between atoms: S_26  and  N_29
REMARK                            x       y       z     vdW  Elec       q    Type
REMARK                         _______ _______ _______ _____ _____    ______ ____
ROOT
ATOM      1  C   UNL     1      -3.864  -1.183   0.023  0.00  0.00    +0.308 C 
ENDROOT
BRANCH   1   2
ATOM      2  C   UNL     1      -4.948  -0.137   0.045  0.00  0.00    +0.170 A 
ATOM      3  N   UNL     1      -5.448   0.251   1.205  0.00  0.00    -0.214 NA
ATOM      4  C   UNL     1      -6.401   1.165   1.292  0.00  0.00    +0.128 A 
ATOM      5  C   UNL     1      -6.906   1.752   0.098  0.00  0.00    +0.051 A 
ATOM      6  C   UNL     1      -7.949   2.774  -0.046  0.00  0.00    -0.025 A 
ATOM      7  C   UNL     1      -8.248   3.160  -1.302  0.00  0.00    -0.004 A 
ATOM      8  S   UNL     1      -7.172   2.214  -2.350  0.00  0.00    -0.073 S 
ATOM      9  C   UNL     1      -6.324   1.290  -1.097  0.00  0.00    +0.114 A 
ATOM     10  N   UNL     1      -5.373   0.376  -1.093  0.00  0.00    -0.221 NA
ATOM     11  C   UNL     1      -9.274   4.161  -1.736  0.00  0.00    +0.043 C 
ATOM     12  C   UNL     1      -9.111   5.444  -0.910  0.00  0.00    +0.005 C 
ATOM     13  C   UNL     1      -9.975   5.323   0.341  0.00  0.00    +0.001 C 
ATOM     14  C   UNL     1     -10.033   3.866   0.797  0.00  0.00    +0.005 C 
ATOM     15  C   UNL     1      -8.643   3.369   1.176  0.00  0.00    +0.037 C 
ATOM     16  N   UNL     1      -6.899   1.544   2.525  0.00  0.00    -0.343 N 
ATOM     17  H   UNL     1      -7.280   2.429   2.643  0.00  0.00    +0.144 HD
ATOM     18  H   UNL     1      -6.867   0.926   3.272  0.00  0.00    +0.144 HD
ENDBRANCH   1   2
BRANCH   1  19
ATOM     19  O   UNL     1      -2.587  -0.548   0.102  0.00  0.00    -0.453 OA
BRANCH  19  20
ATOM     20  C   UNL     1      -1.504  -1.349   0.094  0.00  0.00    +0.340 C 
ATOM     21  O   UNL     1      -1.640  -2.554   0.022  0.00  0.00    -0.245 OA
BRANCH  20  27
ATOM     22  C   UNL     1       0.009   0.623   0.257  0.00  0.00    +0.016 A 
ATOM     23  C   UNL     1       1.275   1.165   0.331  0.00  0.00    +0.023 A 
ATOM     24  C   UNL     1       2.386   0.339   0.322  0.00  0.00    +0.067 A 
ATOM     25  C   UNL     1       2.235  -1.036   0.240  0.00  0.00    +0.124 A 
ATOM     26  C   UNL     1       0.974  -1.590   0.165  0.00  0.00    +0.045 A 
ATOM     27  C   UNL     1      -0.151  -0.762   0.173  0.00  0.00    +0.061 A 
ATOM     28 CL   UNL     1       3.977   1.028   0.415  0.00  0.00    -0.082 Cl
BRANCH  25  29
ATOM     29  S   UNL     1       3.655  -2.079   0.230  0.00  0.00    +0.057 S 
ATOM     30  O   UNL     1       4.476  -1.656   1.310  0.00  0.00    -0.153 OA
ATOM     31  O   UNL     1       3.179  -3.412   0.112  0.00  0.00    -0.153 OA
BRANCH  29  32
ATOM     32  N   UNL     1       4.494  -1.750  -1.159  0.00  0.00    -0.203 NA
ATOM     33  H   UNL     1       5.458  -1.853  -1.180  0.00  0.00    +0.144 HD
ATOM     34  H   UNL     1       4.021  -1.455  -1.953  0.00  0.00    +0.144 HD
ENDBRANCH  29  32
ENDBRANCH  25  29
ENDBRANCH  20  27
ENDBRANCH  19  20
ENDBRANCH   1  19
TORSDOF 6
