REMARK  Name = ZINC39844956
REMARK  5 active torsions:
REMARK  status: ('A' for Active; 'I' for Inactive)
REMARK    1  A    between atoms: C_4  and  S_7
REMARK    2  A    between atoms: S_7  and  C_10
REMARK    3  A    between atoms: C_11  and  N_22
REMARK    4  A    between atoms: C_13  and  C_15
REMARK    5  A    between atoms: C_25  and  C_28
REMARK                            x       y       z     vdW  Elec       q    Type
REMARK                         _______ _______ _______ _____ _____    ______ ____
ROOT
ATOM      1  C   UNL     1       4.354  -1.058   1.659  0.00  0.00    +0.243 A 
ATOM      2  C   UNL     1       5.227  -0.303   2.369  0.00  0.00    +0.236 A 
ATOM      3  O   UNL     1       5.376  -0.894   3.571  0.00  0.00    -0.420 OA
ATOM      4  C   UNL     1       4.600  -1.994   3.586  0.00  0.00    +0.231 A 
ATOM      5  N   UNL     1       3.981  -2.088   2.433  0.00  0.00    -0.188 NA
ENDROOT
BRANCH   4   6
ATOM      6  C   UNL     1       4.463  -2.937   4.715  0.00  0.00    +0.037 A 
ATOM      7  C   UNL     1       5.170  -2.719   5.899  0.00  0.00    +0.014 A 
ATOM      8  C   UNL     1       5.038  -3.603   6.950  0.00  0.00    +0.016 A 
ATOM      9  C   UNL     1       4.207  -4.704   6.832  0.00  0.00    +0.018 A 
ATOM     10  C   UNL     1       3.504  -4.926   5.660  0.00  0.00    +0.016 A 
ATOM     11  C   UNL     1       3.622  -4.046   4.605  0.00  0.00    +0.014 A 
ATOM     12 BR   UNL     1       4.033  -5.911   8.277  0.00  0.00    -0.050 Br
ENDBRANCH   4   6
BRANCH   2  13
ATOM     13  N   UNL     1       5.853   0.862   1.937  0.00  0.00    -0.298 N 
ATOM     14  C   UNL     1       7.132   0.802   1.217  0.00  0.00    +0.109 C 
ATOM     15  C   UNL     1       8.142   1.707   1.929  0.00  0.00    +0.032 C 
ATOM     16  C   UNL     1       7.557   3.116   2.055  0.00  0.00    +0.078 C 
ATOM     17  C   UNL     1       6.278   3.066   2.894  0.00  0.00    +0.032 C 
ATOM     18  C   UNL     1       5.244   2.175   2.188  0.00  0.00    +0.109 C 
BRANCH  16  19
ATOM     19  C   UNL     1       8.562   4.018   2.724  0.00  0.00    +0.214 C 
ATOM     20  O   UNL     1       9.639   3.578   3.067  0.00  0.00    -0.276 OA
ATOM     21  N   UNL     1       8.263   5.314   2.943  0.00  0.00    -0.329 N 
ATOM     22  H   UNL     1       7.401   5.666   2.669  0.00  0.00    +0.145 HD
ATOM     23  H   UNL     1       8.909   5.895   3.374  0.00  0.00    +0.145 HD
ENDBRANCH  16  19
ENDBRANCH   2  13
BRANCH   1  24
ATOM     24  S   UNL     1       3.803  -0.741   0.016  0.00  0.00    +0.047 S 
ATOM     25  O   UNL     1       3.517  -2.004  -0.568  0.00  0.00    -0.163 OA
ATOM     26  O   UNL     1       4.732   0.170  -0.556  0.00  0.00    -0.163 OA
BRANCH  24  30
ATOM     27  C   UNL     1      -0.139   1.462   0.328  0.00  0.00    +0.000 A 
ATOM     28  C   UNL     1       1.047   2.171   0.287  0.00  0.00    +0.002 A 
ATOM     29  C   UNL     1       2.251   1.498   0.192  0.00  0.00    +0.027 A 
ATOM     30  C   UNL     1       2.268   0.117   0.138  0.00  0.00    +0.095 A 
ATOM     31  C   UNL     1       1.082  -0.592   0.180  0.00  0.00    +0.027 A 
ATOM     32  C   UNL     1      -0.122   0.081   0.274  0.00  0.00    +0.002 A 
ENDBRANCH  24  30
ENDBRANCH   1  24
TORSDOF 5
