REMARK  Name = ZINC13551725
REMARK  9 active torsions:
REMARK  status: ('A' for Active; 'I' for Inactive)
REMARK    1  A    between atoms: C_1  and  C_2
REMARK    2  A    between atoms: C_8  and  C_29
REMARK    3  A    between atoms: C_11  and  C_12
REMARK    4  A    between atoms: C_11  and  O_24
REMARK    5  A    between atoms: C_13  and  C_23
REMARK    6  A    between atoms: C_14  and  C_19
REMARK    7  A    between atoms: C_17  and  C_18
REMARK    8  A    between atoms: C_19  and  O_21
REMARK    9  A    between atoms: O_21  and  C_22
REMARK                            x       y       z     vdW  Elec       q    Type
REMARK                         _______ _______ _______ _____ _____    ______ ____
ROOT
ATOM      1  C   UNL     1       1.414  -3.384   0.091  0.00  0.00    +0.089 C 
ATOM      2  C   UNL     1       0.637  -2.094   0.038  0.00  0.00    +0.136 A 
ATOM      3  C   UNL     1       1.146  -0.842   0.086  0.00  0.00    +0.091 A 
ATOM      4  C   UNL     1       0.002  -0.004   0.002  0.00  0.00    +0.172 A 
ATOM      5  N   UNL     1      -1.030  -0.803  -0.078  0.00  0.00    -0.063 NA
ATOM      6  O   UNL     1      -0.693  -1.964  -0.065  0.00  0.00    -0.358 OA
ATOM      7  N   UNL     1      -0.017   1.390   0.010  0.00  0.00    -0.235 N 
ATOM      8  C   UNL     1      -1.221   2.225   0.019  0.00  0.00    +0.151 C 
ATOM      9  C   UNL     1      -0.750   3.661   0.027  0.00  0.00    +0.072 C 
ATOM     10  C   UNL     1      -1.542   4.795   0.040  0.00  0.00    +0.135 C 
ATOM     11  C   UNL     1       0.650   3.613   0.014  0.00  0.00    +0.249 C 
ATOM     12  O   UNL     1       1.398   4.575   0.012  0.00  0.00    -0.282 OA
ATOM     13  C   UNL     1       1.066   2.185   0.004  0.00  0.00    +0.293 C 
ATOM     14  O   UNL     1       2.216   1.796  -0.009  0.00  0.00    -0.266 OA
ENDROOT
BRANCH  10  15
ATOM     15  C   UNL     1      -0.920   6.126   0.042  0.00  0.00    +0.041 A 
ATOM     16  C   UNL     1      -0.920   7.056  -1.024  0.00  0.00    -0.008 A 
ATOM     17  C   UNL     1      -0.235   8.155  -0.595  0.00  0.00    +0.128 A 
ATOM     18  N   UNL     1       0.192   7.924   0.695  0.00  0.00    -0.352 N 
ATOM     19  H   UNL     1       0.707   8.544   1.236  0.00  0.00    +0.166 HD
ATOM     20  C   UNL     1      -0.216   6.706   1.085  0.00  0.00    +0.024 A 
ATOM     21  C   UNL     1       0.048   6.076   2.429  0.00  0.00    +0.064 C 
ATOM     22  C   UNL     1      -1.560   6.870  -2.376  0.00  0.00    +0.047 C 
BRANCH  17  23
ATOM     23  C   UNL     1       0.009   9.372  -1.375  0.00  0.00    +0.356 C 
ATOM     24  O   UNL     1      -0.419   9.464  -2.510  0.00  0.00    -0.243 OA
BRANCH  23  25
ATOM     25  O   UNL     1       0.710  10.390  -0.835  0.00  0.00    -0.463 OA
ATOM     26  C   UNL     1       0.913  11.564  -1.665  0.00  0.00    +0.280 C 
ENDBRANCH  23  25
ENDBRANCH  17  23
ENDBRANCH  10  15
BRANCH   8  27
ATOM     27  C   UNL     1      -2.046   1.957  -1.213  0.00  0.00    -0.019 A 
ATOM     28  C   UNL     1      -3.425   1.926  -1.129  0.00  0.00    +0.006 A 
ATOM     29  C   UNL     1      -4.183   1.680  -2.258  0.00  0.00    +0.003 A 
ATOM     30  C   UNL     1      -3.562   1.465  -3.474  0.00  0.00    +0.038 A 
ATOM     31  C   UNL     1      -2.180   1.494  -3.560  0.00  0.00    +0.124 A 
ATOM     32  C   UNL     1      -1.423   1.746  -2.429  0.00  0.00    +0.044 A 
ATOM     33  F   UNL     1      -1.572   1.283  -4.748  0.00  0.00    -0.205 F 
ENDBRANCH   8  27
BRANCH  10  34
ATOM     34  O   UNL     1      -2.887   4.679   0.051  0.00  0.00    -0.506 OA
ATOM     35  H   UNL     1      -3.300   5.590   0.060  0.00  0.00    +0.292 HD
ENDBRANCH  10  34
TORSDOF 5
