REMARK  Name = ZINC09137488
REMARK  6 active torsions:
REMARK  status: ('A' for Active; 'I' for Inactive)
REMARK    1  A    between atoms: C_1  and  N_2
REMARK    2  A    between atoms: C_10  and  C_12
REMARK    3  A    between atoms: C_12  and  C_14
REMARK    4  A    between atoms: C_12  and  N_73
REMARK    5  A    between atoms: C_14  and  N_15
REMARK    6  A    between atoms: C_16  and  C_18
REMARK                            x       y       z     vdW  Elec       q    Type
REMARK                         _______ _______ _______ _____ _____    ______ ____
ROOT
ATOM      1  C   UNL     1       3.489  -2.010   4.188  0.00  0.00    -0.020 C 
ENDROOT
BRANCH   1  11
ATOM      2  C   UNL     1      -1.305  -1.732   0.084  0.00  0.00    +0.129 C 
ATOM      3  N   UNL     1      -0.180  -0.788   0.034  0.00  0.00    -0.333 N 
ATOM      4  C   UNL     1      -0.657   0.596   0.011  0.00  0.00    +0.105 C 
ATOM      5  C   UNL     1       0.556   1.534  -0.012  0.00  0.00    +0.024 C 
ATOM      6  C   UNL     1       1.265   1.420   1.340  0.00  0.00    +0.038 C 
ATOM      7  C   UNL     1       1.434  -0.034   1.702  0.00  0.00    -0.026 A 
ATOM      8  C   UNL     1       0.727  -1.037   1.062  0.00  0.00    +0.033 A 
ATOM      9  C   UNL     1       0.920  -2.365   1.449  0.00  0.00    +0.023 A 
ATOM     10  C   UNL     1       1.808  -2.676   2.456  0.00  0.00    +0.004 A 
ATOM     11  C   UNL     1       2.515  -1.671   3.089  0.00  0.00    -0.059 A 
ATOM     12  C   UNL     1       2.328  -0.356   2.712  0.00  0.00    +0.007 A 
ENDBRANCH   1  11
BRANCH   1  18
ATOM     13  C   UNL     1       3.461  -3.292   6.241  0.00  0.00    -0.078 C 
ATOM     14  C   UNL     1       2.907  -4.559   6.897  0.00  0.00    -0.019 C 
ATOM     15  C   UNL     1       3.483  -5.788   6.188  0.00  0.00    -0.004 C 
ATOM     16  C   UNL     1       3.129  -5.723   4.700  0.00  0.00    -0.019 C 
ATOM     17  C   UNL     1       3.676  -4.422   4.108  0.00  0.00    -0.078 C 
ATOM     18  N   UNL     1       3.065  -3.277   4.816  0.00  0.00    +0.385 N 
ATOM     19  H   UNL     1       2.043  -3.355   4.754  0.00  0.00    -0.081 HD
ENDBRANCH   1  18
BRANCH   1  20
ATOM     20  C   UNL     1       4.894  -2.149   3.599  0.00  0.00    +0.093 C 
BRANCH  20  21
ATOM     21  N   UNL     1       5.862  -2.332   4.683  0.00  0.00    -0.316 N 
ATOM     22  C   UNL     1       7.147  -2.621   4.398  0.00  0.00    +0.219 C 
ATOM     23  O   UNL     1       7.502  -2.730   3.243  0.00  0.00    -0.275 OA
ATOM     24  H   UNL     1       5.578  -2.246   5.607  0.00  0.00    +0.149 HD
BRANCH  22  25
ATOM     25  C   UNL     1       8.143  -2.810   5.513  0.00  0.00    +0.048 C 
ATOM     26  C   UNL     1       8.228  -1.527   6.343  0.00  0.00    +0.019 C 
ATOM     27  C   UNL     1       9.239  -1.718   7.475  0.00  0.00    -0.009 C 
ATOM     28  C   UNL     1      10.614  -2.035   6.883  0.00  0.00    +0.007 C 
ATOM     29  C   UNL     1      10.529  -3.318   6.053  0.00  0.00    -0.009 C 
ATOM     30  C   UNL     1       9.518  -3.127   4.921  0.00  0.00    +0.019 C 
ATOM     31  C   UNL     1      10.080  -4.475   6.948  0.00  0.00    +0.007 C 
ATOM     32  C   UNL     1       8.705  -4.158   7.540  0.00  0.00    -0.009 C 
ATOM     33  C   UNL     1       8.790  -2.876   8.370  0.00  0.00    +0.007 C 
ATOM     34  C   UNL     1       7.694  -3.967   6.407  0.00  0.00    +0.019 C 
ENDBRANCH  22  25
ENDBRANCH  20  21
ENDBRANCH   1  20
TORSDOF 5
