REMARK  Name = ZINC21257279
REMARK  8 active torsions:
REMARK  status: ('A' for Active; 'I' for Inactive)
REMARK    1  A    between atoms: C_1  and  C_2
REMARK    2  A    between atoms: C_2  and  O_3
REMARK    3  A    between atoms: O_3  and  C_4
REMARK    4  A    between atoms: C_7  and  C_12
REMARK    5  A    between atoms: C_9  and  O_10
REMARK    6  A    between atoms: O_10  and  C_11
REMARK    7  A    between atoms: C_17  and  C_27
REMARK    8  A    between atoms: C_32  and  C_33
REMARK                            x       y       z     vdW  Elec       q    Type
REMARK                         _______ _______ _______ _____ _____    ______ ____
ROOT
ATOM      1  C   UNL     1       4.576   3.623  -3.872  0.00  0.00    +0.032 C 
ATOM      2  C   UNL     1       3.564   4.759  -3.732  0.00  0.00    +0.059 C 
ATOM      3  C   UNL     1       3.114   4.875  -2.285  0.00  0.00    +0.017 C 
ATOM      4  C   UNL     1       3.021   3.781  -1.512  0.00  0.00    +0.036 C 
ATOM      5  C   UNL     1       2.554   3.746  -0.076  0.00  0.00    +0.136 C 
ATOM      6  N   UNL     1       2.441   5.047   0.548  0.00  0.00    -0.331 N 
ATOM      7  C   UNL     1       1.517   5.986   0.093  0.00  0.00    +0.049 A 
ATOM      8  C   UNL     1       0.458   6.403   0.885  0.00  0.00    +0.025 A 
ATOM      9  C   UNL     1      -0.460   7.304   0.375  0.00  0.00    +0.002 A 
ATOM     10  C   UNL     1      -0.327   7.783  -0.916  0.00  0.00    +0.002 A 
ATOM     11  C   UNL     1       0.738   7.382  -1.704  0.00  0.00    +0.025 A 
ATOM     12  C   UNL     1       1.669   6.498  -1.187  0.00  0.00    +0.052 A 
ATOM     13  N   UNL     1       2.817   6.137  -1.884  0.00  0.00    -0.316 N 
ATOM     14  C   UNL     1       3.380   2.512  -2.027  0.00  0.00    +0.163 C 
ATOM     15  O   UNL     1       3.273   1.538  -1.309  0.00  0.00    -0.292 OA
ATOM     16  C   UNL     1       3.888   2.327  -3.425  0.00  0.00    +0.088 C 
ATOM     17  H   UNL     1       3.091   5.309   1.396  0.00  0.00    +0.147 HD
ATOM     18  H   UNL     1       3.509   6.963  -2.107  0.00  0.00    +0.152 HD
ENDROOT
BRANCH   1  22
ATOM     19  C   UNL     1       5.806   3.275  -7.953  0.00  0.00    +0.162 A 
ATOM     20  C   UNL     1       4.472   3.120  -7.613  0.00  0.00    +0.050 A 
ATOM     21  C   UNL     1       4.078   3.227  -6.292  0.00  0.00    +0.008 A 
ATOM     22  C   UNL     1       5.012   3.501  -5.309  0.00  0.00    -0.040 A 
ATOM     23  C   UNL     1       6.344   3.656  -5.641  0.00  0.00    +0.053 A 
ATOM     24  C   UNL     1       6.747   3.544  -6.963  0.00  0.00    +0.162 A 
BRANCH  24  25
ATOM     25  O   UNL     1       8.057   3.696  -7.291  0.00  0.00    -0.491 OA
ATOM     26  C   UNL     1       8.966   3.971  -6.223  0.00  0.00    +0.277 C 
ENDBRANCH  24  25
BRANCH  19  27
ATOM     27  O   UNL     1       6.196   3.163  -9.251  0.00  0.00    -0.489 OA
BRANCH  27  29
ATOM     28  C   UNL     1       5.801   2.797 -11.607  0.00  0.00    +0.048 C 
ATOM     29  C   UNL     1       5.177   2.886 -10.213  0.00  0.00    +0.226 C 
ENDBRANCH  27  29
ENDBRANCH  19  27
ENDBRANCH   1  22
BRANCH   5  30
ATOM     30  C   UNL     1       1.206   3.074  -0.028  0.00  0.00    -0.011 A 
ATOM     31  C   UNL     1       0.411   3.037  -1.159  0.00  0.00    +0.006 A 
ATOM     32  C   UNL     1      -0.825   2.420  -1.116  0.00  0.00    +0.000 A 
ATOM     33  C   UNL     1      -1.265   1.836   0.058  0.00  0.00    +0.001 A 
ATOM     34  C   UNL     1      -0.473   1.879   1.190  0.00  0.00    +0.013 A 
ATOM     35  C   UNL     1       0.763   2.495   1.146  0.00  0.00    +0.060 A 
BRANCH  35  36
ATOM     36  C   UNL     1       1.629   2.536   2.379  0.00  0.00    +0.418 C 
ATOM     37  F   UNL     1       0.974   1.886   3.430  0.00  0.00    -0.166 F 
ATOM     38  F   UNL     1       2.843   1.892   2.117  0.00  0.00    -0.166 F 
ATOM     39  F   UNL     1       1.873   3.867   2.734  0.00  0.00    -0.166 F 
ENDBRANCH  35  36
ENDBRANCH   5  30
TORSDOF 6
