REMARK  Name = ZINC12521252
REMARK  7 active torsions:
REMARK  status: ('A' for Active; 'I' for Inactive)
REMARK    1  A    between atoms: C_1  and  C_2
REMARK    2  A    between atoms: C_5  and  N_12
REMARK    3  A    between atoms: C_7  and  S_8
REMARK    4  A    between atoms: S_8  and  N_11
REMARK    5  A    between atoms: N_12  and  S_13
REMARK    6  A    between atoms: S_13  and  C_16
REMARK    7  A    between atoms: C_21  and  C_22
REMARK                            x       y       z     vdW  Elec       q    Type
REMARK                         _______ _______ _______ _____ _____    ______ ____
ROOT
ATOM      1  C   UNL     1      -5.489  -1.158   2.871  0.00  0.00    +0.046 C 
ATOM      2  C   UNL     1      -4.295  -0.340   2.453  0.00  0.00    -0.024 A 
ATOM      3  C   UNL     1      -4.167   0.072   1.139  0.00  0.00    +0.007 A 
ATOM      4  C   UNL     1      -3.076   0.826   0.753  0.00  0.00    +0.025 A 
ATOM      5  C   UNL     1      -2.101   1.160   1.684  0.00  0.00    +0.050 A 
ATOM      6  C   UNL     1      -2.232   0.744   3.002  0.00  0.00    +0.053 A 
ATOM      7  C   UNL     1      -3.328  -0.005   3.383  0.00  0.00    +0.110 A 
ENDROOT
BRANCH   7   8
ATOM      8  S   UNL     1      -3.496  -0.533   5.055  0.00  0.00    +0.056 S 
ATOM      9  O   UNL     1      -3.795  -1.922   5.014  0.00  0.00    -0.153 OA
ATOM     10  O   UNL     1      -2.375  -0.016   5.759  0.00  0.00    -0.153 OA
BRANCH   8  11
ATOM     11  N   UNL     1      -4.833   0.221   5.676  0.00  0.00    -0.204 NA
ATOM     12  H   UNL     1      -5.351   0.824   5.120  0.00  0.00    +0.144 HD
ATOM     13  H   UNL     1      -5.098   0.059   6.595  0.00  0.00    +0.144 HD
ENDBRANCH   8  11
ENDBRANCH   7   8
BRANCH   5  14
ATOM     14  N   UNL     1      -0.993   1.918   1.296  0.00  0.00    -0.216 N 
ATOM     15  H   UNL     1      -0.707   2.671   1.837  0.00  0.00    +0.174 HD
BRANCH  14  16
ATOM     16  S   UNL     1      -0.169   1.532  -0.087  0.00  0.00    +0.073 S 
ATOM     17  O   UNL     1       0.045   0.127  -0.053  0.00  0.00    -0.150 OA
ATOM     18  O   UNL     1       0.899   2.463  -0.197  0.00  0.00    -0.150 OA
BRANCH  16  19
ATOM     19  C   UNL     1      -1.251   1.843  -1.443  0.00  0.00    +0.112 A 
ATOM     20  C   UNL     1      -1.672   0.799  -2.245  0.00  0.00    +0.044 A 
ATOM     21  C   UNL     1      -2.526   1.043  -3.305  0.00  0.00    +0.020 A 
ATOM     22  C   UNL     1      -2.948   2.334  -3.570  0.00  0.00    +0.015 A 
ATOM     23  C   UNL     1      -2.522   3.378  -2.771  0.00  0.00    +0.006 A 
ATOM     24  C   UNL     1      -1.673   3.132  -1.708  0.00  0.00    -0.024 A 
ATOM     25  C   UNL     1      -1.208   4.271  -0.837  0.00  0.00    +0.046 C 
ATOM     26 BR   UNL     1      -3.110  -0.386  -4.398  0.00  0.00    -0.050 Br
ENDBRANCH  16  19
ENDBRANCH  14  16
ENDBRANCH   5  14
TORSDOF 5
