REMARK  Name = ZINC40099454
REMARK  14 active torsions:
REMARK  status: ('A' for Active; 'I' for Inactive)
REMARK    1  A    between atoms: C_1  and  C_2
REMARK    2  A    between atoms: C_2  and  O_3
REMARK    3  A    between atoms: O_3  and  C_4
REMARK    4  A    between atoms: C_7  and  C_12
REMARK    5  A    between atoms: C_9  and  O_10
REMARK    6  A    between atoms: O_10  and  C_11
REMARK    7  A    between atoms: C_14  and  C_23
REMARK    8  A    between atoms: N_18  and  C_19
REMARK    9  A    between atoms: C_19  and  C_20
REMARK   10  A    between atoms: C_20  and  O_21
REMARK   11  A    between atoms: C_23  and  C_25
REMARK   12  A    between atoms: C_28  and  O_31
REMARK   13  A    between atoms: O_31  and  C_32
REMARK   14  A    between atoms: C_32  and  C_33
REMARK                            x       y       z     vdW  Elec       q    Type
REMARK                         _______ _______ _______ _____ _____    ______ ____
ROOT
ATOM      1  C   UNL     1       1.054  -5.883  -2.007  0.00  0.00    +0.145 C 
ATOM      2  C   UNL     1      -0.206  -6.546  -2.513  0.00  0.00    +0.076 C 
ATOM      3  C   UNL     1      -0.508  -7.532  -1.637  0.00  0.00    +0.249 C 
ATOM      4  C   UNL     1       0.506  -7.553  -0.562  0.00  0.00    +0.288 C 
ATOM      5  O   UNL     1       0.513  -8.327   0.375  0.00  0.00    -0.266 OA
ATOM      6  N   UNL     1       1.423  -6.590  -0.775  0.00  0.00    -0.281 N 
ATOM      7  O   UNL     1      -1.569  -8.366  -1.730  0.00  0.00    -0.282 OA
ENDROOT
BRANCH   1  11
ATOM      8  C   UNL     1       0.308  -1.758  -1.163  0.00  0.00    +0.162 A 
ATOM      9  C   UNL     1      -0.293  -2.744  -0.398  0.00  0.00    +0.050 A 
ATOM     10  C   UNL     1      -0.050  -4.077  -0.674  0.00  0.00    +0.009 A 
ATOM     11  C   UNL     1       0.793  -4.429  -1.712  0.00  0.00    -0.019 A 
ATOM     12  C   UNL     1       1.396  -3.450  -2.478  0.00  0.00    +0.055 A 
ATOM     13  C   UNL     1       1.152  -2.112  -2.212  0.00  0.00    +0.162 A 
BRANCH  13  14
ATOM     14  O   UNL     1       1.740  -1.148  -2.969  0.00  0.00    -0.491 OA
ATOM     15  C   UNL     1       2.512  -1.584  -4.090  0.00  0.00    +0.277 C 
ENDBRANCH  13  14
BRANCH   8  16
ATOM     16  O   UNL     1       0.070  -0.446  -0.894  0.00  0.00    -0.489 OA
BRANCH  16  18
ATOM     17  C   UNL     1      -0.952   1.359   0.346  0.00  0.00    +0.048 C 
ATOM     18  C   UNL     1      -0.807  -0.157   0.197  0.00  0.00    +0.226 C 
ENDBRANCH  16  18
ENDBRANCH   8  16
ENDBRANCH   1  11
BRANCH   2  19
ATOM     19  C   UNL     1      -0.958  -6.189  -3.720  0.00  0.00    +0.195 C 
ATOM     20  O   UNL     1      -2.119  -5.836  -3.632  0.00  0.00    -0.287 OA
BRANCH  19  21
ATOM     21  C   UNL     1      -0.305  -6.258  -5.043  0.00  0.00    +0.022 A 
ATOM     22  C   UNL     1       0.988  -6.775  -5.161  0.00  0.00    +0.015 A 
ATOM     23  C   UNL     1       1.593  -6.837  -6.396  0.00  0.00    +0.046 A 
ATOM     24  C   UNL     1       0.918  -6.387  -7.526  0.00  0.00    +0.121 A 
ATOM     25  C   UNL     1      -0.368  -5.872  -7.413  0.00  0.00    +0.046 A 
ATOM     26  C   UNL     1      -0.982  -5.811  -6.182  0.00  0.00    +0.015 A 
BRANCH  24  27
ATOM     27  O   UNL     1       1.518  -6.450  -8.741  0.00  0.00    -0.488 OA
BRANCH  27  28
ATOM     28  C   UNL     1       0.769  -5.971  -9.860  0.00  0.00    +0.256 C 
BRANCH  28  29
ATOM     29  C   UNL     1       1.589  -6.119 -11.115  0.00  0.00    +0.006 C 
ATOM     30  C   UNL     1       1.042  -6.605 -12.202  0.00  0.00    +0.007 C 
ENDBRANCH  28  29
ENDBRANCH  27  28
ENDBRANCH  24  27
ENDBRANCH  19  21
ENDBRANCH   2  19
BRANCH   6  31
ATOM     31  C   UNL     1       2.583  -6.299   0.071  0.00  0.00    +0.137 C 
BRANCH  31  32
ATOM     32  C   UNL     1       2.192  -5.272   1.136  0.00  0.00    +0.175 C 
BRANCH  32  33
ATOM     33  O   UNL     1       1.218  -5.841   2.012  0.00  0.00    -0.393 OA
ATOM     34  H   UNL     1       0.923  -5.244   2.713  0.00  0.00    +0.209 HD
ENDBRANCH  32  33
ENDBRANCH  31  32
ENDBRANCH   6  31
TORSDOF 12
