REMARK  Name = ZINC12166418
REMARK  13 active torsions:
REMARK  status: ('A' for Active; 'I' for Inactive)
REMARK    1  A    between atoms: C_1  and  C_2
REMARK    2  A    between atoms: C_3  and  C_4
REMARK    3  A    between atoms: C_3  and  C_5
REMARK    4  A    between atoms: C_10  and  C_13
REMARK    5  A    between atoms: C_13  and  C_25
REMARK    6  A    between atoms: N_16  and  C_20
REMARK    7  A    between atoms: C_20  and  C_21
REMARK    8  A    between atoms: C_21  and  C_22
REMARK    9  A    between atoms: C_22  and  N_71
REMARK   10  A    between atoms: C_23  and  N_71
REMARK   11  A    between atoms: C_24  and  N_71
REMARK   12  A    between atoms: C_25  and  C_26
REMARK   13  A    between atoms: C_31  and  C_32
REMARK                            x       y       z     vdW  Elec       q    Type
REMARK                         _______ _______ _______ _____ _____    ______ ____
ROOT
ATOM      1  C   UNL     1      -1.788   5.750   2.193  0.00  0.00    +0.119 C 
ATOM      2  C   UNL     1      -1.240   4.693   3.132  0.00  0.00    +0.247 C 
ATOM      3  O   UNL     1      -1.352   3.491   3.026  0.00  0.00    -0.273 OA
ATOM      4  N   UNL     1      -0.602   5.369   4.108  0.00  0.00    -0.224 N 
ATOM      5  C   UNL     1      -0.669   6.691   3.918  0.00  0.00    +0.309 C 
ATOM      6  O   UNL     1      -0.169   7.508   4.667  0.00  0.00    -0.252 OA
ATOM      7  N   UNL     1      -1.357   7.019   2.805  0.00  0.00    -0.284 N 
ATOM      8  H   UNL     1      -1.533   7.912   2.472  0.00  0.00    +0.151 HD
ENDROOT
BRANCH   1  14
ATOM      9  C   UNL     1      -6.879   7.584   2.851  0.00  0.00    +0.242 C 
ATOM     10  O   UNL     1      -7.224   8.447   2.067  0.00  0.00    -0.270 OA
ATOM     11  N   UNL     1      -5.924   6.699   2.502  0.00  0.00    -0.298 N 
ATOM     12  C   UNL     1      -5.419   5.721   3.475  0.00  0.00    +0.108 C 
ATOM     13  C   UNL     1      -3.892   5.832   3.538  0.00  0.00    +0.025 C 
ATOM     14  C   UNL     1      -3.315   5.674   2.130  0.00  0.00    +0.025 C 
ATOM     15  C   UNL     1      -3.844   6.794   1.231  0.00  0.00    +0.025 C 
ATOM     16  C   UNL     1      -5.370   6.694   1.142  0.00  0.00    +0.108 C 
BRANCH   9  19
ATOM     17  C   UNL     1      -8.669   8.515   6.096  0.00  0.00    +0.035 C 
ATOM     18  C   UNL     1      -8.030   8.595   4.734  0.00  0.00    -0.022 C 
ATOM     19  C   UNL     1      -7.503   7.506   4.181  0.00  0.00    +0.007 C 
ATOM     20  C   UNL     1      -7.547   6.192   4.917  0.00  0.00    +0.049 C 
ENDBRANCH   9  19
ENDBRANCH   1  14
BRANCH   4  21
ATOM     21  C   UNL     1       0.081   4.733   5.237  0.00  0.00    +0.116 C 
BRANCH  21  22
ATOM     22  C   UNL     1       1.541   4.464   4.865  0.00  0.00    +0.001 C 
BRANCH  22  23
ATOM     23  C   UNL     1       2.254   3.800   6.045  0.00  0.00    -0.078 C 
BRANCH  23  26
ATOM     24  C   UNL     1       4.430   3.126   6.864  0.00  0.00    -0.097 C 
ATOM     25  C   UNL     1       3.749   2.542   4.615  0.00  0.00    -0.097 C 
ATOM     26  N   UNL     1       3.666   3.566   5.677  0.00  0.00    +0.376 N 
ATOM     27  H   UNL     1       4.070   4.443   5.327  0.00  0.00    -0.083 HD
ENDBRANCH  23  26
ENDBRANCH  22  23
ENDBRANCH  21  22
ENDBRANCH   4  21
BRANCH   1  28
ATOM     28  C   UNL     1      -1.184   5.594   0.796  0.00  0.00    +0.071 C 
BRANCH  28  29
ATOM     29  C   UNL     1       0.305   5.817   0.865  0.00  0.00    -0.042 A 
ATOM     30  C   UNL     1       0.812   7.104   0.852  0.00  0.00    +0.004 A 
ATOM     31  C   UNL     1       2.178   7.308   0.915  0.00  0.00    +0.000 A 
ATOM     32  C   UNL     1       3.036   6.227   0.990  0.00  0.00    +0.000 A 
ATOM     33  C   UNL     1       2.529   4.941   1.002  0.00  0.00    +0.003 A 
ATOM     34  C   UNL     1       1.163   4.737   0.934  0.00  0.00    -0.047 A 
ATOM     35  C   UNL     1       0.611   3.334   0.941  0.00  0.00    +0.044 C 
ENDBRANCH  28  29
ENDBRANCH   1  28
TORSDOF 8
