REMARK  Name = ZINC23688685
REMARK  7 active torsions:
REMARK  status: ('A' for Active; 'I' for Inactive)
REMARK    1  A    between atoms: C_1  and  N_2
REMARK    2  A    between atoms: N_7  and  C_8
REMARK    3  A    between atoms: C_8  and  C_10
REMARK    4  A    between atoms: C_15  and  O_16
REMARK    5  A    between atoms: O_16  and  C_17
REMARK    6  A    between atoms: C_17  and  C_18
REMARK    7  A    between atoms: N_20  and  C_21
REMARK                            x       y       z     vdW  Elec       q    Type
REMARK                         _______ _______ _______ _____ _____    ______ ____
ROOT
ATOM      1  C   UNL     1       2.867   5.276  -0.041  0.00  0.00    +0.080 A 
ATOM      2  C   UNL     1       1.788   6.161  -0.038  0.00  0.00    +0.017 A 
ATOM      3  C   UNL     1       2.014   7.521  -0.038  0.00  0.00    +0.001 A 
ATOM      4  C   UNL     1       3.309   8.014  -0.041  0.00  0.00    +0.004 A 
ATOM      5  C   UNL     1       4.385   7.148  -0.044  0.00  0.00    +0.046 A 
ATOM      6  C   UNL     1       4.175   5.777  -0.038  0.00  0.00    +0.133 A 
ENDROOT
BRANCH   1   7
ATOM      7  C   UNL     1       2.631   3.816  -0.041  0.00  0.00    +0.273 C 
ATOM      8  O   UNL     1       3.576   3.045  -0.044  0.00  0.00    -0.268 OA
BRANCH   7  15
ATOM      9  C   UNL     1      -1.287   2.078  -0.037  0.00  0.00    +0.150 C 
ATOM     10  N   UNL     1      -0.015   1.351  -0.035  0.00  0.00    -0.331 N 
ATOM     11  C   UNL     1       0.004  -0.008  -0.036  0.00  0.00    +0.094 A 
ATOM     12  C   UNL     1       1.186  -0.634  -0.039  0.00  0.00    +0.066 A 
ATOM     13  S   UNL     1       2.329   0.736  -0.042  0.00  0.00    -0.061 S 
ATOM     14  C   UNL     1       1.170   2.027  -0.038  0.00  0.00    +0.165 A 
ATOM     15  N   UNL     1       1.383   3.341  -0.038  0.00  0.00    -0.152 NA
ENDBRANCH   7  15
ENDBRANCH   1   7
BRANCH   6  16
ATOM     16  O   UNL     1       5.231   4.926  -0.036  0.00  0.00    -0.482 OA
BRANCH  16  17
ATOM     17  C   UNL     1       6.535   5.510  -0.034  0.00  0.00    +0.324 C 
BRANCH  17  18
ATOM     18  C   UNL     1       7.574   4.419  -0.031  0.00  0.00    +0.255 C 
ATOM     19  O   UNL     1       7.232   3.255  -0.031  0.00  0.00    -0.272 OA
ATOM     20  N   UNL     1       8.884   4.736  -0.028  0.00  0.00    -0.280 N 
ATOM     21  H   UNL     1       9.196   5.788  -0.102  0.00  0.00    +0.155 HD
BRANCH  20  22
ATOM     22  C   UNL     1       9.849   3.725   0.068  0.00  0.00    +0.069 A 
ATOM     23  C   UNL     1       9.626   2.491  -0.528  0.00  0.00    +0.026 A 
ATOM     24  C   UNL     1      10.582   1.498  -0.436  0.00  0.00    +0.002 A 
ATOM     25  C   UNL     1      11.756   1.727   0.258  0.00  0.00    +0.003 A 
ATOM     26  C   UNL     1      11.980   2.953   0.858  0.00  0.00    +0.040 A 
ATOM     27  C   UNL     1      11.030   3.953   0.765  0.00  0.00    +0.144 A 
ATOM     28  F   UNL     1      11.249   5.151   1.352  0.00  0.00    -0.204 F 
ENDBRANCH  20  22
ENDBRANCH  17  18
ENDBRANCH  16  17
ENDBRANCH   6  16
TORSDOF 6
