REMARK  Name = ZINC13612995
REMARK  2 active torsions:
REMARK  status: ('A' for Active; 'I' for Inactive)
REMARK    1  A    between atoms: C_13  and  C_29
REMARK    2  A    between atoms: C_20  and  C_23
REMARK                            x       y       z     vdW  Elec       q    Type
REMARK                         _______ _______ _______ _____ _____    ______ ____
ROOT
ATOM      1  C   UNL     1      -5.744  -5.086   3.310  0.00  0.00    +0.001 A 
ATOM      2  C   UNL     1      -5.127  -6.046   2.520  0.00  0.00    +0.002 A 
ATOM      3  C   UNL     1      -4.069  -5.712   1.703  0.00  0.00    +0.026 A 
ATOM      4  C   UNL     1      -3.613  -4.397   1.669  0.00  0.00    +0.050 A 
ATOM      5  C   UNL     1      -4.242  -3.430   2.472  0.00  0.00    +0.045 A 
ATOM      6  C   UNL     1      -5.312  -3.790   3.292  0.00  0.00    +0.014 A 
ATOM      7  C   UNL     1      -3.742  -2.046   2.419  0.00  0.00    +0.194 A 
ATOM      8  O   UNL     1      -4.250  -1.168   3.096  0.00  0.00    -0.287 OA
ATOM      9  C   UNL     1      -2.656  -1.766   1.558  0.00  0.00    +0.038 A 
ATOM     10  C   UNL     1      -2.101  -2.750   0.815  0.00  0.00    +0.050 A 
ATOM     11  N   UNL     1      -2.560  -4.029   0.865  0.00  0.00    -0.356 N 
ATOM     12  H   UNL     1      -2.131  -4.704   0.316  0.00  0.00    +0.166 HD
ATOM     13  C   UNL     1      -0.970  -2.155  -0.000  0.00  0.00    +0.154 C 
ATOM     14  N   UNL     1      -1.197  -0.692   0.010  0.00  0.00    -0.283 N 
ATOM     15  C   UNL     1      -1.929  -0.469   1.278  0.00  0.00    +0.149 C 
ATOM     16  C   UNL     1       0.002  -0.004   0.002  0.00  0.00    +0.219 A 
ATOM     17  N   UNL     1      -0.016   1.321   0.009  0.00  0.00    -0.222 NA
ATOM     18  C   UNL     1       1.109   2.014   0.002  0.00  0.00    +0.124 A 
ATOM     19  C   UNL     1       2.327   1.330  -0.013  0.00  0.00    +0.019 A 
ATOM     20  C   UNL     1       2.303  -0.067  -0.020  0.00  0.00    +0.124 A 
ATOM     21  N   UNL     1       1.137  -0.688  -0.012  0.00  0.00    -0.222 NA
ENDROOT
BRANCH  13  22
ATOM     22  C   UNL     1      -1.011  -2.679  -1.413  0.00  0.00    -0.021 A 
ATOM     23  C   UNL     1      -1.927  -2.169  -2.315  0.00  0.00    +0.009 A 
ATOM     24  C   UNL     1      -1.971  -2.647  -3.608  0.00  0.00    +0.046 A 
ATOM     25  C   UNL     1      -1.092  -3.648  -4.016  0.00  0.00    +0.124 A 
ATOM     26  C   UNL     1      -0.173  -4.148  -3.103  0.00  0.00    -0.002 A 
ATOM     27  C   UNL     1      -0.129  -3.667  -1.813  0.00  0.00    +0.013 A 
ATOM     28  C   UNL     1       0.645  -5.200  -3.826  0.00  0.00    +0.080 C 
ATOM     29  C   UNL     1       0.313  -4.901  -5.307  0.00  0.00    +0.234 C 
ATOM     30  O   UNL     1      -0.976  -4.268  -5.223  0.00  0.00    -0.491 OA
ENDBRANCH  13  22
BRANCH  19  31
ATOM     31  C   UNL     1       3.614   2.069  -0.021  0.00  0.00    -0.012 A 
ATOM     32  C   UNL     1       4.833   1.386  -0.030  0.00  0.00    +0.028 A 
ATOM     33  C   UNL     1       6.006   2.111  -0.043  0.00  0.00    +0.111 A 
ATOM     34  N   UNL     1       5.987   3.431  -0.036  0.00  0.00    -0.263 NA
ATOM     35  C   UNL     1       4.858   4.113  -0.023  0.00  0.00    +0.111 A 
ATOM     36  C   UNL     1       3.639   3.466  -0.015  0.00  0.00    +0.028 A 
ENDBRANCH  19  31
TORSDOF 2
