REMARK  Name = ZINC13050774
REMARK  11 active torsions:
REMARK  status: ('A' for Active; 'I' for Inactive)
REMARK    1  A    between atoms: C_1  and  C_2
REMARK    2  A    between atoms: C_3  and  C_33
REMARK    3  A    between atoms: C_4  and  C_32
REMARK    4  A    between atoms: C_6  and  C_8
REMARK    5  A    between atoms: C_8  and  C_10
REMARK    6  A    between atoms: C_10  and  S_11
REMARK    7  A    between atoms: S_11  and  C_12
REMARK    8  A    between atoms: C_16  and  C_29
REMARK    9  A    between atoms: N_22  and  C_23
REMARK   10  A    between atoms: C_23  and  C_24
REMARK   11  A    between atoms: C_33  and  C_35
REMARK                            x       y       z     vdW  Elec       q    Type
REMARK                         _______ _______ _______ _____ _____    ______ ____
ROOT
ATOM      1  C   UNL     1       2.889   1.956   4.812  0.00  0.00    +0.173 A 
ATOM      2  N   UNL     1       1.795   2.677   4.811  0.00  0.00    -0.223 NA
ATOM      3  C   UNL     1       1.672   3.781   5.585  0.00  0.00    +0.080 A 
ATOM      4  C   UNL     1       0.503   4.549   5.582  0.00  0.00    +0.043 A 
ATOM      5  C   UNL     1       0.423   5.674   6.394  0.00  0.00    +0.065 A 
ATOM      6  C   UNL     1       1.503   6.040   7.209  0.00  0.00    +0.016 A 
ATOM      7  C   UNL     1       2.649   5.298   7.220  0.00  0.00    +0.016 A 
ATOM      8  C   UNL     1       2.750   4.165   6.414  0.00  0.00    +0.065 A 
ATOM      9  C   UNL     1       3.967   3.336   6.395  0.00  0.00    +0.263 A 
ATOM     10  O   UNL     1       4.929   3.614   7.087  0.00  0.00    -0.267 OA
ATOM     11  N   UNL     1       3.974   2.252   5.586  0.00  0.00    -0.280 N 
ENDROOT
BRANCH   5  12
ATOM     12  C   UNL     1      -0.809   6.491   6.396  0.00  0.00    +0.387 C 
ATOM     13  O   UNL     1      -1.753   6.175   5.686  0.00  0.00    -0.241 OA
ATOM     14  O   UNL     1      -0.884   7.481   7.109  0.00  0.00    -0.241 OA
ENDBRANCH   5  12
BRANCH   1  15
ATOM     15  S   UNL     1       2.960   0.536   3.773  0.00  0.00    -0.080 S 
BRANCH  15  16
ATOM     16  C   UNL     1       1.347   0.518   2.942  0.00  0.00    +0.154 C 
BRANCH  16  17
ATOM     17  C   UNL     1       1.274  -0.664   2.011  0.00  0.00    +0.172 C 
ATOM     18  O   UNL     1       2.213  -1.417   1.916  0.00  0.00    -0.294 OA
BRANCH  17  24
ATOM     19  C   UNL     1       0.018   1.500  -0.039  0.00  0.00    +0.042 C 
ATOM     20  C   UNL     1       0.018  -0.007  -0.021  0.00  0.00    -0.029 C 
ATOM     21  C   UNL     1       0.012  -0.838  -1.089  0.00  0.00    +0.039 C 
ATOM     22  C   UNL     1       0.014  -2.230  -0.612  0.00  0.00    +0.044 C 
ATOM     23  N   UNL     1       0.020  -2.278   0.676  0.00  0.00    -0.272 NA
ATOM     24  C   UNL     1       0.029  -0.906   1.196  0.00  0.00    +0.199 C 
ATOM     25  C   UNL     1       0.009  -3.439  -1.511  0.00  0.00    +0.066 C 
BRANCH  21  26
ATOM     26  C   UNL     1       0.006  -0.417  -2.498  0.00  0.00    +0.162 C 
ATOM     27  O   UNL     1      -0.953   0.170  -2.951  0.00  0.00    -0.292 OA
ATOM     28  C   UNL     1       1.192  -0.716  -3.378  0.00  0.00    +0.091 C 
ENDBRANCH  21  26
ENDBRANCH  17  24
ENDBRANCH  16  17
ENDBRANCH  15  16
ENDBRANCH   1  15
BRANCH  11  29
ATOM     29  C   UNL     1       5.159   1.391   5.535  0.00  0.00    +0.201 C 
BRANCH  29  30
ATOM     30  C   UNL     1       6.097   1.891   4.467  0.00  0.00    +0.125 A 
ATOM     31  C   UNL     1       7.086   2.785   4.644  0.00  0.00    +0.046 A 
ATOM     32  C   UNL     1       7.709   2.962   3.388  0.00  0.00    +0.041 A 
ATOM     33  C   UNL     1       7.064   2.164   2.517  0.00  0.00    +0.195 A 
ATOM     34  O   UNL     1       6.092   1.513   3.178  0.00  0.00    -0.466 OA
ENDBRANCH  29  30
ENDBRANCH  11  29
TORSDOF 8
