REMARK  Name = ZINC40176072
REMARK  11 active torsions:
REMARK  status: ('A' for Active; 'I' for Inactive)
REMARK    1  A    between atoms: C_1  and  C_2
REMARK    2  A    between atoms: C_2  and  O_3
REMARK    3  A    between atoms: O_3  and  C_4
REMARK    4  A    between atoms: C_7  and  C_13
REMARK    5  A    between atoms: C_9  and  O_10
REMARK    6  A    between atoms: O_10  and  C_11
REMARK    7  A    between atoms: C_11  and  C_12
REMARK    8  A    between atoms: C_23  and  S_25
REMARK    9  A    between atoms: S_25  and  N_28
REMARK   10  A    between atoms: N_28  and  C_29
REMARK   11  A    between atoms: C_32  and  C_34
REMARK                            x       y       z     vdW  Elec       q    Type
REMARK                         _______ _______ _______ _____ _____    ______ ____
ROOT
ATOM      1  C   UNL     1       1.106  -6.016  -1.839  0.00  0.00    +0.251 C 
ATOM      2  O   UNL     1       1.046  -4.812  -1.679  0.00  0.00    -0.270 OA
ATOM      3  N   UNL     1       0.499  -6.843  -0.965  0.00  0.00    -0.267 N 
ATOM      4  C   UNL     1       0.607  -8.300  -1.117  0.00  0.00    +0.114 C 
ATOM      5  C   UNL     1      -0.790  -8.899  -0.905  0.00  0.00    +0.024 C 
ATOM      6  C   UNL     1      -1.239  -8.609   0.527  0.00  0.00    +0.038 C 
ATOM      7  C   UNL     1      -1.090  -7.144   0.840  0.00  0.00    -0.024 A 
ATOM      8  C   UNL     1      -0.240  -6.328   0.108  0.00  0.00    +0.040 A 
ATOM      9  C   UNL     1      -0.119  -4.981   0.429  0.00  0.00    +0.026 A 
ATOM     10  C   UNL     1      -0.841  -4.453   1.480  0.00  0.00    +0.031 A 
ATOM     11  C   UNL     1      -1.686  -5.266   2.213  0.00  0.00    +0.111 A 
ATOM     12  C   UNL     1      -1.817  -6.606   1.889  0.00  0.00    +0.034 A 
ENDROOT
BRANCH   1  16
ATOM     13  C   UNL     1       3.233  -7.620  -5.150  0.00  0.00    +0.162 A 
ATOM     14  C   UNL     1       3.397  -8.171  -3.886  0.00  0.00    +0.050 A 
ATOM     15  C   UNL     1       2.709  -7.654  -2.811  0.00  0.00    +0.017 A 
ATOM     16  C   UNL     1       1.844  -6.571  -2.990  0.00  0.00    +0.041 A 
ATOM     17  C   UNL     1       1.679  -6.016  -4.261  0.00  0.00    +0.062 A 
ATOM     18  C   UNL     1       2.375  -6.537  -5.335  0.00  0.00    +0.163 A 
BRANCH  13  19
ATOM     19  O   UNL     1       3.913  -8.134  -6.207  0.00  0.00    -0.489 OA
BRANCH  19  21
ATOM     20  C   UNL     1       5.449  -9.682  -7.248  0.00  0.00    +0.048 C 
ATOM     21  C   UNL     1       4.774  -9.244  -5.947  0.00  0.00    +0.226 C 
ENDBRANCH  19  21
ENDBRANCH  13  19
BRANCH  18  22
ATOM     22  O   UNL     1       2.220  -5.995  -6.573  0.00  0.00    -0.489 OA
BRANCH  22  23
ATOM     23  C   UNL     1       1.326  -4.887  -6.689  0.00  0.00    +0.226 C 
ATOM     24  C   UNL     1       1.282  -4.418  -8.145  0.00  0.00    +0.048 C 
ENDBRANCH  22  23
ENDBRANCH  18  22
ENDBRANCH   1  16
BRANCH  11  25
ATOM     25  S   UNL     1      -2.610  -4.592   3.554  0.00  0.00    +0.094 S 
ATOM     26  O   UNL     1      -2.912  -5.675   4.423  0.00  0.00    -0.148 OA
ATOM     27  O   UNL     1      -1.906  -3.437   3.992  0.00  0.00    -0.148 OA
BRANCH  25  28
ATOM     28  N   UNL     1      -4.053  -4.062   2.938  0.00  0.00    -0.068 NA
BRANCH  28  29
ATOM     29  C   UNL     1      -4.992  -3.479   3.775  0.00  0.00    +0.224 A 
ATOM     30  N   UNL     1      -4.942  -3.243   5.080  0.00  0.00    -0.123 NA
ATOM     31  N   UNL     1      -5.899  -2.696   5.693  0.00  0.00    -0.145 NA
ATOM     32  C   UNL     1      -7.005  -2.325   5.080  0.00  0.00    +0.101 A 
ATOM     33  S   UNL     1      -6.615  -2.821   3.405  0.00  0.00    -0.033 S 
ATOM     34  C   UNL     1      -8.243  -1.665   5.631  0.00  0.00    +0.075 C 
ENDBRANCH  28  29
ENDBRANCH  25  28
ENDBRANCH  11  25
TORSDOF 8
