REMARK  Name = ZINC44889916
REMARK  10 active torsions:
REMARK  status: ('A' for Active; 'I' for Inactive)
REMARK    1  A    between atoms: C_1  and  O_2
REMARK    2  A    between atoms: O_2  and  C_3
REMARK    3  A    between atoms: C_3  and  C_5
REMARK    4  A    between atoms: C_5  and  C_6
REMARK    5  A    between atoms: C_6  and  C_7
REMARK    6  A    between atoms: C_7  and  C_9
REMARK    7  A    between atoms: C_7  and  N_13
REMARK    8  A    between atoms: C_9  and  O_11
REMARK    9  A    between atoms: O_11  and  C_12
REMARK   10  A    between atoms: C_25  and  C_27
REMARK                            x       y       z     vdW  Elec       q    Type
REMARK                         _______ _______ _______ _____ _____    ______ ____
ROOT
ATOM      1  N   UNL     1       0.809  -6.578   1.627  0.00  0.00    -0.286 N 
ATOM      2  C   UNL     1      -0.179  -5.834   2.163  0.00  0.00    +0.304 C 
ATOM      3  O   UNL     1       0.067  -4.732   2.615  0.00  0.00    -0.253 OA
ATOM      4  N   UNL     1      -1.439  -6.311   2.197  0.00  0.00    -0.273 N 
ATOM      5  C   UNL     1      -2.549  -5.474   2.677  0.00  0.00    +0.116 C 
ATOM      6  C   UNL     1      -3.528  -5.226   1.522  0.00  0.00    +0.076 C 
ATOM      7  C   UNL     1      -3.778  -6.531   0.808  0.00  0.00    +0.066 A 
ATOM      8  C   UNL     1      -2.985  -7.619   0.907  0.00  0.00    +0.064 A 
ATOM      9  N   UNL     1      -3.528  -8.588   0.122  0.00  0.00    -0.346 N 
ATOM     10  H   UNL     1      -3.181  -9.483  -0.013  0.00  0.00    +0.167 HD
ATOM     11  C   UNL     1      -4.645  -8.064  -0.435  0.00  0.00    +0.197 A 
ATOM     12  N   UNL     1      -4.786  -6.833  -0.018  0.00  0.00    -0.240 NA
ATOM     13  C   UNL     1      -1.741  -7.683   1.751  0.00  0.00    +0.156 C 
ATOM     14  H   UNL     1       0.629  -7.486   1.337  0.00  0.00    +0.151 HD
ENDROOT
BRANCH  13  15
ATOM     15  C   UNL     1      -1.981  -8.570   2.945  0.00  0.00    -0.020 A 
ATOM     16  C   UNL     1      -3.056  -8.329   3.780  0.00  0.00    +0.009 A 
ATOM     17  C   UNL     1      -3.278  -9.142   4.875  0.00  0.00    +0.040 A 
ATOM     18  C   UNL     1      -2.423 -10.199   5.137  0.00  0.00    +0.142 A 
ATOM     19  C   UNL     1      -1.346 -10.441   4.299  0.00  0.00    +0.076 A 
ATOM     20  C   UNL     1      -1.130  -9.629   3.201  0.00  0.00    +0.028 A 
ATOM     21 CL   UNL     1      -0.274 -11.766   4.625  0.00  0.00    -0.081 Cl
ATOM     22  F   UNL     1      -2.639 -10.994   6.207  0.00  0.00    -0.204 F 
ENDBRANCH  13  15
BRANCH   1  23
ATOM     23  C   UNL     1       2.154  -6.015   1.481  0.00  0.00    +0.184 C 
BRANCH  23  24
ATOM     24  C   UNL     1       2.236  -5.238   0.193  0.00  0.00    +0.327 C 
ATOM     25  O   UNL     1       1.271  -5.162  -0.530  0.00  0.00    -0.249 OA
BRANCH  24  26
ATOM     26  O   UNL     1       3.382  -4.630  -0.152  0.00  0.00    -0.467 OA
ATOM     27  C   UNL     1       3.389  -3.912  -1.387  0.00  0.00    +0.280 C 
ENDBRANCH  24  26
ENDBRANCH  23  24
BRANCH  23  28
ATOM     28  C   UNL     1       3.181  -7.149   1.460  0.00  0.00    +0.045 C 
BRANCH  28  29
ATOM     29  C   UNL     1       3.184  -7.859   2.815  0.00  0.00    +0.123 C 
BRANCH  29  30
ATOM     30  C   UNL     1       4.196  -8.976   2.795  0.00  0.00    +0.307 C 
ATOM     31  O   UNL     1       4.848  -9.182   1.798  0.00  0.00    -0.251 OA
BRANCH  30  33
ATOM     32  C   UNL     1       5.350 -10.781   3.793  0.00  0.00    +0.280 C 
ATOM     33  O   UNL     1       4.373  -9.741   3.883  0.00  0.00    -0.468 OA
ENDBRANCH  30  33
ENDBRANCH  29  30
ENDBRANCH  28  29
ENDBRANCH  23  28
ENDBRANCH   1  23
TORSDOF 8
