REMARK  Name = ZINC32810581
REMARK  10 active torsions:
REMARK  status: ('A' for Active; 'I' for Inactive)
REMARK    1  A    between atoms: C_1  and  C_2
REMARK    2  A    between atoms: C_2  and  C_4
REMARK    3  A    between atoms: C_2  and  N_11
REMARK    4  A    between atoms: N_11  and  C_12
REMARK    5  A    between atoms: C_12  and  C_14
REMARK    6  A    between atoms: C_12  and  C_15
REMARK    7  A    between atoms: C_15  and  C_17
REMARK    8  A    between atoms: C_18  and  N_27
REMARK    9  A    between atoms: N_19  and  C_26
REMARK   10  A    between atoms: N_22  and  C_25
REMARK                            x       y       z     vdW  Elec       q    Type
REMARK                         _______ _______ _______ _____ _____    ______ ____
ROOT
ATOM      1  C   UNL     1      -3.559  -0.231   0.980  0.00  0.00    +0.158 C 
ATOM      2  O   UNL     1      -3.971  -0.909   0.060  0.00  0.00    -0.294 OA
ENDROOT
BRANCH   1   3
ATOM      3  C   UNL     1      -4.445   0.205   1.988  0.00  0.00    +0.118 A 
ATOM      4  C   UNL     1      -5.776  -0.246   2.028  0.00  0.00    +0.116 A 
ATOM      5  N   UNL     1      -6.596   0.203   3.024  0.00  0.00    -0.284 N 
ATOM      6  C   UNL     1      -6.154   1.062   3.956  0.00  0.00    +0.333 A 
ATOM      7  O   UNL     1      -6.923   1.432   4.822  0.00  0.00    -0.246 OA
ATOM      8  N   UNL     1      -4.894   1.526   3.969  0.00  0.00    -0.263 N 
ATOM      9  C   UNL     1      -4.005   1.139   3.032  0.00  0.00    +0.269 A 
ATOM     10  O   UNL     1      -2.862   1.558   3.050  0.00  0.00    -0.267 OA
ATOM     11  C   UNL     1      -4.479   2.462   5.017  0.00  0.00    +0.157 C 
ATOM     12  C   UNL     1      -7.984  -0.261   3.074  0.00  0.00    +0.155 C 
BRANCH   4  13
ATOM     13  N   UNL     1      -6.240  -1.116   1.090  0.00  0.00    -0.344 N 
ATOM     14  H   UNL     1      -5.616  -1.595   0.522  0.00  0.00    +0.144 HD
ATOM     15  H   UNL     1      -7.194  -1.256   0.989  0.00  0.00    +0.144 HD
ENDBRANCH   4  13
ENDBRANCH   1   3
BRANCH   1  16
ATOM     16  C   UNL     1      -2.101   0.146   1.044  0.00  0.00    -0.001 C 
ATOM     17  C   UNL     1      -1.378  -0.779   2.025  0.00  0.00    -0.006 C 
BRANCH  16  18
ATOM     18  N   UNL     1      -1.501   0.009  -0.290  0.00  0.00    +0.390 N 
ATOM     19  H   UNL     1      -2.029   0.556  -0.954  0.00  0.00    -0.084 HD
ATOM     20  H   UNL     1      -1.514  -0.961  -0.567  0.00  0.00    -0.084 HD
BRANCH  18  22
ATOM     21  C   UNL     1      -0.100   1.990   0.043  0.00  0.00    -0.009 C 
ATOM     22  C   UNL     1      -0.113   0.490  -0.255  0.00  0.00    -0.043 C 
BRANCH  22  23
ATOM     23  C   UNL     1       0.541   0.237  -1.589  0.00  0.00    -0.062 A 
ATOM     24  C   UNL     1      -0.169   0.445  -2.756  0.00  0.00    +0.003 A 
ATOM     25  C   UNL     1       0.430   0.213  -3.980  0.00  0.00    +0.020 A 
ATOM     26  C   UNL     1       1.740  -0.228  -4.036  0.00  0.00    +0.041 A 
ATOM     27  C   UNL     1       2.450  -0.436  -2.867  0.00  0.00    +0.020 A 
ATOM     28  C   UNL     1       1.852  -0.198  -1.644  0.00  0.00    +0.003 A 
ATOM     29 CL   UNL     1       2.493  -0.519  -5.573  0.00  0.00    -0.084 Cl
ENDBRANCH  22  23
ENDBRANCH  18  22
ENDBRANCH  16  18
ENDBRANCH   1  16
TORSDOF 6
