REMARK  Name = ZINC14428856
REMARK  5 active torsions:
REMARK  status: ('A' for Active; 'I' for Inactive)
REMARK    1  A    between atoms: C_1  and  C_2
REMARK    2  A    between atoms: C_2  and  C_3
REMARK    3  A    between atoms: C_2  and  N_4
REMARK    4  A    between atoms: C_13  and  C_15
REMARK    5  A    between atoms: N_17  and  C_18
REMARK                            x       y       z     vdW  Elec       q    Type
REMARK                         _______ _______ _______ _____ _____    ______ ____
ROOT
ATOM      1  N   UNL     1      -6.074   5.773  -0.214  0.00  0.00    -0.226 N 
ATOM      2  C   UNL     1      -7.301   5.221  -0.314  0.00  0.00    +0.275 A 
ATOM      3  O   UNL     1      -8.295   5.920  -0.385  0.00  0.00    -0.266 OA
ATOM      4  C   UNL     1      -7.410   3.755  -0.333  0.00  0.00    +0.050 A 
ATOM      5  C   UNL     1      -8.627   3.088  -0.433  0.00  0.00    +0.014 A 
ATOM      6  C   UNL     1      -8.643   1.710  -0.445  0.00  0.00    +0.001 A 
ATOM      7  C   UNL     1      -7.461   0.985  -0.360  0.00  0.00    +0.001 A 
ATOM      8  C   UNL     1      -6.245   1.627  -0.260  0.00  0.00    +0.011 A 
ATOM      9  C   UNL     1      -6.206   3.017  -0.252  0.00  0.00    +0.020 A 
ATOM     10  C   UNL     1      -4.951   3.779  -0.142  0.00  0.00    +0.154 A 
ATOM     11  N   UNL     1      -4.996   5.089  -0.136  0.00  0.00    -0.163 NA
ENDROOT
BRANCH  10  12
ATOM     12  C   UNL     1      -3.657   3.076  -0.047  0.00  0.00    +0.269 C 
ATOM     13  O   UNL     1      -3.623   1.860  -0.054  0.00  0.00    -0.268 OA
ATOM     14  N   UNL     1      -2.512   3.781   0.047  0.00  0.00    -0.280 N 
ATOM     15  H   UNL     1      -2.543   4.747   0.133  0.00  0.00    +0.155 HD
BRANCH  14  16
ATOM     16  C   UNL     1      -1.283   3.122   0.021  0.00  0.00    +0.041 A 
ATOM     17  C   UNL     1      -1.166   1.892  -0.590  0.00  0.00    +0.024 A 
ATOM     18  C   UNL     1       0.054   1.224  -0.617  0.00  0.00    +0.002 A 
ATOM     19  C   UNL     1       1.167   1.770  -0.052  0.00  0.00    +0.008 A 
ATOM     20  C   UNL     1       1.092   3.025   0.574  0.00  0.00    -0.016 A 
ATOM     21  C   UNL     1      -0.146   3.712   0.613  0.00  0.00    +0.003 A 
ATOM     22  C   UNL     1      -0.219   4.967   1.238  0.00  0.00    +0.010 A 
ATOM     23  C   UNL     1       0.898   5.506   1.800  0.00  0.00    +0.001 A 
ATOM     24  C   UNL     1       2.117   4.830   1.763  0.00  0.00    +0.001 A 
ATOM     25  C   UNL     1       2.225   3.613   1.165  0.00  0.00    +0.008 A 
ENDBRANCH  14  16
ENDBRANCH  10  12
BRANCH   1  27
ATOM     26  C   UNL     1      -5.315   7.683   1.111  0.00  0.00    +0.032 C 
ATOM     27  C   UNL     1      -5.972   7.234  -0.196  0.00  0.00    +0.105 C 
ATOM     28  C   UNL     1      -5.122   7.701  -1.380  0.00  0.00    +0.032 C 
ENDBRANCH   1  27
TORSDOF 3
