REMARK  Name = ZINC35041153
REMARK  10 active torsions:
REMARK  status: ('A' for Active; 'I' for Inactive)
REMARK    1  A    between atoms: C_1  and  C_2
REMARK    2  A    between atoms: C_2  and  C_3
REMARK    3  A    between atoms: C_3  and  N_4
REMARK    4  A    between atoms: N_4  and  C_5
REMARK    5  A    between atoms: C_5  and  C_7
REMARK    6  A    between atoms: C_5  and  C_8
REMARK    7  A    between atoms: N_18  and  C_19
REMARK    8  A    between atoms: C_22  and  O_25
REMARK    9  A    between atoms: O_25  and  C_26
REMARK   10  A    between atoms: N_29  and  C_30
REMARK                            x       y       z     vdW  Elec       q    Type
REMARK                         _______ _______ _______ _____ _____    ______ ____
ROOT
ATOM      1  C   UNL     1      -1.997  -2.684   0.525  0.00  0.00    +0.141 C 
ATOM      2  C   UNL     1      -0.612  -2.060   0.701  0.00  0.00    +0.036 C 
ENDROOT
BRANCH   1   3
ATOM      3  C   UNL     1      -2.933  -2.133   1.570  0.00  0.00    +0.138 A 
ATOM      4  N   UNL     1      -3.060  -0.845   1.665  0.00  0.00    -0.231 NA
ATOM      5  C   UNL     1      -3.884  -0.277   2.581  0.00  0.00    +0.078 A 
ATOM      6  C   UNL     1      -4.021   1.109   2.684  0.00  0.00    +0.028 A 
ATOM      7  C   UNL     1      -4.869   1.642   3.628  0.00  0.00    +0.002 A 
ATOM      8  C   UNL     1      -5.591   0.819   4.482  0.00  0.00    +0.001 A 
ATOM      9  C   UNL     1      -5.473  -0.551   4.400  0.00  0.00    +0.015 A 
ATOM     10  C   UNL     1      -4.620  -1.111   3.451  0.00  0.00    +0.065 A 
ATOM     11  C   UNL     1      -4.455  -2.566   3.317  0.00  0.00    +0.266 A 
ATOM     12  O   UNL     1      -5.060  -3.340   4.035  0.00  0.00    -0.267 OA
ATOM     13  N   UNL     1      -3.606  -3.011   2.361  0.00  0.00    -0.263 N 
BRANCH  13  14
ATOM     14  C   UNL     1      -3.416  -4.389   2.188  0.00  0.00    +0.051 A 
ATOM     15  C   UNL     1      -2.391  -5.039   2.863  0.00  0.00    +0.030 A 
ATOM     16  C   UNL     1      -2.204  -6.396   2.692  0.00  0.00    +0.047 A 
ATOM     17  C   UNL     1      -3.040  -7.111   1.846  0.00  0.00    +0.120 A 
ATOM     18  C   UNL     1      -4.064  -6.462   1.171  0.00  0.00    +0.047 A 
ATOM     19  C   UNL     1      -4.256  -5.106   1.346  0.00  0.00    +0.030 A 
BRANCH  17  20
ATOM     20  O   UNL     1      -2.855  -8.447   1.678  0.00  0.00    -0.495 OA
ATOM     21  C   UNL     1      -3.752  -9.120   0.792  0.00  0.00    +0.277 C 
ENDBRANCH  17  20
ENDBRANCH  13  14
ENDBRANCH   1   3
BRANCH   1  22
ATOM     22  N   UNL     1      -2.512  -2.364  -0.809  0.00  0.00    -0.276 N 
ATOM     23  C   UNL     1      -2.811  -3.356  -1.671  0.00  0.00    +0.303 C 
ATOM     24  O   UNL     1      -2.654  -4.516  -1.343  0.00  0.00    -0.253 OA
ATOM     25  N   UNL     1      -3.284  -3.062  -2.899  0.00  0.00    -0.294 N 
ATOM     26  H   UNL     1      -3.409  -2.136  -3.161  0.00  0.00    +0.151 HD
BRANCH  25  27
ATOM     27  C   UNL     1      -3.609  -4.139  -3.836  0.00  0.00    +0.037 C 
ATOM     28  C   UNL     1      -2.354  -4.970  -4.113  0.00  0.00    +0.029 C 
ATOM     29  C   UNL     1      -2.694  -6.095  -5.093  0.00  0.00    -0.008 C 
ATOM     30  C   UNL     1      -3.207  -5.494  -6.402  0.00  0.00    +0.007 C 
ATOM     31  C   UNL     1      -4.462  -4.663  -6.125  0.00  0.00    -0.008 C 
ATOM     32  C   UNL     1      -4.122  -3.538  -5.146  0.00  0.00    +0.029 C 
ATOM     33  C   UNL     1      -5.543  -5.559  -5.518  0.00  0.00    +0.007 C 
ATOM     34  C   UNL     1      -5.030  -6.161  -4.208  0.00  0.00    -0.008 C 
ATOM     35  C   UNL     1      -3.775  -6.991  -4.485  0.00  0.00    +0.007 C 
ATOM     36  C   UNL     1      -4.690  -5.035  -3.228  0.00  0.00    +0.029 C 
ENDBRANCH  25  27
BRANCH  22  37
ATOM     37  C   UNL     1      -2.701  -0.967  -1.205  0.00  0.00    +0.110 C 
BRANCH  37  39
ATOM     38  C   UNL     1      -1.616   1.017  -2.268  0.00  0.00    +0.005 C 
ATOM     39  C   UNL     1      -1.418  -0.443  -1.854  0.00  0.00    +0.016 C 
ENDBRANCH  37  39
ENDBRANCH  22  37
ENDBRANCH   1  22
TORSDOF 7
