REMARK  Name = ZINC32999069
REMARK  11 active torsions:
REMARK  status: ('A' for Active; 'I' for Inactive)
REMARK    1  A    between atoms: C_1  and  C_2
REMARK    2  A    between atoms: C_5  and  S_8
REMARK    3  A    between atoms: S_8  and  C_9
REMARK    4  A    between atoms: N_14  and  C_16
REMARK    5  A    between atoms: C_19  and  C_22
REMARK    6  A    between atoms: N_24  and  C_25
REMARK    7  A    between atoms: C_25  and  C_26
REMARK    8  A    between atoms: C_26  and  C_27
REMARK    9  A    between atoms: C_27  and  N_28
REMARK   10  A    between atoms: N_28  and  C_29
REMARK   11  A    between atoms: N_28  and  C_30
REMARK                            x       y       z     vdW  Elec       q    Type
REMARK                         _______ _______ _______ _____ _____    ______ ____
ROOT
ATOM      1  C   UNL     1      -3.870   2.263   0.086  0.00  0.00    +0.069 A 
ATOM      2  C   UNL     1      -4.140   0.932   0.388  0.00  0.00    +0.028 A 
ATOM      3  C   UNL     1      -3.119   0.008   0.408  0.00  0.00    +0.015 A 
ATOM      4  C   UNL     1      -1.811   0.409   0.126  0.00  0.00    +0.037 A 
ATOM      5  C   UNL     1      -1.542   1.748  -0.171  0.00  0.00    +0.015 A 
ATOM      6  C   UNL     1      -2.568   2.665  -0.196  0.00  0.00    +0.028 A 
ENDROOT
BRANCH   1  12
ATOM      7  C   UNL     1      -7.075   3.776  -0.652  0.00  0.00    +0.123 A 
ATOM      8  C   UNL     1      -6.958   5.014   0.012  0.00  0.00    +0.042 A 
ATOM      9  C   UNL     1      -5.816   5.311   0.688  0.00  0.00    +0.075 A 
ATOM     10  C   UNL     1      -4.765   4.372   0.712  0.00  0.00    +0.272 A 
ATOM     11  O   UNL     1      -3.732   4.621   1.313  0.00  0.00    -0.266 OA
ATOM     12  N   UNL     1      -4.907   3.197   0.067  0.00  0.00    -0.196 N 
ATOM     13  N   UNL     1      -6.088   2.912  -0.628  0.00  0.00    -0.157 NA
BRANCH   7  14
ATOM     14  S   UNL     1      -8.555   3.389  -1.528  0.00  0.00    -0.068 S 
BRANCH  14  19
ATOM     15  C   UNL     1      -7.042   4.085  -7.330  0.00  0.00    +0.044 C 
ATOM     16  C   UNL     1      -7.419   3.911  -5.881  0.00  0.00    -0.050 A 
ATOM     17  C   UNL     1      -8.667   3.415  -5.548  0.00  0.00    +0.004 A 
ATOM     18  C   UNL     1      -9.016   3.255  -4.222  0.00  0.00    +0.015 A 
ATOM     19  C   UNL     1      -8.113   3.592  -3.222  0.00  0.00    +0.014 A 
ATOM     20  C   UNL     1      -6.862   4.095  -3.560  0.00  0.00    +0.015 A 
ATOM     21  C   UNL     1      -6.518   4.248  -4.888  0.00  0.00    +0.004 A 
ENDBRANCH  14  19
ENDBRANCH   7  14
ENDBRANCH   1  12
BRANCH   4  22
ATOM     22  C   UNL     1      -0.713  -0.579   0.147  0.00  0.00    +0.244 C 
ATOM     23  O   UNL     1      -0.948  -1.742   0.411  0.00  0.00    -0.270 OA
ATOM     24  N   UNL     1       0.547  -0.192  -0.131  0.00  0.00    -0.311 N 
ATOM     25  H   UNL     1       0.760   0.861  -0.369  0.00  0.00    +0.149 HD
BRANCH  24  26
ATOM     26  C   UNL     1       1.635  -1.173  -0.115  0.00  0.00    +0.102 C 
BRANCH  26  27
ATOM     27  C   UNL     1       2.954  -0.478  -0.463  0.00  0.00    +0.000 C 
BRANCH  27  28
ATOM     28  C   UNL     1       4.090  -1.503  -0.447  0.00  0.00    -0.077 C 
BRANCH  28  29
ATOM     29  N   UNL     1       5.355  -0.836  -0.780  0.00  0.00    +0.380 N 
ATOM     30  C   UNL     1       5.344  -0.348  -2.165  0.00  0.00    -0.096 C 
ATOM     31  H   UNL     1       5.464   0.034  -0.116  0.00  0.00    -0.082 HD
BRANCH  29  32
ATOM     32  C   UNL     1       6.498  -1.729  -0.545  0.00  0.00    -0.069 C 
ATOM     33  C   UNL     1       6.532  -2.137   0.929  0.00  0.00    -0.015 C 
ATOM     34  C   UNL     1       7.723  -3.066   1.174  0.00  0.00    -0.002 C 
ATOM     35  C   UNL     1       9.020  -2.338   0.816  0.00  0.00    -0.000 C 
ATOM     36  C   UNL     1       8.986  -1.930  -0.658  0.00  0.00    -0.002 C 
ATOM     37  C   UNL     1       7.796  -1.000  -0.902  0.00  0.00    -0.015 C 
ENDBRANCH  29  32
ENDBRANCH  28  29
ENDBRANCH  27  28
ENDBRANCH  26  27
ENDBRANCH  24  26
ENDBRANCH   4  22
TORSDOF 9
