REMARK  Name = ZINC08840941
REMARK  9 active torsions:
REMARK  status: ('A' for Active; 'I' for Inactive)
REMARK    1  A    between atoms: C_1  and  C_2
REMARK    2  A    between atoms: C_2  and  C_3
REMARK    3  A    between atoms: C_2  and  C_4
REMARK    4  A    between atoms: C_4  and  C_5
REMARK    5  A    between atoms: C_5  and  N_6
REMARK    6  A    between atoms: C_10  and  N_17
REMARK    7  A    between atoms: N_17  and  S_18
REMARK    8  A    between atoms: S_18  and  C_21
REMARK    9  A    between atoms: C_25  and  N_27
REMARK                            x       y       z     vdW  Elec       q    Type
REMARK                         _______ _______ _______ _____ _____    ______ ____
ROOT
ATOM      1  N   UNL     1      -4.481   4.934  -4.776  0.00  0.00    -0.271 N 
ATOM      2  C   UNL     1      -3.379   5.228  -3.962  0.00  0.00    +0.040 A 
ATOM      3  C   UNL     1      -3.573   5.705  -2.672  0.00  0.00    +0.025 A 
ATOM      4  C   UNL     1      -2.486   5.994  -1.872  0.00  0.00    +0.026 A 
ATOM      5  C   UNL     1      -1.198   5.807  -2.357  0.00  0.00    +0.048 A 
ATOM      6  C   UNL     1      -1.004   5.335  -3.649  0.00  0.00    +0.030 A 
ATOM      7  C   UNL     1      -2.091   5.041  -4.446  0.00  0.00    -0.024 A 
ATOM      8  C   UNL     1      -1.885   4.524  -5.846  0.00  0.00    +0.046 C 
ATOM      9  C   UNL     1      -3.003   3.542  -6.199  0.00  0.00    +0.101 C 
ATOM     10  C   UNL     1      -4.340   4.142  -5.854  0.00  0.00    +0.220 C 
ATOM     11  O   UNL     1      -5.300   3.909  -6.557  0.00  0.00    -0.275 OA
ENDROOT
BRANCH   5  12
ATOM     12  N   UNL     1      -0.096   6.100  -1.547  0.00  0.00    -0.216 N 
ATOM     13  H   UNL     1       0.655   6.595  -1.909  0.00  0.00    +0.174 HD
BRANCH  12  14
ATOM     14  S   UNL     1      -0.074   5.602   0.033  0.00  0.00    +0.072 S 
ATOM     15  O   UNL     1      -1.319   5.988   0.597  0.00  0.00    -0.150 OA
ATOM     16  O   UNL     1       1.171   6.022   0.574  0.00  0.00    -0.150 OA
BRANCH  14  17
ATOM     17  C   UNL     1      -0.050   3.840   0.023  0.00  0.00    +0.111 A 
ATOM     18  C   UNL     1       1.157   3.165   0.008  0.00  0.00    +0.029 A 
ATOM     19  C   UNL     1       1.175   1.783   0.000  0.00  0.00    +0.004 A 
ATOM     20  C   UNL     1      -0.013   1.076   0.008  0.00  0.00    +0.033 A 
ATOM     21  C   UNL     1      -1.219   1.750   0.017  0.00  0.00    +0.128 A 
ATOM     22  C   UNL     1      -1.238   3.133   0.030  0.00  0.00    +0.061 A 
BRANCH  21  23
ATOM     23  N   UNL     1      -2.490   0.993   0.019  0.00  0.00    +0.056 N 
ATOM     24  O   UNL     1      -2.474  -0.225   0.013  0.00  0.00    -0.126 OA
ATOM     25  O   UNL     1      -3.554   1.588   0.028  0.00  0.00    -0.126 OA
ENDBRANCH  21  23
ENDBRANCH  14  17
ENDBRANCH  12  14
ENDBRANCH   5  12
BRANCH   1  26
ATOM     26  C   UNL     1      -5.795   5.492  -4.450  0.00  0.00    +0.114 C 
BRANCH  26  27
ATOM     27  C   UNL     1      -5.963   6.844  -5.147  0.00  0.00    +0.022 C 
BRANCH  27  29
ATOM     28  C   UNL     1      -7.455   8.832  -5.402  0.00  0.00    +0.007 C 
ATOM     29  C   UNL     1      -7.336   7.427  -4.807  0.00  0.00    -0.016 C 
ATOM     30  C   UNL     1      -8.429   6.532  -5.393  0.00  0.00    +0.007 C 
ENDBRANCH  27  29
ENDBRANCH  26  27
ENDBRANCH   1  26
TORSDOF 7
