REMARK  Name = ZINC21776072
REMARK  9 active torsions:
REMARK  status: ('A' for Active; 'I' for Inactive)
REMARK    1  A    between atoms: C_1  and  C_2
REMARK    2  A    between atoms: C_5  and  N_31
REMARK    3  A    between atoms: C_7  and  S_8
REMARK    4  A    between atoms: S_8  and  N_11
REMARK    5  A    between atoms: N_11  and  C_12
REMARK    6  A    between atoms: C_12  and  C_13
REMARK    7  A    between atoms: C_13  and  C_15
REMARK    8  A    between atoms: C_13  and  N_25
REMARK    9  A    between atoms: N_23  and  C_24
REMARK                            x       y       z     vdW  Elec       q    Type
REMARK                         _______ _______ _______ _____ _____    ______ ____
ROOT
ATOM      1  C   UNL     1      -2.205   5.373   0.353  0.00  0.00    +0.102 C 
ENDROOT
BRANCH   1   2
ATOM      2  C   UNL     1      -0.859   4.699   0.298  0.00  0.00    -0.029 A 
ATOM      3  C   UNL     1       0.162   5.250  -0.456  0.00  0.00    +0.007 A 
ATOM      4  C   UNL     1       1.395   4.636  -0.511  0.00  0.00    +0.024 A 
ATOM      5  C   UNL     1       1.622   3.454   0.193  0.00  0.00    +0.033 A 
ATOM      6  C   UNL     1       0.591   2.911   0.951  0.00  0.00    -0.025 A 
ATOM      7  C   UNL     1      -0.639   3.531   1.005  0.00  0.00    +0.010 A 
ATOM      8  C   UNL     1       1.111   1.647   1.608  0.00  0.00    +0.056 C 
ATOM      9  C   UNL     1       2.643   1.790   1.462  0.00  0.00    +0.109 C 
ATOM     10  N   UNL     1       2.775   2.664   0.276  0.00  0.00    -0.332 N 
ATOM     11  C   UNL     1       3.980   3.500   0.369  0.00  0.00    +0.129 C 
ENDBRANCH   1   2
BRANCH   1  12
ATOM     12  N   UNL     1      -2.124   6.560   1.216  0.00  0.00    -0.290 NA
ATOM     13  C   UNL     1      -0.975   7.401   0.847  0.00  0.00    +0.113 C 
ATOM     14  C   UNL     1      -0.963   8.653   1.728  0.00  0.00    +0.175 C 
ATOM     15  O   UNL     1      -0.928   8.261   3.103  0.00  0.00    -0.377 OA
ATOM     16  C   UNL     1      -2.033   7.442   3.497  0.00  0.00    +0.175 C 
ATOM     17  C   UNL     1      -2.056   6.178   2.633  0.00  0.00    +0.113 C 
ENDBRANCH   1  12
BRANCH   1  18
ATOM     18  C   UNL     1      -2.623   5.795  -1.057  0.00  0.00    +0.129 C 
BRANCH  18  19
ATOM     19  N   UNL     1      -3.873   6.555  -0.989  0.00  0.00    -0.188 NA
ATOM     20  H   UNL     1      -4.566   6.400  -0.149  0.00  0.00    +0.148 HD
BRANCH  19  21
ATOM     21  S   UNL     1      -4.365   7.458  -2.287  0.00  0.00    +0.059 S 
ATOM     22  O   UNL     1      -5.581   8.087  -1.907  0.00  0.00    -0.153 OA
ATOM     23  O   UNL     1      -3.230   8.194  -2.723  0.00  0.00    -0.153 OA
BRANCH  21  30
ATOM     24  C   UNL     1      -6.569   5.394  -2.128  0.00  0.00    +0.046 C 
ATOM     25  C   UNL     1      -5.790   5.424  -3.418  0.00  0.00    -0.024 A 
ATOM     26  C   UNL     1      -6.106   4.545  -4.437  0.00  0.00    +0.007 A 
ATOM     27  C   UNL     1      -5.388   4.568  -5.618  0.00  0.00    +0.033 A 
ATOM     28  C   UNL     1      -4.357   5.475  -5.782  0.00  0.00    +0.128 A 
ATOM     29  C   UNL     1      -4.045   6.357  -4.765  0.00  0.00    +0.061 A 
ATOM     30  C   UNL     1      -4.763   6.334  -3.584  0.00  0.00    +0.110 A 
BRANCH  28  31
ATOM     31  N   UNL     1      -3.587   5.500  -7.046  0.00  0.00    +0.056 N 
ATOM     32  O   UNL     1      -2.679   6.299  -7.190  0.00  0.00    -0.126 OA
ATOM     33  O   UNL     1      -3.863   4.722  -7.942  0.00  0.00    -0.126 OA
ENDBRANCH  28  31
ENDBRANCH  21  30
ENDBRANCH  19  21
ENDBRANCH  18  19
ENDBRANCH   1  18
TORSDOF 7
