REMARK  Name = ZINC24196110
REMARK  9 active torsions:
REMARK  status: ('A' for Active; 'I' for Inactive)
REMARK    1  A    between atoms: C_1  and  C_2
REMARK    2  A    between atoms: C_5  and  N_9
REMARK    3  A    between atoms: C_7  and  C_8
REMARK    4  A    between atoms: C_10  and  C_31
REMARK    5  A    between atoms: C_13  and  S_14
REMARK    6  A    between atoms: S_14  and  C_15
REMARK    7  A    between atoms: C_15  and  C_17
REMARK    8  A    between atoms: C_15  and  C_18
REMARK    9  A    between atoms: N_20  and  C_21
REMARK                            x       y       z     vdW  Elec       q    Type
REMARK                         _______ _______ _______ _____ _____    ______ ____
ROOT
ATOM      1  N   UNL     1       1.348  -1.506  -1.938  0.00  0.00    -0.270 N 
ATOM      2  C   UNL     1       2.110  -1.232  -3.054  0.00  0.00    +0.169 A 
ATOM      3  N   UNL     1       2.173   0.075  -3.165  0.00  0.00    -0.128 NA
ATOM      4  N   UNL     1       1.510   0.630  -2.214  0.00  0.00    -0.122 NA
ATOM      5  C   UNL     1       0.988  -0.289  -1.430  0.00  0.00    +0.197 A 
ENDROOT
BRANCH   1  10
ATOM      6  C   UNL     1      -0.004  -6.620   0.117  0.00  0.00    +0.044 C 
ATOM      7  C   UNL     1       0.354  -5.262  -0.428  0.00  0.00    -0.047 A 
ATOM      8  C   UNL     1      -0.118  -4.869  -1.667  0.00  0.00    +0.005 A 
ATOM      9  C   UNL     1       0.209  -3.626  -2.170  0.00  0.00    +0.026 A 
ATOM     10  C   UNL     1       1.014  -2.769  -1.430  0.00  0.00    +0.051 A 
ATOM     11  C   UNL     1       1.490  -3.168  -0.189  0.00  0.00    +0.030 A 
ATOM     12  C   UNL     1       1.155  -4.411   0.311  0.00  0.00    -0.046 A 
ATOM     13  C   UNL     1       1.668  -4.843   1.660  0.00  0.00    +0.044 C 
ENDBRANCH   1  10
BRANCH   2  14
ATOM     14  C   UNL     1       2.737  -2.221  -3.954  0.00  0.00    +0.022 A 
ATOM     15  C   UNL     1       2.872  -3.561  -3.569  0.00  0.00    +0.031 A 
ATOM     16  C   UNL     1       3.460  -4.451  -4.442  0.00  0.00    +0.111 A 
ATOM     17  N   UNL     1       3.901  -4.053  -5.621  0.00  0.00    -0.263 NA
ATOM     18  C   UNL     1       3.799  -2.800  -6.021  0.00  0.00    +0.111 A 
ATOM     19  C   UNL     1       3.220  -1.844  -5.213  0.00  0.00    +0.031 A 
ENDBRANCH   2  14
BRANCH   5  20
ATOM     20  S   UNL     1       0.002  -0.004   0.002  0.00  0.00    -0.073 S 
BRANCH  20  21
ATOM     21  C   UNL     1      -0.022   1.806   0.012  0.00  0.00    +0.137 C 
ATOM     22  C   UNL     1      -0.762   2.313  -1.228  0.00  0.00    +0.029 C 
BRANCH  21  23
ATOM     23  C   UNL     1      -0.728   2.292   1.252  0.00  0.00    +0.227 C 
ATOM     24  O   UNL     1      -1.474   1.550   1.855  0.00  0.00    -0.275 OA
ATOM     25  N   UNL     1      -0.530   3.551   1.690  0.00  0.00    -0.309 N 
ATOM     26  H   UNL     1       0.146   4.224   1.143  0.00  0.00    +0.149 HD
BRANCH  25  27
ATOM     27  C   UNL     1      -1.216   4.023   2.895  0.00  0.00    +0.035 C 
ATOM     28  C   UNL     1      -0.814   3.150   4.086  0.00  0.00    +0.029 C 
ATOM     29  C   UNL     1      -1.530   3.644   5.345  0.00  0.00    -0.008 C 
ATOM     30  C   UNL     1      -1.135   5.096   5.620  0.00  0.00    +0.007 C 
ATOM     31  C   UNL     1      -1.536   5.969   4.430  0.00  0.00    -0.008 C 
ATOM     32  C   UNL     1      -0.820   5.475   3.171  0.00  0.00    +0.029 C 
ATOM     33  C   UNL     1      -3.050   5.883   4.222  0.00  0.00    +0.007 C 
ATOM     34  C   UNL     1      -3.445   4.431   3.946  0.00  0.00    -0.008 C 
ATOM     35  C   UNL     1      -3.044   3.558   5.137  0.00  0.00    +0.007 C 
ATOM     36  C   UNL     1      -2.729   3.938   2.688  0.00  0.00    +0.029 C 
ENDBRANCH  25  27
ENDBRANCH  21  23
ENDBRANCH  20  21
ENDBRANCH   5  20
TORSDOF 6
