REMARK  Name = ZINC04592346
REMARK  7 active torsions:
REMARK  status: ('A' for Active; 'I' for Inactive)
REMARK    1  A    between atoms: C_4  and  C_27
REMARK    2  A    between atoms: C_6  and  C_9
REMARK    3  A    between atoms: N_11  and  C_12
REMARK    4  A    between atoms: C_12  and  C_13
REMARK    5  A    between atoms: C_13  and  N_14
REMARK    6  A    between atoms: C_15  and  C_17
REMARK    7  A    between atoms: C_23  and  C_25
REMARK                            x       y       z     vdW  Elec       q    Type
REMARK                         _______ _______ _______ _____ _____    ______ ____
ROOT
ATOM      1  C   UNL     1      -1.395   5.236  -2.217  0.00  0.00    +0.123 C 
ENDROOT
BRANCH   1   4
ATOM      2  C   UNL     1      -0.773   3.099  -1.223  0.00  0.00    +0.217 C 
ATOM      3  O   UNL     1      -0.248   3.708  -0.315  0.00  0.00    -0.275 OA
ATOM      4  N   UNL     1      -1.375   3.771  -2.225  0.00  0.00    -0.314 N 
ATOM      5  H   UNL     1      -1.796   3.284  -2.951  0.00  0.00    +0.149 HD
BRANCH   2  10
ATOM      6  C   UNL     1       1.399   1.629  -2.501  0.00  0.00    +0.001 C 
ATOM      7  C   UNL     1       2.139   1.122  -1.262  0.00  0.00    +0.001 C 
ATOM      8  C   UNL     1       1.423   1.615  -0.003  0.00  0.00    +0.015 C 
ATOM      9  C   UNL     1      -0.013   1.086   0.008  0.00  0.00    +0.114 C 
ATOM     10  C   UNL     1      -0.753   1.593  -1.232  0.00  0.00    +0.089 C 
ATOM     11  C   UNL     1      -0.037   1.099  -2.490  0.00  0.00    +0.013 C 
BRANCH   9  12
ATOM     12  C   UNL     1      -0.718   1.572   1.248  0.00  0.00    +0.360 C 
ATOM     13  O   UNL     1      -1.711   2.254   1.150  0.00  0.00    -0.246 OA
ATOM     14  O   UNL     1      -0.243   1.247   2.461  0.00  0.00    -0.246 OA
ENDBRANCH   9  12
ENDBRANCH   2  10
ENDBRANCH   1   4
BRANCH   1  15
ATOM     15  C   UNL     1      -2.135   5.742  -3.456  0.00  0.00    +0.123 C 
BRANCH  15  16
ATOM     16  N   UNL     1      -2.155   7.207  -3.448  0.00  0.00    -0.314 N 
ATOM     17  C   UNL     1      -2.757   7.879  -4.450  0.00  0.00    +0.217 C 
ATOM     18  O   UNL     1      -3.283   7.270  -5.358  0.00  0.00    -0.275 OA
ATOM     19  H   UNL     1      -1.735   7.694  -2.722  0.00  0.00    +0.149 HD
BRANCH  17  20
ATOM     20  C   UNL     1      -2.778   9.385  -4.441  0.00  0.00    +0.089 C 
ATOM     21  C   UNL     1      -1.343   9.915  -4.452  0.00  0.00    +0.013 C 
ATOM     22  C   UNL     1      -0.626   9.422  -5.711  0.00  0.00    +0.001 C 
ATOM     23  C   UNL     1      -1.366   9.928  -6.951  0.00  0.00    +0.001 C 
ATOM     24  C   UNL     1      -2.802   9.399  -6.940  0.00  0.00    +0.015 C 
ATOM     25  C   UNL     1      -3.518   9.892  -5.681  0.00  0.00    +0.114 C 
BRANCH  25  26
ATOM     26  C   UNL     1      -4.932   9.371  -5.670  0.00  0.00    +0.360 C 
ATOM     27  O   UNL     1      -5.309   8.666  -4.764  0.00  0.00    -0.246 OA
ATOM     28  O   UNL     1      -5.772   9.689  -6.667  0.00  0.00    -0.246 OA
ENDBRANCH  25  26
ENDBRANCH  17  20
ENDBRANCH  15  16
ENDBRANCH   1  15
TORSDOF 7
