REMARK  Name = ZINC39929909
REMARK  4 active torsions:
REMARK  status: ('A' for Active; 'I' for Inactive)
REMARK    1  A    between atoms: C_1  and  C_2
REMARK    2  A    between atoms: C_5  and  N_16
REMARK    3  A    between atoms: C_6  and  N_8
REMARK    4  A    between atoms: N_8  and  C_9
REMARK                            x       y       z     vdW  Elec       q    Type
REMARK                         _______ _______ _______ _____ _____    ______ ____
ROOT
ATOM      1  C   UNL     1       0.277   1.507   0.383  0.00  0.00    +0.065 C 
ATOM      2  C   UNL     1       0.206   0.003   0.302  0.00  0.00    +0.040 A 
ATOM      3  C   UNL     1       0.196  -0.615  -0.936  0.00  0.00    +0.025 A 
ATOM      4  C   UNL     1       0.131  -2.000  -1.005  0.00  0.00    +0.038 A 
ATOM      5  C   UNL     1       0.077  -2.717   0.177  0.00  0.00    +0.166 A 
ATOM      6  C   UNL     1       0.090  -2.029   1.389  0.00  0.00    +0.154 A 
ATOM      7  N   UNL     1       0.158  -0.705   1.412  0.00  0.00    -0.235 NA
ENDROOT
BRANCH   5   8
ATOM      8  N   UNL     1       0.005  -4.196   0.155  0.00  0.00    +0.060 N 
ATOM      9  O   UNL     1      -0.117  -4.832  -0.992  0.00  0.00    -0.126 OA
ATOM     10  O   UNL     1       0.064  -4.875   1.281  0.00  0.00    -0.126 OA
ENDBRANCH   5   8
BRANCH   6  11
ATOM     11  N   UNL     1       0.036  -2.734   2.580  0.00  0.00    -0.296 N 
ATOM     12  H   UNL     1       0.087  -3.703   2.572  0.00  0.00    +0.154 HD
BRANCH  11  13
ATOM     13  C   UNL     1      -0.088  -2.075   3.748  0.00  0.00    +0.064 A 
ATOM     14  C   UNL     1      -0.350  -0.630   3.782  0.00  0.00    +0.027 A 
ATOM     15  C   UNL     1      -0.463  -0.027   4.998  0.00  0.00    +0.019 A 
ATOM     16  C   UNL     1      -0.333  -0.772   6.179  0.00  0.00    +0.083 A 
ATOM     17  N   UNL     1      -0.096  -2.077   6.180  0.00  0.00    -0.354 N 
ATOM     18  C   UNL     1       0.028  -2.779   5.037  0.00  0.00    +0.106 A 
ATOM     19  S   UNL     1       0.326  -4.465   5.082  0.00  0.00    -0.031 S 
ATOM     20  H   UNL     1      -0.015  -2.540   7.028  0.00  0.00    +0.166 HD
ENDBRANCH  11  13
ENDBRANCH   6  11
TORSDOF 3
