REMARK  Name = ZINC20756568
REMARK  6 active torsions:
REMARK  status: ('A' for Active; 'I' for Inactive)
REMARK    1  A    between atoms: C_4  and  C_7
REMARK    2  A    between atoms: C_7  and  N_8
REMARK    3  A    between atoms: N_8  and  S_9
REMARK    4  A    between atoms: S_9  and  C_12
REMARK    5  A    between atoms: C_25  and  C_28
REMARK    6  A    between atoms: C_31  and  N_34
REMARK                            x       y       z     vdW  Elec       q    Type
REMARK                         _______ _______ _______ _____ _____    ______ ____
ROOT
ATOM      1  C   UNL     1      -3.607   3.724   1.317  0.00  0.00    +0.106 A 
ATOM      2  C   UNL     1      -3.333   5.006   1.756  0.00  0.00    +0.030 A 
ATOM      3  C   UNL     1      -2.066   5.532   1.610  0.00  0.00    +0.025 A 
ATOM      4  C   UNL     1      -1.057   4.779   1.022  0.00  0.00    +0.031 A 
ATOM      5  C   UNL     1      -1.344   3.487   0.570  0.00  0.00    -0.018 A 
ATOM      6  C   UNL     1      -2.612   2.968   0.725  0.00  0.00    +0.034 A 
ATOM      7  C   UNL     1      -0.248   2.727  -0.068  0.00  0.00    +0.049 C 
ATOM      8  C   UNL     1      -0.226   1.242  -0.056  0.00  0.00    -0.023 C 
ATOM      9  C   UNL     1       1.038   0.837  -0.032  0.00  0.00    -0.030 C 
ATOM     10  C   UNL     1       1.975   2.047  -0.002  0.00  0.00    +0.033 C 
ATOM     11  C   UNL     1       1.082   3.113   0.647  0.00  0.00    +0.029 C 
ATOM     12  C   UNL     1       1.341   4.559   0.264  0.00  0.00    +0.105 C 
ATOM     13  N   UNL     1       0.226   5.328   0.904  0.00  0.00    -0.336 N 
ATOM     14  H   UNL     1       0.408   6.341   1.291  0.00  0.00    +0.147 HD
ENDROOT
BRANCH  12  15
ATOM     15  C   UNL     1       1.319   4.713  -1.235  0.00  0.00    -0.027 A 
ATOM     16  C   UNL     1       0.139   5.032  -1.880  0.00  0.00    +0.008 A 
ATOM     17  C   UNL     1       0.120   5.178  -3.254  0.00  0.00    +0.033 A 
ATOM     18  C   UNL     1       1.279   4.995  -3.985  0.00  0.00    +0.126 A 
ATOM     19  C   UNL     1       2.459   4.671  -3.340  0.00  0.00    +0.033 A 
ATOM     20  C   UNL     1       2.479   4.531  -1.965  0.00  0.00    +0.008 A 
BRANCH  18  21
ATOM     21  N   UNL     1       1.258   5.146  -5.457  0.00  0.00    +0.056 N 
ATOM     22  O   UNL     1       2.279   4.984  -6.101  0.00  0.00    -0.126 OA
ATOM     23  O   UNL     1       0.219   5.431  -6.025  0.00  0.00    -0.126 OA
ENDBRANCH  18  21
ENDBRANCH  12  15
BRANCH   1  24
ATOM     24  S   UNL     1      -5.225   3.052   1.512  0.00  0.00    +0.059 S 
ATOM     25  O   UNL     1      -5.080   1.638   1.514  0.00  0.00    -0.153 OA
ATOM     26  O   UNL     1      -5.830   3.757   2.587  0.00  0.00    -0.153 OA
BRANCH  24  27
ATOM     27  N   UNL     1      -6.083   3.438   0.149  0.00  0.00    -0.186 NA
ATOM     28  H   UNL     1      -6.840   4.234   0.199  0.00  0.00    +0.148 HD
BRANCH  27  29
ATOM     29  C   UNL     1      -5.687   2.883  -1.148  0.00  0.00    +0.141 C 
BRANCH  29  33
ATOM     30  C   UNL     1      -8.860   3.422  -3.956  0.00  0.00    +0.000 A 
ATOM     31  C   UNL     1      -7.889   4.395  -3.816  0.00  0.00    +0.000 A 
ATOM     32  C   UNL     1      -6.862   4.221  -2.907  0.00  0.00    +0.005 A 
ATOM     33  C   UNL     1      -6.806   3.073  -2.138  0.00  0.00    -0.032 A 
ATOM     34  C   UNL     1      -7.775   2.097  -2.283  0.00  0.00    +0.005 A 
ATOM     35  C   UNL     1      -8.804   2.273  -3.188  0.00  0.00    +0.000 A 
ENDBRANCH  29  33
ENDBRANCH  27  29
ENDBRANCH  24  27
ENDBRANCH   1  24
TORSDOF 6
