REMARK  Name = ZINC16043710
REMARK  4 active torsions:
REMARK  status: ('A' for Active; 'I' for Inactive)
REMARK    1  A    between atoms: C_3  and  S_17
REMARK    2  A    between atoms: C_6  and  N_7
REMARK    3  A    between atoms: C_8  and  C_10
REMARK    4  A    between atoms: S_17  and  N_20
REMARK                            x       y       z     vdW  Elec       q    Type
REMARK                         _______ _______ _______ _____ _____    ______ ____
ROOT
ATOM      1  C   UNL     1      -0.013   1.374   0.194  0.00  0.00    +0.025 A 
ATOM      2  C   UNL     1       1.173   2.082   0.191  0.00  0.00    +0.031 A 
ATOM      3  C   UNL     1       2.374   1.421   0.003  0.00  0.00    +0.113 A 
ATOM      4  C   UNL     1       2.391   0.051  -0.183  0.00  0.00    +0.031 A 
ATOM      5  C   UNL     1       1.208  -0.662  -0.181  0.00  0.00    +0.025 A 
ATOM      6  C   UNL     1       0.001  -0.002   0.007  0.00  0.00    +0.034 A 
ENDROOT
BRANCH   6   7
ATOM      7  N   UNL     1      -1.199  -0.721   0.010  0.00  0.00    -0.281 N 
ATOM      8  C   UNL     1      -2.324  -0.156  -0.469  0.00  0.00    +0.250 C 
ATOM      9  O   UNL     1      -2.279   0.941  -0.991  0.00  0.00    -0.270 OA
ATOM     10  H   UNL     1      -1.220  -1.627   0.357  0.00  0.00    +0.155 HD
BRANCH   8  11
ATOM     11  C   UNL     1      -3.611  -0.868  -0.360  0.00  0.00    +0.053 A 
ATOM     12  C   UNL     1      -3.671  -2.144   0.252  0.00  0.00    +0.020 A 
ATOM     13  C   UNL     1      -4.870  -2.778   0.339  0.00  0.00    +0.071 A 
ATOM     14  C   UNL     1      -6.022  -2.156  -0.178  0.00  0.00    +0.249 A 
ATOM     15  N   UNL     1      -5.942  -0.943  -0.756  0.00  0.00    -0.328 N 
ATOM     16  C   UNL     1      -4.767  -0.294  -0.849  0.00  0.00    +0.099 A 
ATOM     17  O   UNL     1      -7.101  -2.720  -0.103  0.00  0.00    -0.268 OA
ATOM     18  H   UNL     1      -6.746  -0.528  -1.108  0.00  0.00    +0.168 HD
ENDBRANCH   8  11
ENDBRANCH   6   7
BRANCH   3  19
ATOM     19  S   UNL     1       3.885   2.327   0.001  0.00  0.00    +0.100 S 
ATOM     20  O   UNL     1       4.821   1.554  -0.738  0.00  0.00    -0.146 OA
ATOM     21  O   UNL     1       3.556   3.664  -0.350  0.00  0.00    -0.146 OA
BRANCH  19  22
ATOM     22  N   UNL     1       4.434   2.369   1.562  0.00  0.00    -0.118 NA
ATOM     23  C   UNL     1       5.538   2.979   1.844  0.00  0.00    +0.117 C 
ATOM     24  N   UNL     1       6.289   3.619   0.845  0.00  0.00    -0.331 N 
ATOM     25  C   UNL     1       6.354   5.051   0.892  0.00  0.00    +0.102 C 
ATOM     26  C   UNL     1       7.493   5.642   1.739  0.00  0.00    +0.019 C 
ATOM     27  C   UNL     1       7.654   4.847   3.059  0.00  0.00    +0.002 C 
ATOM     28  C   UNL     1       6.339   4.457   3.674  0.00  0.00    +0.008 C 
ATOM     29  C   UNL     1       6.041   3.031   3.200  0.00  0.00    +0.073 C 
ATOM     30  H   UNL     1       6.744   3.115   0.153  0.00  0.00    +0.147 HD
ENDBRANCH  19  22
ENDBRANCH   3  19
TORSDOF 4
