REMARK  Name = ZINC40985409
REMARK  13 active torsions:
REMARK  status: ('A' for Active; 'I' for Inactive)
REMARK    1  A    between atoms: C_1  and  C_2
REMARK    2  A    between atoms: C_3  and  C_16
REMARK    3  A    between atoms: C_5  and  C_7
REMARK    4  A    between atoms: C_12  and  O_13
REMARK    5  A    between atoms: O_13  and  C_14
REMARK    6  A    between atoms: C_16  and  N_17
REMARK    7  A    between atoms: C_20  and  C_23
REMARK    8  A    between atoms: N_25  and  C_26
REMARK    9  A    between atoms: C_26  and  C_28
REMARK   10  A    between atoms: C_26  and  C_29
REMARK   11  A    between atoms: C_29  and  C_30
REMARK   12  A    between atoms: C_30  and  C_31
REMARK   13  A    between atoms: C_30  and  C_32
REMARK                            x       y       z     vdW  Elec       q    Type
REMARK                         _______ _______ _______ _____ _____    ______ ____
ROOT
ATOM      1  N   UNL     1      -2.673  -0.247  -1.573  0.00  0.00    +0.383 N 
ATOM      2  C   UNL     1      -2.648  -1.534  -2.278  0.00  0.00    -0.078 C 
ATOM      3  C   UNL     1      -3.149  -1.344  -3.711  0.00  0.00    -0.006 C 
ATOM      4  C   UNL     1      -4.582  -0.805  -3.678  0.00  0.00    +0.071 C 
ATOM      5  C   UNL     1      -4.609   0.499  -2.877  0.00  0.00    -0.006 C 
ATOM      6  C   UNL     1      -4.053   0.241  -1.474  0.00  0.00    -0.078 C 
ATOM      7  H   UNL     1      -2.116   0.424  -2.081  0.00  0.00    -0.081 HD
ENDROOT
BRANCH   4   8
ATOM      8  C   UNL     1      -5.055  -0.542  -5.085  0.00  0.00    +0.216 C 
ATOM      9  O   UNL     1      -4.318  -0.763  -6.023  0.00  0.00    -0.276 OA
ATOM     10  N   UNL     1      -6.295  -0.061  -5.300  0.00  0.00    -0.312 N 
ATOM     11  H   UNL     1      -6.884   0.116  -4.550  0.00  0.00    +0.149 HD
BRANCH  10  12
ATOM     12  C   UNL     1      -6.754   0.195  -6.668  0.00  0.00    +0.070 C 
ATOM     13  C   UNL     1      -7.309  -1.098  -7.270  0.00  0.00    +0.028 C 
BRANCH  12  14
ATOM     14  C   UNL     1      -7.852   1.260  -6.646  0.00  0.00    +0.025 C 
BRANCH  14  15
ATOM     15  C   UNL     1      -7.265   2.588  -6.164  0.00  0.00    -0.015 C 
ATOM     16  C   UNL     1      -6.250   3.100  -7.189  0.00  0.00    +0.007 C 
ATOM     17  C   UNL     1      -8.388   3.614  -6.002  0.00  0.00    +0.007 C 
ENDBRANCH  14  15
ENDBRANCH  12  14
ENDBRANCH  10  12
ENDBRANCH   4   8
BRANCH   1  18
ATOM     18  C   UNL     1      -2.118  -0.419  -0.223  0.00  0.00    -0.019 C 
BRANCH  18  21
ATOM     19  C   UNL     1       0.306   1.553  -0.299  0.00  0.00    +0.088 C 
ATOM     20  C   UNL     1       0.378   0.049  -0.355  0.00  0.00    +0.124 A 
ATOM     21  C   UNL     1      -0.664  -0.801  -0.323  0.00  0.00    +0.066 A 
ATOM     22  N   UNL     1      -0.178  -2.050  -0.395  0.00  0.00    -0.216 NA
ATOM     23  C   UNL     1       1.131  -1.988  -0.470  0.00  0.00    +0.231 A 
ATOM     24  O   UNL     1       1.499  -0.695  -0.452  0.00  0.00    -0.440 OA
BRANCH  23  25
ATOM     25  C   UNL     1       2.046  -3.143  -0.565  0.00  0.00    +0.079 A 
ATOM     26  C   UNL     1       1.535  -4.442  -0.585  0.00  0.00    +0.032 A 
ATOM     27  C   UNL     1       2.395  -5.518  -0.673  0.00  0.00    +0.019 A 
ATOM     28  C   UNL     1       3.763  -5.314  -0.741  0.00  0.00    +0.019 A 
ATOM     29  C   UNL     1       4.280  -4.032  -0.722  0.00  0.00    +0.047 A 
ATOM     30  C   UNL     1       3.429  -2.942  -0.640  0.00  0.00    +0.132 A 
ATOM     31 BR   UNL     1       1.702  -7.277  -0.701  0.00  0.00    -0.050 Br
BRANCH  30  32
ATOM     32  O   UNL     1       3.936  -1.682  -0.626  0.00  0.00    -0.494 OA
ATOM     33  C   UNL     1       5.357  -1.553  -0.706  0.00  0.00    +0.277 C 
ENDBRANCH  30  32
ENDBRANCH  23  25
ENDBRANCH  18  21
ENDBRANCH   1  18
TORSDOF 8
