REMARK  Name = ZINC09789019
REMARK  12 active torsions:
REMARK  status: ('A' for Active; 'I' for Inactive)
REMARK    1  A    between atoms: C_1  and  C_2
REMARK    2  A    between atoms: C_3  and  C_33
REMARK    3  A    between atoms: C_4  and  C_32
REMARK    4  A    between atoms: C_7  and  C_8
REMARK    5  A    between atoms: C_8  and  C_10
REMARK    6  A    between atoms: C_10  and  S_11
REMARK    7  A    between atoms: S_11  and  C_12
REMARK    8  A    between atoms: C_15  and  C_24
REMARK    9  A    between atoms: N_16  and  C_17
REMARK   10  A    between atoms: C_24  and  C_26
REMARK   11  A    between atoms: C_24  and  N_64
REMARK   12  A    between atoms: C_33  and  C_35
REMARK                            x       y       z     vdW  Elec       q    Type
REMARK                         _______ _______ _______ _____ _____    ______ ____
ROOT
ATOM      1  C   UNL     1      -0.079   0.202   1.205  0.00  0.00    +0.196 A 
ATOM      2  N   UNL     1      -0.118   1.507   1.068  0.00  0.00    -0.122 NA
ATOM      3  N   UNL     1       1.060   1.999   1.222  0.00  0.00    -0.135 NA
ATOM      4  C   UNL     1       1.915   1.047   1.464  0.00  0.00    +0.125 A 
ATOM      5  N   UNL     1       1.222  -0.134   1.463  0.00  0.00    -0.275 N 
ENDROOT
BRANCH   5   6
ATOM      6  C   UNL     1       1.738  -1.421   1.680  0.00  0.00    +0.050 A 
ATOM      7  C   UNL     1       2.280  -1.753   2.914  0.00  0.00    +0.029 A 
ATOM      8  C   UNL     1       2.783  -3.022   3.127  0.00  0.00    +0.040 A 
ATOM      9  C   UNL     1       2.757  -3.958   2.107  0.00  0.00    +0.124 A 
ATOM     10  C   UNL     1       2.222  -3.627   0.874  0.00  0.00    +0.040 A 
ATOM     11  C   UNL     1       1.713  -2.361   0.659  0.00  0.00    +0.029 A 
ATOM     12  F   UNL     1       3.255  -5.197   2.316  0.00  0.00    -0.205 F 
ENDBRANCH   5   6
BRANCH   4  13
ATOM     13  C   UNL     1       3.394   1.214   1.703  0.00  0.00    -0.002 C 
ATOM     14  C   UNL     1       3.624   1.777   3.107  0.00  0.00    -0.005 C 
BRANCH  13  20
ATOM     15  C   UNL     1       3.659   1.683  -0.658  0.00  0.00    -0.078 C 
ATOM     16  C   UNL     1       4.122   2.741  -1.662  0.00  0.00    -0.019 C 
ATOM     17  C   UNL     1       5.625   2.977  -1.491  0.00  0.00    -0.004 C 
ATOM     18  C   UNL     1       5.906   3.406  -0.048  0.00  0.00    -0.019 C 
ATOM     19  C   UNL     1       5.391   2.329   0.909  0.00  0.00    -0.078 C 
ATOM     20  N   UNL     1       3.935   2.167   0.712  0.00  0.00    +0.386 N 
ATOM     21  H   UNL     1       3.478   3.078   0.841  0.00  0.00    -0.081 HD
ENDBRANCH  13  20
ENDBRANCH   4  13
BRANCH   1  22
ATOM     22  S   UNL     1      -1.443  -0.906   1.080  0.00  0.00    -0.078 S 
BRANCH  22  23
ATOM     23  C   UNL     1      -2.773   0.271   0.734  0.00  0.00    +0.158 C 
BRANCH  23  24
ATOM     24  C   UNL     1      -4.075  -0.473   0.584  0.00  0.00    +0.190 C 
ATOM     25  O   UNL     1      -4.101  -1.681   0.699  0.00  0.00    -0.290 OA
BRANCH  24  32
ATOM     26  C   UNL     1      -6.871  -1.779   0.220  0.00  0.00    +0.047 C 
ATOM     27  C   UNL     1      -6.519  -0.316   0.141  0.00  0.00    -0.012 A 
ATOM     28  C   UNL     1      -7.408   0.752  -0.114  0.00  0.00    +0.041 A 
ATOM     29  C   UNL     1      -6.658   1.919  -0.101  0.00  0.00    +0.024 A 
ATOM     30  N   UNL     1      -5.380   1.604   0.151  0.00  0.00    -0.355 N 
ATOM     31  H   UNL     1      -4.648   2.238   0.214  0.00  0.00    +0.166 HD
ATOM     32  C   UNL     1      -5.269   0.237   0.307  0.00  0.00    +0.087 A 
ATOM     33  C   UNL     1      -7.191   3.310  -0.332  0.00  0.00    +0.064 C 
BRANCH  28  34
ATOM     34  C   UNL     1      -8.851   0.647  -0.353  0.00  0.00    +0.162 C 
ATOM     35  O   UNL     1      -9.274   0.570  -1.487  0.00  0.00    -0.292 OA
ATOM     36  C   UNL     1      -9.809   0.635   0.811  0.00  0.00    +0.091 C 
ENDBRANCH  28  34
ENDBRANCH  24  32
ENDBRANCH  23  24
ENDBRANCH  22  23
ENDBRANCH   1  22
TORSDOF 8
