REMARK  Name = ZINC64622858
REMARK  2 active torsions:
REMARK  status: ('A' for Active; 'I' for Inactive)
REMARK    1  A    between atoms: C_5  and  C_7
REMARK    2  A    between atoms: N_24  and  C_25
REMARK                            x       y       z     vdW  Elec       q    Type
REMARK                         _______ _______ _______ _____ _____    ______ ____
ROOT
ATOM      1  C   UNL     1       0.966  -1.585   0.348  0.00  0.00    +0.137 C 
ATOM      2  C   UNL     1       1.389  -2.006  -1.063  0.00  0.00    +0.131 C 
ATOM      3  C   UNL     1       0.123  -2.027  -1.910  0.00  0.00    -0.035 C 
ATOM      4  C   UNL     1       0.347  -1.221  -2.941  0.00  0.00    -0.001 A 
ATOM      5  C   UNL     1      -0.467  -0.890  -4.121  0.00  0.00    +0.010 A 
ATOM      6  C   UNL     1       0.075   0.001  -4.993  0.00  0.00    +0.001 A 
ATOM      7  C   UNL     1       1.331   0.588  -4.811  0.00  0.00    +0.002 A 
ATOM      8  C   UNL     1       2.149   0.339  -3.758  0.00  0.00    +0.026 A 
ATOM      9  C   UNL     1       1.690  -0.586  -2.775  0.00  0.00    +0.043 A 
ATOM     10  N   UNL     1       2.284  -1.025  -1.679  0.00  0.00    -0.375 N 
ATOM     11  C   UNL     1      -1.112  -2.792  -1.502  0.00  0.00    +0.052 C 
ATOM     12  C   UNL     1      -1.425  -2.388  -0.050  0.00  0.00    +0.114 C 
ATOM     13  N   UNL     1      -0.187  -2.411   0.740  0.00  0.00    -0.276 N 
ATOM     14  C   UNL     1      -0.105  -3.196   1.832  0.00  0.00    +0.307 C 
ATOM     15  O   UNL     1       0.873  -3.135   2.552  0.00  0.00    -0.252 OA
ATOM     16  N   UNL     1      -1.107  -4.049   2.126  0.00  0.00    -0.269 N 
ATOM     17  H   UNL     1      -1.847  -4.158   1.509  0.00  0.00    +0.156 HD
ATOM     18  H   UNL     1       3.148  -0.750  -1.334  0.00  0.00    +0.160 HD
ENDROOT
BRANCH  16  19
ATOM     19  C   UNL     1      -1.078  -4.777   3.322  0.00  0.00    +0.038 A 
ATOM     20  C   UNL     1       0.130  -5.006   3.967  0.00  0.00    +0.027 A 
ATOM     21  C   UNL     1       0.159  -5.726   5.146  0.00  0.00    +0.051 A 
ATOM     22  C   UNL     1      -1.018  -6.221   5.690  0.00  0.00    +0.162 A 
ATOM     23  C   UNL     1      -2.229  -5.991   5.048  0.00  0.00    +0.164 A 
ATOM     24  C   UNL     1      -2.257  -5.266   3.866  0.00  0.00    +0.072 A 
ATOM     25  O   UNL     1      -3.394  -6.462   5.569  0.00  0.00    -0.485 OA
ATOM     26  C   UNL     1      -3.287  -7.495   6.555  0.00  0.00    +0.270 C 
ATOM     27  C   UNL     1      -2.202  -7.088   7.561  0.00  0.00    +0.270 C 
ATOM     28  O   UNL     1      -0.969  -6.931   6.851  0.00  0.00    -0.485 OA
ENDBRANCH  16  19
BRANCH   1  33
ATOM     29  C   UNL     1      -0.929   1.615  -0.307  0.00  0.00    +0.000 A 
ATOM     30  C   UNL     1      -0.144   2.542   0.352  0.00  0.00    +0.003 A 
ATOM     31  C   UNL     1       1.001   2.135   1.010  0.00  0.00    +0.039 A 
ATOM     32  C   UNL     1       1.361   0.798   1.010  0.00  0.00    +0.128 A 
ATOM     33  C   UNL     1       0.574  -0.129   0.350  0.00  0.00    +0.010 A 
ATOM     34  C   UNL     1      -0.570   0.280  -0.308  0.00  0.00    +0.008 A 
ATOM     35  F   UNL     1       2.481   0.400   1.653  0.00  0.00    -0.205 F 
ENDBRANCH   1  33
TORSDOF 2
