REMARK  Name = ZINC06631284
REMARK  11 active torsions:
REMARK  status: ('A' for Active; 'I' for Inactive)
REMARK    1  A    between atoms: C_1  and  C_2
REMARK    2  A    between atoms: C_2  and  O_3
REMARK    3  A    between atoms: O_3  and  C_4
REMARK    4  A    between atoms: C_10  and  O_31
REMARK    5  A    between atoms: C_11  and  C_14
REMARK    6  A    between atoms: C_16  and  C_29
REMARK    7  A    between atoms: C_17  and  N_28
REMARK    8  A    between atoms: C_24  and  C_26
REMARK    9  A    between atoms: C_24  and  C_27
REMARK   10  A    between atoms: O_31  and  C_32
REMARK   11  A    between atoms: C_32  and  C_33
REMARK                            x       y       z     vdW  Elec       q    Type
REMARK                         _______ _______ _______ _____ _____    ______ ____
ROOT
ATOM      1  C   UNL     1      -2.026   2.474   5.976  0.00  0.00    +0.105 C 
ATOM      2  C   UNL     1      -3.167   1.700   6.573  0.00  0.00    +0.098 C 
ATOM      3  C   UNL     1      -3.563   1.935   7.848  0.00  0.00    +0.198 C 
ATOM      4  O   UNL     1      -2.952   2.854   8.611  0.00  0.00    -0.445 OA
ATOM      5  C   UNL     1      -2.246   3.844   8.033  0.00  0.00    +0.115 C 
ATOM      6  C   UNL     1      -1.777   3.730   6.777  0.00  0.00    +0.046 C 
ATOM      7  C   UNL     1      -1.046   4.769   6.170  0.00  0.00    +0.164 C 
ATOM      8  O   UNL     1      -0.626   4.622   5.040  0.00  0.00    -0.292 OA
ATOM      9  C   UNL     1      -0.776   6.059   6.897  0.00  0.00    +0.086 C 
ATOM     10  C   UNL     1      -1.903   6.303   7.907  0.00  0.00    -0.021 C 
ATOM     11  C   UNL     1      -1.987   5.094   8.841  0.00  0.00    +0.081 C 
ATOM     12  C   UNL     1      -3.230   6.473   7.166  0.00  0.00    +0.012 C 
ATOM     13  C   UNL     1      -1.604   7.563   8.722  0.00  0.00    +0.012 C 
ENDROOT
BRANCH   1  21
ATOM     14  C   UNL     1      -0.055   1.319   2.383  0.00  0.00    +0.121 A 
ATOM     15  C   UNL     1       1.093   0.521   2.412  0.00  0.00    +0.046 A 
ATOM     16  C   UNL     1       1.623   0.100   3.592  0.00  0.00    +0.012 A 
ATOM     17  C   UNL     1       1.003   0.459   4.802  0.00  0.00    -0.017 A 
ATOM     18  C   UNL     1       1.521   0.035   6.038  0.00  0.00    +0.012 A 
ATOM     19  C   UNL     1       0.898   0.399   7.191  0.00  0.00    +0.046 A 
ATOM     20  C   UNL     1      -0.254   1.192   7.167  0.00  0.00    +0.125 A 
ATOM     21  C   UNL     1      -0.784   1.621   5.984  0.00  0.00    +0.015 A 
ATOM     22  C   UNL     1      -0.165   1.263   4.775  0.00  0.00    -0.007 A 
ATOM     23  C   UNL     1      -0.682   1.686   3.539  0.00  0.00    +0.054 A 
BRANCH  14  24
ATOM     24  O   UNL     1      -0.557   1.728   1.189  0.00  0.00    -0.492 OA
BRANCH  24  26
ATOM     25  C   UNL     1      -0.565   1.866  -1.224  0.00  0.00    +0.048 C 
ATOM     26  C   UNL     1       0.143   1.312   0.014  0.00  0.00    +0.225 C 
ENDBRANCH  24  26
ENDBRANCH  14  24
BRANCH  20  27
ATOM     27  O   UNL     1      -0.853   1.539   8.336  0.00  0.00    -0.492 OA
BRANCH  27  28
ATOM     28  C   UNL     1      -0.253   1.060   9.541  0.00  0.00    +0.225 C 
ATOM     29  C   UNL     1      -1.062   1.549  10.744  0.00  0.00    +0.048 C 
ENDBRANCH  27  28
ENDBRANCH  20  27
ENDBRANCH   1  21
BRANCH   3  30
ATOM     30  N   UNL     1      -4.611   1.218   8.369  0.00  0.00    -0.328 N 
ATOM     31  H   UNL     1      -5.060   0.551   7.826  0.00  0.00    +0.145 HD
ATOM     32  H   UNL     1      -4.903   1.379   9.280  0.00  0.00    +0.145 HD
ENDBRANCH   3  30
BRANCH   2  33
ATOM     33  C   UNL     1      -3.840   0.706   5.791  0.00  0.00    +0.101 C 
ATOM     34  N   UNL     1      -4.373  -0.082   5.171  0.00  0.00    -0.191 NA
ENDBRANCH   2  33
TORSDOF 7
