REMARK  Name = ZINC59037204
REMARK  9 active torsions:
REMARK  status: ('A' for Active; 'I' for Inactive)
REMARK    1  A    between atoms: C_1  and  C_2
REMARK    2  A    between atoms: C_2  and  C_3
REMARK    3  A    between atoms: C_2  and  C_4
REMARK    4  A    between atoms: C_2  and  N_23
REMARK    5  A    between atoms: C_4  and  N_5
REMARK    6  A    between atoms: N_8  and  C_9
REMARK    7  A    between atoms: C_9  and  C_10
REMARK    8  A    between atoms: C_10  and  C_12
REMARK    9  A    between atoms: C_10  and  N_17
REMARK                            x       y       z     vdW  Elec       q    Type
REMARK                         _______ _______ _______ _____ _____    ______ ____
ROOT
ATOM      1  N   UNL     1      -1.328  -1.592  -0.424  0.00  0.00    -0.301 N 
ATOM      2  C   UNL     1      -2.320  -2.182  -1.120  0.00  0.00    +0.300 C 
ATOM      3  O   UNL     1      -3.182  -1.504  -1.645  0.00  0.00    -0.253 OA
ATOM      4  N   UNL     1      -2.357  -3.525  -1.235  0.00  0.00    -0.301 N 
ATOM      5  H   UNL     1      -0.641  -2.133  -0.006  0.00  0.00    +0.150 HD
ATOM      6  H   UNL     1      -1.669  -4.066  -0.816  0.00  0.00    +0.150 HD
ENDROOT
BRANCH   1   7
ATOM      7  C   UNL     1      -1.289  -0.133  -0.300  0.00  0.00    +0.093 C 
BRANCH   7   9
ATOM      8  C   UNL     1       1.207  -0.090  -0.404  0.00  0.00    -0.008 C 
ATOM      9  C   UNL     1      -0.015   0.282   0.439  0.00  0.00    -0.055 C 
ATOM     10  C   UNL     1      -0.031   1.794   0.674  0.00  0.00    -0.008 C 
BRANCH   9  11
ATOM     11  N   UNL     1       0.051  -0.414   1.730  0.00  0.00    +0.384 N 
ATOM     12  C   UNL     1      -1.122  -0.057   2.538  0.00  0.00    -0.078 C 
ATOM     13  C   UNL     1      -1.100  -0.841   3.851  0.00  0.00    -0.019 C 
ATOM     14  C   UNL     1       0.177  -0.498   4.623  0.00  0.00    -0.004 C 
ATOM     15  C   UNL     1       1.392  -0.806   3.743  0.00  0.00    -0.019 C 
ATOM     16  C   UNL     1       1.278  -0.022   2.434  0.00  0.00    -0.078 C 
ATOM     17  H   UNL     1       0.058  -1.411   1.574  0.00  0.00    -0.081 HD
ENDBRANCH   9  11
ENDBRANCH   7   9
ENDBRANCH   1   7
BRANCH   4  18
ATOM     18  C   UNL     1      -3.434  -4.167  -1.991  0.00  0.00    +0.098 C 
BRANCH  18  19
ATOM     19  C   UNL     1      -3.170  -5.671  -2.079  0.00  0.00    +0.016 C 
BRANCH  19  20
ATOM     20  N   UNL     1      -1.842  -5.902  -2.661  0.00  0.00    +0.387 N 
ATOM     21  C   UNL     1      -1.756  -5.229  -3.963  0.00  0.00    -0.078 C 
ATOM     22  C   UNL     1      -0.348  -5.398  -4.537  0.00  0.00    -0.019 C 
ATOM     23  C   UNL     1      -0.049  -6.890  -4.711  0.00  0.00    -0.004 C 
ATOM     24  C   UNL     1      -0.214  -7.594  -3.361  0.00  0.00    -0.019 C 
ATOM     25  C   UNL     1      -1.627  -7.344  -2.831  0.00  0.00    -0.078 C 
ATOM     26  H   UNL     1      -1.136  -5.528  -2.045  0.00  0.00    -0.081 HD
ENDBRANCH  19  20
BRANCH  19  27
ATOM     27  C   UNL     1      -4.219  -6.315  -2.949  0.00  0.00    +0.093 A 
ATOM     28  C   UNL     1      -5.210  -7.119  -2.522  0.00  0.00    +0.043 A 
ATOM     29  C   UNL     1      -5.954  -7.494  -3.664  0.00  0.00    +0.041 A 
ATOM     30  C   UNL     1      -5.373  -6.898  -4.721  0.00  0.00    +0.195 A 
ATOM     31  O   UNL     1      -4.326  -6.180  -4.280  0.00  0.00    -0.469 OA
ENDBRANCH  19  27
ENDBRANCH  18  19
ENDBRANCH   4  18
TORSDOF 7
