REMARK  Name = ZINC12707527
REMARK  8 active torsions:
REMARK  status: ('A' for Active; 'I' for Inactive)
REMARK    1  A    between atoms: C_1  and  C_2
REMARK    2  A    between atoms: C_2  and  O_3
REMARK    3  A    between atoms: O_3  and  C_4
REMARK    4  A    between atoms: C_10  and  C_21
REMARK    5  A    between atoms: C_13  and  C_15
REMARK    6  A    between atoms: C_24  and  C_27
REMARK    7  A    between atoms: C_30  and  O_33
REMARK    8  A    between atoms: O_33  and  C_34
REMARK                            x       y       z     vdW  Elec       q    Type
REMARK                         _______ _______ _______ _____ _____    ______ ____
ROOT
ATOM      1  C   UNL     1       3.706  -4.979   0.453  0.00  0.00    +0.121 A 
ATOM      2  C   UNL     1       3.883  -6.134  -0.293  0.00  0.00    +0.048 A 
ATOM      3  C   UNL     1       2.815  -6.691  -0.968  0.00  0.00    +0.032 A 
ATOM      4  C   UNL     1       1.547  -6.103  -0.909  0.00  0.00    +0.075 A 
ATOM      5  C   UNL     1       1.366  -4.941  -0.157  0.00  0.00    +0.031 A 
ATOM      6  C   UNL     1       2.454  -4.386   0.524  0.00  0.00    +0.057 A 
ATOM      7  C   UNL     1       0.060  -4.255  -0.021  0.00  0.00    +0.098 C 
ATOM      8  N   UNL     1      -1.063  -4.885   0.086  0.00  0.00    -0.180 NA
ATOM      9  N   UNL     1      -1.114  -6.282  -0.017  0.00  0.00    -0.220 N 
ATOM     10  C   UNL     1      -0.673  -6.858  -1.198  0.00  0.00    +0.147 C 
ATOM     11  N   UNL     1       0.546  -6.713  -1.613  0.00  0.00    -0.230 NA
ATOM     12  H   UNL     1      -1.446  -6.827   0.714  0.00  0.00    +0.176 HD
ENDROOT
BRANCH  10  13
ATOM     13  C   UNL     1      -1.617  -7.656  -2.005  0.00  0.00    +0.034 A 
ATOM     14  C   UNL     1      -2.942  -7.832  -1.585  0.00  0.00    +0.014 A 
ATOM     15  C   UNL     1      -3.785  -8.590  -2.377  0.00  0.00    +0.020 A 
ATOM     16  C   UNL     1      -3.299  -9.144  -3.548  0.00  0.00    +0.111 A 
ATOM     17  N   UNL     1      -2.046  -8.961  -3.920  0.00  0.00    -0.263 NA
ATOM     18  C   UNL     1      -1.206  -8.244  -3.203  0.00  0.00    +0.122 A 
ENDBRANCH  10  13
BRANCH   7  19
ATOM     19  C   UNL     1       0.040  -2.776  -0.013  0.00  0.00    +0.003 A 
ATOM     20  C   UNL     1      -1.025  -2.095   0.581  0.00  0.00    +0.011 A 
ATOM     21  C   UNL     1      -1.043  -0.719   0.588  0.00  0.00    +0.009 A 
ATOM     22  C   UNL     1       0.003  -0.004   0.002  0.00  0.00    -0.018 A 
ATOM     23  C   UNL     1       1.064  -0.684  -0.597  0.00  0.00    +0.009 A 
ATOM     24  C   UNL     1       1.086  -2.060  -0.600  0.00  0.00    +0.011 A 
BRANCH  22  25
ATOM     25  C   UNL     1      -0.017   1.478   0.010  0.00  0.00    -0.018 A 
ATOM     26  C   UNL     1      -1.083   2.159   0.598  0.00  0.00    +0.012 A 
ATOM     27  C   UNL     1      -1.096   3.538   0.607  0.00  0.00    +0.046 A 
ATOM     28  C   UNL     1      -0.055   4.248   0.024  0.00  0.00    +0.120 A 
ATOM     29  C   UNL     1       1.005   3.573  -0.566  0.00  0.00    +0.046 A 
ATOM     30  C   UNL     1       1.026   2.194  -0.575  0.00  0.00    +0.012 A 
BRANCH  28  31
ATOM     31  O   UNL     1      -0.073   5.607   0.031  0.00  0.00    -0.495 OA
ATOM     32  C   UNL     1      -1.194   6.237   0.656  0.00  0.00    +0.277 C 
ENDBRANCH  28  31
ENDBRANCH  22  25
ENDBRANCH   7  19
BRANCH   1  33
ATOM     33  O   UNL     1       4.758  -4.428   1.115  0.00  0.00    -0.492 OA
BRANCH  33  35
ATOM     34  C   UNL     1       7.072  -4.331   1.803  0.00  0.00    +0.048 C 
ATOM     35  C   UNL     1       6.018  -5.092   0.997  0.00  0.00    +0.225 C 
ENDBRANCH  33  35
ENDBRANCH   1  33
TORSDOF 6
