REMARK  Name = ZINC01973065
REMARK  8 active torsions:
REMARK  status: ('A' for Active; 'I' for Inactive)
REMARK    1  A    between atoms: C_1  and  C_2
REMARK    2  A    between atoms: C_2  and  C_3
REMARK    3  A    between atoms: C_3  and  C_5
REMARK    4  A    between atoms: C_3  and  S_9
REMARK    5  A    between atoms: C_5  and  O_7
REMARK    6  A    between atoms: O_7  and  C_8
REMARK    7  A    between atoms: S_9  and  C_10
REMARK    8  A    between atoms: C_22  and  C_26
REMARK                            x       y       z     vdW  Elec       q    Type
REMARK                         _______ _______ _______ _____ _____    ______ ____
ROOT
ATOM      1  C   UNL     1       3.779  -1.156   0.039  0.00  0.00    +0.171 A 
ATOM      2  N   UNL     1       4.335   0.086   0.099  0.00  0.00    -0.301 N 
ATOM      3  H   UNL     1       5.330   0.161   0.163  0.00  0.00    +0.171 HD
ATOM      4  C   UNL     1       3.601   1.223   0.078  0.00  0.00    +0.261 A 
ATOM      5  O   UNL     1       4.116   2.327   0.132  0.00  0.00    -0.267 OA
ATOM      6  C   UNL     1       2.181   1.050  -0.014  0.00  0.00    +0.075 A 
ATOM      7  C   UNL     1       1.179   2.103  -0.053  0.00  0.00    -0.023 A 
ATOM      8  C   UNL     1      -0.112   1.708  -0.141  0.00  0.00    -0.004 A 
ATOM      9  S   UNL     1      -0.055  -0.066  -0.175  0.00  0.00    -0.073 S 
ATOM     10  C   UNL     1       1.694  -0.275  -0.072  0.00  0.00    +0.117 A 
ATOM     11  N   UNL     1       2.470  -1.352  -0.047  0.00  0.00    -0.216 NA
ATOM     12  C   UNL     1      -1.326   2.583  -0.203  0.00  0.00    +0.046 C 
ATOM     13  C   UNL     1      -0.878   4.018  -0.512  0.00  0.00    -0.009 C 
ATOM     14  C   UNL     1       0.292   4.378   0.408  0.00  0.00    +0.008 C 
ATOM     15  C   UNL     1       1.534   3.586   0.002  0.00  0.00    +0.037 C 
ATOM     16  C   UNL     1      -2.040   4.983  -0.268  0.00  0.00    +0.008 C 
ENDROOT
BRANCH   1  17
ATOM     17  S   UNL     1       4.843  -2.560   0.075  0.00  0.00    -0.073 S 
BRANCH  17  18
ATOM     18  C   UNL     1       3.611  -3.886   0.105  0.00  0.00    +0.162 C 
BRANCH  18  20
ATOM     19  C   UNL     1       4.915  -5.222   1.766  0.00  0.00    +0.005 C 
ATOM     20  C   UNL     1       4.309  -5.224   0.362  0.00  0.00    +0.022 C 
ENDBRANCH  18  20
BRANCH  18  21
ATOM     21  C   UNL     1       2.897  -3.939  -1.220  0.00  0.00    +0.320 C 
ATOM     22  O   UNL     1       3.438  -3.519  -2.215  0.00  0.00    -0.250 OA
BRANCH  21  23
ATOM     23  O   UNL     1       1.659  -4.452  -1.296  0.00  0.00    -0.467 OA
ATOM     24  C   UNL     1       1.031  -4.470  -2.605  0.00  0.00    +0.280 C 
ENDBRANCH  21  23
ENDBRANCH  18  21
ENDBRANCH  17  18
ENDBRANCH   1  17
TORSDOF 5
