REMARK  Name = ZINC13719175
REMARK  6 active torsions:
REMARK  status: ('A' for Active; 'I' for Inactive)
REMARK    1  A    between atoms: C_6  and  S_7
REMARK    2  A    between atoms: S_7  and  N_10
REMARK    3  A    between atoms: N_10  and  C_11
REMARK    4  A    between atoms: C_11  and  C_12
REMARK    5  A    between atoms: C_15  and  C_18
REMARK    6  A    between atoms: C_23  and  C_26
REMARK                            x       y       z     vdW  Elec       q    Type
REMARK                         _______ _______ _______ _____ _____    ______ ____
ROOT
ATOM      1  C   UNL     1       2.499  -3.102  -4.028  0.00  0.00    +0.005 C 
ATOM      2  C   UNL     1       2.567  -4.512  -3.438  0.00  0.00    +0.005 C 
ATOM      3  C   UNL     1       2.382  -5.542  -4.555  0.00  0.00    +0.013 C 
ATOM      4  C   UNL     1       3.490  -5.370  -5.595  0.00  0.00    +0.075 C 
ATOM      5  C   UNL     1       3.422  -3.960  -6.185  0.00  0.00    +0.013 C 
ATOM      6  C   UNL     1       3.608  -2.931  -5.069  0.00  0.00    +0.005 C 
ENDROOT
BRANCH   4   7
ATOM      7  C   UNL     1       4.832  -5.576  -4.939  0.00  0.00    +0.219 C 
ATOM      8  O   UNL     1       5.618  -4.655  -4.864  0.00  0.00    -0.275 OA
ATOM      9  N   UNL     1       5.158  -6.783  -4.437  0.00  0.00    -0.301 N 
ATOM     10  C   UNL     1       4.265  -7.936  -4.619  0.00  0.00    +0.108 C 
ATOM     11  C   UNL     1       5.072  -9.085  -5.242  0.00  0.00    +0.032 C 
ATOM     12  C   UNL     1       6.297  -9.371  -4.371  0.00  0.00    +0.078 C 
ATOM     13  C   UNL     1       7.190  -8.129  -4.319  0.00  0.00    +0.032 C 
ATOM     14  C   UNL     1       6.409  -6.970  -3.691  0.00  0.00    +0.108 C 
BRANCH  12  15
ATOM     15  C   UNL     1       7.073 -10.522  -4.958  0.00  0.00    +0.214 C 
ATOM     16  O   UNL     1       8.225 -10.365  -5.301  0.00  0.00    -0.276 OA
ATOM     17  N   UNL     1       6.486 -11.727  -5.102  0.00  0.00    -0.329 N 
ATOM     18  H   UNL     1       5.564 -11.853  -4.828  0.00  0.00    +0.145 HD
ATOM     19  H   UNL     1       6.985 -12.468  -5.480  0.00  0.00    +0.145 HD
ENDBRANCH  12  15
ENDBRANCH   4   7
BRANCH   1  20
ATOM     20  C   UNL     1       2.684  -2.073  -2.911  0.00  0.00    +0.109 C 
BRANCH  20  21
ATOM     21  N   UNL     1       1.559  -2.157  -1.978  0.00  0.00    -0.190 NA
ATOM     22  H   UNL     1       0.753  -2.634  -2.231  0.00  0.00    +0.148 HD
BRANCH  21  23
ATOM     23  S   UNL     1       1.662  -1.439  -0.489  0.00  0.00    +0.058 S 
ATOM     24  O   UNL     1       2.903  -1.845   0.072  0.00  0.00    -0.153 OA
ATOM     25  O   UNL     1       0.420  -1.672   0.161  0.00  0.00    -0.153 OA
BRANCH  23  31
ATOM     26  C   UNL     1       0.623   1.064  -0.817  0.00  0.00    +0.030 A 
ATOM     27  C   UNL     1       0.710   2.427  -1.026  0.00  0.00    +0.022 A 
ATOM     28  C   UNL     1       1.948   3.027  -1.172  0.00  0.00    +0.041 A 
ATOM     29  C   UNL     1       3.099   2.261  -1.110  0.00  0.00    +0.022 A 
ATOM     30  C   UNL     1       3.011   0.897  -0.902  0.00  0.00    +0.030 A 
ATOM     31  C   UNL     1       1.773   0.299  -0.755  0.00  0.00    +0.105 A 
ATOM     32 CL   UNL     1       2.058   4.739  -1.435  0.00  0.00    -0.084 Cl
ENDBRANCH  23  31
ENDBRANCH  21  23
ENDBRANCH  20  21
ENDBRANCH   1  20
TORSDOF 6
