REMARK  Name = ZINC38743720
REMARK  11 active torsions:
REMARK  status: ('A' for Active; 'I' for Inactive)
REMARK    1  A    between atoms: C_1  and  C_2
REMARK    2  A    between atoms: C_2  and  C_3
REMARK    3  A    between atoms: C_2  and  C_4
REMARK    4  A    between atoms: C_2  and  N_5
REMARK    5  A    between atoms: N_5  and  S_6
REMARK    6  A    between atoms: S_6  and  C_9
REMARK    7  A    between atoms: C_11  and  C_16
REMARK    8  A    between atoms: C_16  and  O_18
REMARK    9  A    between atoms: O_18  and  C_19
REMARK   10  A    between atoms: C_19  and  C_20
REMARK   11  A    between atoms: C_20  and  C_22
REMARK                            x       y       z     vdW  Elec       q    Type
REMARK                         _______ _______ _______ _____ _____    ______ ____
ROOT
ATOM      1  C   UNL     1       3.038  -0.324  -0.138  0.00  0.00    +0.124 A 
ATOM      2  C   UNL     1       4.159  -1.086  -0.393  0.00  0.00    +0.045 A 
ATOM      3  C   UNL     1       4.976  -1.496   0.663  0.00  0.00    +0.061 A 
ATOM      4  C   UNL     1       4.652  -1.131   1.972  0.00  0.00    +0.016 A 
ATOM      5  C   UNL     1       3.528  -0.369   2.214  0.00  0.00    +0.023 A 
ATOM      6  C   UNL     1       2.725   0.039   1.162  0.00  0.00    +0.067 A 
ATOM      7 CL   UNL     1       1.316   1.004   1.474  0.00  0.00    -0.082 Cl
ENDROOT
BRANCH   1   8
ATOM      8  S   UNL     1       2.006   0.195  -1.468  0.00  0.00    +0.060 S 
ATOM      9  O   UNL     1       2.556  -0.368  -2.652  0.00  0.00    -0.153 OA
ATOM     10  O   UNL     1       1.811   1.593  -1.310  0.00  0.00    -0.153 OA
BRANCH   8  11
ATOM     11  N   UNL     1       0.528  -0.518  -1.248  0.00  0.00    -0.185 NA
ATOM     12  H   UNL     1      -0.251   0.029  -1.060  0.00  0.00    +0.149 HD
BRANCH  11  14
ATOM     13  C   UNL     1       1.212  -2.630  -0.221  0.00  0.00    +0.029 C 
ATOM     14  C   UNL     1       0.396  -1.975  -1.337  0.00  0.00    +0.032 C 
ATOM     15  C   UNL     1       0.915  -2.451  -2.695  0.00  0.00    +0.029 C 
ATOM     16  C   UNL     1      -1.076  -2.364  -1.188  0.00  0.00    +0.029 C 
ENDBRANCH  11  14
ENDBRANCH   8  11
ENDBRANCH   1   8
BRANCH   3  17
ATOM     17  C   UNL     1       6.178  -2.312   0.397  0.00  0.00    +0.340 C 
ATOM     18  O   UNL     1       6.457  -2.628  -0.742  0.00  0.00    -0.245 OA
BRANCH  17  19
ATOM     19  O   UNL     1       6.964  -2.706   1.418  0.00  0.00    -0.453 OA
BRANCH  19  20
ATOM     20  C   UNL     1       8.110  -3.493   1.088  0.00  0.00    +0.311 C 
BRANCH  20  21
ATOM     21  C   UNL     1       8.862  -3.837   2.347  0.00  0.00    +0.199 C 
ATOM     22  O   UNL     1       8.457  -3.447   3.423  0.00  0.00    -0.289 OA
BRANCH  21  23
ATOM     23  C   UNL     1      10.038  -4.614   2.276  0.00  0.00    +0.026 C 
ATOM     24  C   UNL     1      10.838  -5.020   3.329  0.00  0.00    +0.006 A 
ATOM     25  C   UNL     1      10.764  -4.816   4.728  0.00  0.00    +0.010 A 
ATOM     26  C   UNL     1      11.706  -5.340   5.543  0.00  0.00    +0.001 A 
ATOM     27  C   UNL     1      12.784  -6.099   5.060  0.00  0.00    +0.002 A 
ATOM     28  C   UNL     1      12.947  -6.352   3.743  0.00  0.00    +0.026 A 
ATOM     29  C   UNL     1      11.964  -5.817   2.785  0.00  0.00    +0.043 A 
ATOM     30  N   UNL     1      11.877  -5.905   1.489  0.00  0.00    -0.380 N 
ATOM     31  C   UNL     1      10.685  -5.183   1.032  0.00  0.00    +0.152 C 
ATOM     32  H   UNL     1      12.501  -6.377   0.915  0.00  0.00    +0.160 HD
ENDBRANCH  21  23
ENDBRANCH  20  21
ENDBRANCH  19  20
ENDBRANCH  17  19
ENDBRANCH   3  17
TORSDOF 8
