REMARK  Name = ZINC12416293
REMARK  8 active torsions:
REMARK  status: ('A' for Active; 'I' for Inactive)
REMARK    1  A    between atoms: C_1  and  C_2
REMARK    2  A    between atoms: C_3  and  C_29
REMARK    3  A    between atoms: C_4  and  C_20
REMARK    4  A    between atoms: C_10  and  C_15
REMARK    5  A    between atoms: C_23  and  O_28
REMARK    6  A    between atoms: C_24  and  O_26
REMARK    7  A    between atoms: O_26  and  C_27
REMARK    8  A    between atoms: N_31  and  C_32
REMARK                            x       y       z     vdW  Elec       q    Type
REMARK                         _______ _______ _______ _____ _____    ______ ____
ROOT
ATOM      1  C   UNL     1       3.245   2.927  -1.246  0.00  0.00    +0.061 C 
ATOM      2  C   UNL     1       1.806   2.509  -1.084  0.00  0.00    +0.014 C 
ATOM      3  C   UNL     1       1.486   1.550  -0.199  0.00  0.00    +0.043 C 
ATOM      4  C   UNL     1       0.064   1.112  -0.006  0.00  0.00    +0.090 C 
ATOM      5  C   UNL     1      -0.796   1.538  -1.169  0.00  0.00    +0.024 C 
ATOM      6  C   UNL     1      -0.382   2.506  -2.015  0.00  0.00    +0.016 C 
ATOM      7  N   UNL     1       0.835   3.107  -1.839  0.00  0.00    -0.321 N 
ATOM      8  C   UNL     1      -1.246   2.951  -3.168  0.00  0.00    +0.060 C 
ATOM      9  C   UNL     1      -2.094   1.775  -3.659  0.00  0.00    +0.039 C 
ATOM     10  C   UNL     1      -2.944   1.267  -2.490  0.00  0.00    +0.088 C 
ATOM     11  C   UNL     1      -2.037   0.901  -1.347  0.00  0.00    +0.162 C 
ATOM     12  O   UNL     1      -2.382   0.039  -0.564  0.00  0.00    -0.292 OA
ATOM     13  H   UNL     1       1.029   4.081  -2.313  0.00  0.00    +0.152 HD
ENDROOT
BRANCH   4  14
ATOM     14  C   UNL     1      -0.476   1.729   1.259  0.00  0.00    -0.032 A 
ATOM     15  C   UNL     1      -0.537   3.104   1.385  0.00  0.00    +0.008 A 
ATOM     16  C   UNL     1      -1.032   3.674   2.543  0.00  0.00    +0.049 A 
ATOM     17  C   UNL     1      -1.467   2.867   3.582  0.00  0.00    +0.158 A 
ATOM     18  C   UNL     1      -1.405   1.482   3.455  0.00  0.00    +0.162 A 
ATOM     19  C   UNL     1      -0.914   0.917   2.289  0.00  0.00    +0.054 A 
BRANCH  18  20
ATOM     20  O   UNL     1      -1.832   0.686   4.471  0.00  0.00    -0.491 OA
ATOM     21  C   UNL     1      -1.739  -0.726   4.272  0.00  0.00    +0.277 C 
ENDBRANCH  18  20
BRANCH  17  22
ATOM     22  O   UNL     1      -1.953   3.426   4.722  0.00  0.00    -0.503 OA
ATOM     23  H   UNL     1      -2.298   2.784   5.546  0.00  0.00    +0.292 HD
ENDBRANCH  17  22
ENDBRANCH   4  14
BRANCH   9  24
ATOM     24  C   UNL     1      -2.993   2.232  -4.778  0.00  0.00    -0.006 A 
ATOM     25  C   UNL     1      -3.054   1.791  -6.059  0.00  0.00    +0.011 A 
ATOM     26  C   UNL     1      -3.970   2.363  -6.922  0.00  0.00    +0.008 A 
ATOM     27  C   UNL     1      -4.780   3.348  -6.463  0.00  0.00    +0.045 A 
ATOM     28  S   UNL     1      -4.261   3.489  -4.760  0.00  0.00    -0.101 S 
ENDBRANCH   9  24
BRANCH   3  29
ATOM     29  C   UNL     1       2.510   0.941   0.566  0.00  0.00    +0.247 C 
ATOM     30  O   UNL     1       3.677   1.214   0.349  0.00  0.00    -0.270 OA
ATOM     31  N   UNL     1       2.194   0.060   1.536  0.00  0.00    -0.282 N 
ATOM     32  H   UNL     1       1.148  -0.251   1.676  0.00  0.00    +0.155 HD
BRANCH  31  33
ATOM     33  C   UNL     1       3.195  -0.460   2.362  0.00  0.00    +0.036 A 
ATOM     34  C   UNL     1       3.093  -1.758   2.848  0.00  0.00    +0.023 A 
ATOM     35  C   UNL     1       4.085  -2.270   3.660  0.00  0.00    +0.005 A 
ATOM     36  C   UNL     1       5.175  -1.491   4.000  0.00  0.00    +0.038 A 
ATOM     37  C   UNL     1       5.279  -0.195   3.522  0.00  0.00    +0.125 A 
ATOM     38  C   UNL     1       4.290   0.322   2.704  0.00  0.00    +0.061 A 
ATOM     39  F   UNL     1       6.345   0.564   3.855  0.00  0.00    -0.205 F 
ENDBRANCH  31  33
ENDBRANCH   3  29
TORSDOF 6
