REMARK  Name = ZINC16930408
REMARK  9 active torsions:
REMARK  status: ('A' for Active; 'I' for Inactive)
REMARK    1  A    between atoms: C_1  and  C_2
REMARK    2  A    between atoms: C_2  and  C_3
REMARK    3  A    between atoms: C_3  and  C_5
REMARK    4  A    between atoms: C_3  and  O_7
REMARK    5  A    between atoms: O_7  and  C_8
REMARK    6  A    between atoms: C_12  and  C_14
REMARK    7  A    between atoms: N_18  and  C_22
REMARK    8  A    between atoms: C_24  and  C_29
REMARK    9  A    between atoms: C_27  and  C_28
REMARK                            x       y       z     vdW  Elec       q    Type
REMARK                         _______ _______ _______ _____ _____    ______ ____
ROOT
ATOM      1  C   UNL     1      -0.686  -6.091   2.826  0.00  0.00    +0.028 C 
ATOM      2  C   UNL     1      -0.701  -6.660   4.057  0.00  0.00    +0.078 C 
ATOM      3  C   UNL     1      -0.641  -8.087   4.437  0.00  0.00    +0.263 C 
ATOM      4  O   UNL     1      -0.566  -8.968   3.601  0.00  0.00    -0.269 OA
ATOM      5  N   UNL     1      -0.674  -8.357   5.731  0.00  0.00    -0.223 N 
ATOM      6  C   UNL     1      -0.757  -7.377   6.654  0.00  0.00    +0.125 C 
ATOM      7  S   UNL     1      -0.811  -7.524   8.358  0.00  0.00    -0.027 S 
ATOM      8  S   UNL     1      -0.792  -5.889   5.668  0.00  0.00    -0.061 S 
ENDROOT
BRANCH   5   9
ATOM      9  C   UNL     1      -0.620  -9.692   6.154  0.00  0.00    +0.046 A 
ATOM     10  C   UNL     1       0.604 -10.291   6.405  0.00  0.00    +0.039 A 
ATOM     11  C   UNL     1       0.652 -11.620   6.826  0.00  0.00    +0.065 A 
ATOM     12  C   UNL     1      -0.534 -12.338   6.991  0.00  0.00    +0.015 A 
ATOM     13  C   UNL     1      -1.748 -11.733   6.737  0.00  0.00    +0.006 A 
ATOM     14  C   UNL     1      -1.795 -10.414   6.325  0.00  0.00    -0.029 A 
ATOM     15  C   UNL     1      -3.125  -9.758   6.056  0.00  0.00    +0.045 C 
BRANCH  11  16
ATOM     16  C   UNL     1       1.953 -12.266   7.096  0.00  0.00    +0.387 C 
ATOM     17  O   UNL     1       2.984 -11.639   6.952  0.00  0.00    -0.241 OA
ATOM     18  O   UNL     1       1.997 -13.549   7.503  0.00  0.00    -0.241 OA
ENDBRANCH  11  16
ENDBRANCH   5   9
BRANCH   1  23
ATOM     19  C   UNL     1      -1.634  -2.548   3.625  0.00  0.00    +0.122 A 
ATOM     20  C   UNL     1      -1.454  -1.940   2.389  0.00  0.00    +0.046 A 
ATOM     21  C   UNL     1      -1.017  -2.679   1.304  0.00  0.00    +0.004 A 
ATOM     22  C   UNL     1      -0.767  -4.028   1.439  0.00  0.00    +0.008 A 
ATOM     23  C   UNL     1      -0.950  -4.652   2.678  0.00  0.00    -0.020 A 
ATOM     24  C   UNL     1      -1.387  -3.901   3.774  0.00  0.00    +0.053 A 
BRANCH  19  25
ATOM     25  O   UNL     1      -2.059  -1.815   4.687  0.00  0.00    -0.477 OA
BRANCH  25  26
ATOM     26  C   UNL     1      -2.179  -0.404   4.495  0.00  0.00    +0.285 C 
BRANCH  26  27
ATOM     27  C   UNL     1      -3.557  -0.083   3.977  0.00  0.00    +0.396 C 
ATOM     28  O   UNL     1      -4.384  -0.958   3.878  0.00  0.00    -0.242 OA
ATOM     29  O   UNL     1      -3.867   1.176   3.627  0.00  0.00    -0.242 OA
ENDBRANCH  26  27
BRANCH  26  31
ATOM     30  C   UNL     1      -0.514   0.089   6.291  0.00  0.00    +0.008 C 
ATOM     31  C   UNL     1      -1.955   0.314   5.827  0.00  0.00    +0.053 C 
ENDBRANCH  26  31
ENDBRANCH  25  26
ENDBRANCH  19  25
ENDBRANCH   1  23
TORSDOF 7
