REMARK  Name = ZINC21985988
REMARK  15 active torsions:
REMARK  status: ('A' for Active; 'I' for Inactive)
REMARK    1  A    between atoms: C_1  and  C_2
REMARK    2  A    between atoms: C_2  and  C_3
REMARK    3  A    between atoms: C_3  and  C_4
REMARK    4  A    between atoms: C_7  and  C_12
REMARK    5  A    between atoms: N_9  and  C_11
REMARK    6  A    between atoms: N_14  and  C_15
REMARK    7  A    between atoms: C_15  and  C_17
REMARK    8  A    between atoms: C_15  and  C_33
REMARK    9  A    between atoms: C_19  and  O_32
REMARK   10  A    between atoms: C_21  and  O_31
REMARK   11  A    between atoms: C_23  and  O_30
REMARK   12  A    between atoms: C_25  and  S_28
REMARK   13  A    between atoms: S_28  and  C_29
REMARK   14  A    between atoms: C_33  and  C_35
REMARK   15  A    between atoms: C_33  and  O_36
REMARK                            x       y       z     vdW  Elec       q    Type
REMARK                         _______ _______ _______ _____ _____    ______ ____
ROOT
ATOM      1  C   UNL     1      -2.861   3.483   0.152  0.00  0.00    +0.132 C 
ENDROOT
BRANCH   1   2
ATOM      2  C   UNL     1      -2.851   1.953   0.137  0.00  0.00    +0.173 C 
ATOM      3  C   UNL     1      -2.240   1.459  -1.177  0.00  0.00    +0.176 C 
ATOM      4  C   UNL     1      -0.785   1.934  -1.266  0.00  0.00    +0.177 C 
ATOM      5  C   UNL     1      -0.020   1.425  -0.041  0.00  0.00    +0.184 C 
ATOM      6  C   UNL     1      -0.717   1.920   1.230  0.00  0.00    +0.207 C 
ATOM      7  O   UNL     1      -2.073   1.470   1.234  0.00  0.00    -0.356 OA
BRANCH   6   8
ATOM      8  S   UNL     1       0.143   1.264   2.686  0.00  0.00    -0.131 S 
ATOM      9  C   UNL     1      -0.698   2.055   4.085  0.00  0.00    +0.087 C 
ENDBRANCH   6   8
BRANCH   5  10
ATOM     10  O   UNL     1      -0.000  -0.004  -0.049  0.00  0.00    -0.386 OA
ATOM     11  H   UNL     1       0.508  -0.551   0.759  0.00  0.00    +0.210 HD
ENDBRANCH   5  10
BRANCH   4  12
ATOM     12  O   UNL     1      -0.750   3.362  -1.294  0.00  0.00    -0.386 OA
ATOM     13  H   UNL     1       0.215   3.887  -1.356  0.00  0.00    +0.210 HD
ENDBRANCH   4  12
BRANCH   3  14
ATOM     14  O   UNL     1      -2.280   0.031  -1.215  0.00  0.00    -0.387 OA
ATOM     15  H   UNL     1      -1.882  -0.507  -2.088  0.00  0.00    +0.210 HD
ENDBRANCH   3  14
ENDBRANCH   1   2
BRANCH   1  18
ATOM     16  C   UNL     1      -3.250   5.207  -1.524  0.00  0.00    +0.200 C 
ATOM     17  O   UNL     1      -2.434   5.902  -0.957  0.00  0.00    -0.278 OA
ATOM     18  N   UNL     1      -3.536   3.979  -1.049  0.00  0.00    -0.309 N 
ATOM     19  H   UNL     1      -4.276   3.349  -1.564  0.00  0.00    +0.149 HD
BRANCH  16  22
ATOM     20  C   UNL     1      -3.318   6.277  -5.061  0.00  0.00    -0.029 C 
ATOM     21  C   UNL     1      -3.288   5.132  -4.028  0.00  0.00    -0.005 C 
ATOM     22  C   UNL     1      -3.945   5.718  -2.760  0.00  0.00    +0.019 C 
ATOM     23  N   UNL     1      -3.761   7.187  -2.888  0.00  0.00    +0.386 N 
ATOM     24  C   UNL     1      -3.991   7.459  -4.331  0.00  0.00    -0.075 C 
ATOM     25  C   UNL     1      -4.729   7.913  -2.055  0.00  0.00    -0.095 C 
ATOM     26  H   UNL     1      -2.772   7.524  -2.544  0.00  0.00    -0.081 HD
BRANCH  20  27
ATOM     27  C   UNL     1      -4.143   5.868  -6.283  0.00  0.00    +0.001 C 
BRANCH  27  29
ATOM     28  C   UNL     1      -4.883   6.557  -8.568  0.00  0.00    +0.004 C 
ATOM     29  C   UNL     1      -4.058   6.965  -7.346  0.00  0.00    -0.003 C 
ENDBRANCH  27  29
ENDBRANCH  20  27
ENDBRANCH  16  22
ENDBRANCH   1  18
BRANCH   1  30
ATOM     30  C   UNL     1      -3.604   3.976   1.395  0.00  0.00    +0.134 C 
ATOM     31  C   UNL     1      -3.722   5.500   1.348  0.00  0.00    +0.039 C 
BRANCH  30  32
ATOM     32  O   UNL     1      -4.910   3.398   1.430  0.00  0.00    -0.390 OA
ATOM     33  H   UNL     1      -5.596   3.637   2.256  0.00  0.00    +0.210 HD
ENDBRANCH  30  32
ENDBRANCH   1  30
TORSDOF 11
