REMARK  Name = ZINC18057124
REMARK  9 active torsions:
REMARK  status: ('A' for Active; 'I' for Inactive)
REMARK    1  A    between atoms: C_1  and  C_2
REMARK    2  A    between atoms: C_3  and  O_24
REMARK    3  A    between atoms: C_6  and  C_9
REMARK    4  A    between atoms: C_7  and  O_8
REMARK    5  A    between atoms: C_10  and  C_16
REMARK    6  A    between atoms: C_11  and  C_15
REMARK    7  A    between atoms: C_19  and  O_22
REMARK    8  A    between atoms: O_22  and  C_23
REMARK    9  A    between atoms: O_24  and  C_25
REMARK                            x       y       z     vdW  Elec       q    Type
REMARK                         _______ _______ _______ _____ _____    ______ ____
ROOT
ATOM      1  C   UNL     1      -0.067  -2.885   2.447  0.00  0.00    +0.077 A 
ATOM      2  C   UNL     1      -1.000  -2.725   3.463  0.00  0.00    +0.030 A 
ATOM      3  C   UNL     1      -0.545  -3.465   4.569  0.00  0.00    +0.068 A 
ATOM      4  N   UNL     1       0.587  -4.035   4.250  0.00  0.00    -0.178 NA
ATOM      5  N   UNL     1       0.913  -3.699   2.931  0.00  0.00    -0.276 N 
ATOM      6  H   UNL     1       1.700  -3.993   2.446  0.00  0.00    +0.189 HD
ATOM      7  C   UNL     1      -1.244  -3.580   5.899  0.00  0.00    +0.068 C 
ENDROOT
BRANCH   1  13
ATOM      8  C   UNL     1      -2.273  -2.521  -2.022  0.00  0.00    +0.051 C 
ATOM      9  C   UNL     1      -1.189  -2.112  -1.059  0.00  0.00    +0.033 A 
ATOM     10  C   UNL     1      -0.242  -1.171  -1.440  0.00  0.00    +0.126 A 
ATOM     11  C   UNL     1       0.760  -0.790  -0.556  0.00  0.00    +0.047 A 
ATOM     12  C   UNL     1       0.820  -1.344   0.705  0.00  0.00    +0.017 A 
ATOM     13  C   UNL     1      -0.128  -2.290   1.097  0.00  0.00    +0.042 A 
ATOM     14  C   UNL     1      -1.141  -2.670   0.206  0.00  0.00    +0.132 A 
BRANCH  14  15
ATOM     15  O   UNL     1      -2.071  -3.586   0.582  0.00  0.00    -0.506 OA
ATOM     16  H   UNL     1      -1.806  -4.502   0.424  0.00  0.00    +0.292 HD
ENDBRANCH  14  15
BRANCH  10  17
ATOM     17  O   UNL     1      -0.295  -0.622  -2.681  0.00  0.00    -0.495 OA
ATOM     18  C   UNL     1       0.710   0.340  -3.009  0.00  0.00    +0.277 C 
ENDBRANCH  10  17
ENDBRANCH   1  13
BRANCH   2  19
ATOM     19  C   UNL     1      -2.246  -1.924   3.394  0.00  0.00    -0.014 A 
ATOM     20  C   UNL     1      -2.179  -0.538   3.266  0.00  0.00    +0.012 A 
ATOM     21  C   UNL     1      -3.340   0.205   3.202  0.00  0.00    +0.046 A 
ATOM     22  C   UNL     1      -4.574  -0.427   3.267  0.00  0.00    +0.120 A 
ATOM     23  C   UNL     1      -4.644  -1.808   3.395  0.00  0.00    +0.046 A 
ATOM     24  C   UNL     1      -3.487  -2.556   3.452  0.00  0.00    +0.012 A 
BRANCH  22  25
ATOM     25  O   UNL     1      -5.716   0.307   3.204  0.00  0.00    -0.495 OA
ATOM     26  C   UNL     1      -6.951  -0.407   3.276  0.00  0.00    +0.277 C 
ENDBRANCH  22  25
ENDBRANCH   2  19
TORSDOF 5
