REMARK  Name = ZINC38926224
REMARK  7 active torsions:
REMARK  status: ('A' for Active; 'I' for Inactive)
REMARK    1  A    between atoms: C_1  and  C_2
REMARK    2  A    between atoms: C_5  and  N_8
REMARK    3  A    between atoms: C_9  and  N_11
REMARK    4  A    between atoms: C_15  and  C_18
REMARK    5  A    between atoms: C_23  and  S_24
REMARK    6  A    between atoms: S_24  and  C_25
REMARK    7  A    between atoms: C_25  and  C_26
REMARK                            x       y       z     vdW  Elec       q    Type
REMARK                         _______ _______ _______ _____ _____    ______ ____
ROOT
ATOM      1  N   UNL     1       0.296  -6.186   1.123  0.00  0.00    -0.136 NA
ATOM      2  C   UNL     1       0.410  -6.851   2.258  0.00  0.00    +0.203 C 
ATOM      3  N   UNL     1       0.423  -6.372   3.550  0.00  0.00    -0.153 NA
ATOM      4  N   UNL     1       0.533  -7.062   4.538  0.00  0.00    -0.289 N 
ATOM      5  C   UNL     1       0.664  -8.527   4.364  0.00  0.00    +0.194 C 
ATOM      6  S   UNL     1       0.581  -8.615   2.524  0.00  0.00    -0.056 S 
ATOM      7  H   UNL     1       0.536  -6.665   5.423  0.00  0.00    +0.184 HD
ENDROOT
BRANCH   5   8
ATOM      8  C   UNL     1      -0.488  -9.263   4.999  0.00  0.00    -0.000 A 
ATOM      9  C   UNL     1      -1.632  -8.578   5.356  0.00  0.00    +0.007 A 
ATOM     10  C   UNL     1      -2.690  -9.252   5.939  0.00  0.00    +0.000 A 
ATOM     11  C   UNL     1      -2.606 -10.614   6.166  0.00  0.00    +0.001 A 
ATOM     12  C   UNL     1      -1.464 -11.305   5.812  0.00  0.00    +0.015 A 
ATOM     13  C   UNL     1      -0.402 -10.632   5.221  0.00  0.00    +0.014 A 
BRANCH  13  14
ATOM     14  S   UNL     1       1.054 -11.511   4.761  0.00  0.00    -0.120 S 
BRANCH  14  15
ATOM     15  C   UNL     1       0.701 -13.226   5.237  0.00  0.00    +0.112 C 
BRANCH  15  16
ATOM     16  C   UNL     1       1.881 -14.096   4.893  0.00  0.00    -0.002 A 
ATOM     17  C   UNL     1       1.960 -14.696   3.650  0.00  0.00    +0.007 A 
ATOM     18  C   UNL     1       3.043 -15.494   3.335  0.00  0.00    +0.000 A 
ATOM     19  C   UNL     1       4.049 -15.694   4.262  0.00  0.00    +0.003 A 
ATOM     20  C   UNL     1       3.973 -15.096   5.505  0.00  0.00    +0.038 A 
ATOM     21  C   UNL     1       2.891 -14.291   5.820  0.00  0.00    +0.127 A 
ATOM     22  F   UNL     1       2.818 -13.702   7.034  0.00  0.00    -0.205 F 
ENDBRANCH  15  16
ENDBRANCH  14  15
ENDBRANCH  13  14
ENDBRANCH   5   8
BRANCH   1  24
ATOM     23  N   UNL     1       0.059  -4.169  -0.021  0.00  0.00    -0.268 N 
ATOM     24  C   UNL     1       0.176  -4.848   1.138  0.00  0.00    +0.330 C 
ATOM     25  O   UNL     1       0.174  -4.248   2.197  0.00  0.00    -0.250 OA
ATOM     26  H   UNL     1      -0.016  -4.651  -0.860  0.00  0.00    +0.156 HD
BRANCH  23  31
ATOM     27  C   UNL     1       0.009   1.503   0.008  0.00  0.00    +0.044 C 
ATOM     28  C   UNL     1       0.022  -0.004   0.001  0.00  0.00    -0.050 A 
ATOM     29  C   UNL     1      -0.722  -0.696  -0.938  0.00  0.00    +0.005 A 
ATOM     30  C   UNL     1      -0.711  -2.077  -0.948  0.00  0.00    +0.023 A 
ATOM     31  C   UNL     1       0.047  -2.771  -0.014  0.00  0.00    +0.035 A 
ATOM     32  C   UNL     1       0.793  -2.073   0.927  0.00  0.00    +0.023 A 
ATOM     33  C   UNL     1       0.782  -0.692   0.928  0.00  0.00    +0.005 A 
ENDBRANCH  23  31
ENDBRANCH   1  24
TORSDOF 6
