REMARK  Name = ZINC02791312
REMARK  10 active torsions:
REMARK  status: ('A' for Active; 'I' for Inactive)
REMARK    1  A    between atoms: C_1  and  N_55
REMARK    2  A    between atoms: C_2  and  N_55
REMARK    3  A    between atoms: C_3  and  C_4
REMARK    4  A    between atoms: C_3  and  N_55
REMARK    5  A    between atoms: C_4  and  C_5
REMARK    6  A    between atoms: C_5  and  N_6
REMARK    7  A    between atoms: C_7  and  C_12
REMARK    8  A    between atoms: C_10  and  S_11
REMARK    9  A    between atoms: C_17  and  C_30
REMARK   10  A    between atoms: C_20  and  C_23
REMARK                            x       y       z     vdW  Elec       q    Type
REMARK                         _______ _______ _______ _____ _____    ______ ____
ROOT
ATOM      1  C   UNL     1      -1.035   5.684  -2.871  0.00  0.00    +0.132 A 
ATOM      2  C   UNL     1      -0.680   6.005  -4.200  0.00  0.00    +0.076 A 
ATOM      3  C   UNL     1       0.657   5.865  -4.309  0.00  0.00    +0.119 A 
ATOM      4  N   UNL     1       1.143   5.471  -3.095  0.00  0.00    -0.238 N 
ATOM      5  N   UNL     1       0.067   5.369  -2.215  0.00  0.00    -0.166 NA
ATOM      6  C   UNL     1       2.563   5.222  -2.830  0.00  0.00    +0.215 C 
ATOM      7  C   UNL     1       3.399   5.916  -3.911  0.00  0.00    +0.063 C 
ATOM      8  C   UNL     1       2.862   5.551  -5.300  0.00  0.00    +0.104 C 
ATOM      9  N   UNL     1       1.483   6.061  -5.419  0.00  0.00    -0.322 N 
ATOM     10  H   UNL     1       1.167   6.507  -6.221  0.00  0.00    +0.148 HD
ENDROOT
BRANCH   8  11
ATOM     11  C   UNL     1       2.864   4.053  -5.465  0.00  0.00    -0.027 A 
ATOM     12  C   UNL     1       1.850   3.295  -4.908  0.00  0.00    +0.007 A 
ATOM     13  C   UNL     1       1.847   1.922  -5.064  0.00  0.00    +0.020 A 
ATOM     14  C   UNL     1       2.866   1.304  -5.768  0.00  0.00    +0.041 A 
ATOM     15  C   UNL     1       3.883   2.062  -6.320  0.00  0.00    +0.020 A 
ATOM     16  C   UNL     1       3.881   3.436  -6.168  0.00  0.00    +0.007 A 
ATOM     17 CL   UNL     1       2.867  -0.421  -5.958  0.00  0.00    -0.084 Cl
ENDBRANCH   8  11
BRANCH   1  19
ATOM     18  N   UNL     1      -2.762   5.394  -1.019  0.00  0.00    -0.301 N 
ATOM     19  C   UNL     1      -2.404   5.704  -2.310  0.00  0.00    +0.185 A 
ATOM     20  N   UNL     1      -3.505   6.017  -2.952  0.00  0.00    -0.127 NA
ATOM     21  N   UNL     1      -4.513   5.935  -2.159  0.00  0.00    -0.122 NA
ATOM     22  C   UNL     1      -4.118   5.558  -0.964  0.00  0.00    +0.189 A 
BRANCH  22  23
ATOM     23  S   UNL     1      -5.144   5.308   0.446  0.00  0.00    -0.103 S 
ATOM     24  H   UNL     1      -5.111   6.603   1.005  0.00  0.00    +0.110 HD
ENDBRANCH  22  23
BRANCH  18  25
ATOM     25  C   UNL     1      -1.876   4.980   0.071  0.00  0.00    +0.124 C 
BRANCH  25  26
ATOM     26  C   UNL     1      -1.748   3.455   0.075  0.00  0.00    +0.003 C 
BRANCH  26  27
ATOM     27  C   UNL     1      -0.822   3.023   1.213  0.00  0.00    -0.078 C 
BRANCH  27  30
ATOM     28  C   UNL     1      -0.013   1.086   0.008  0.00  0.00    -0.097 C 
ATOM     29  C   UNL     1      -0.016   1.091   2.429  0.00  0.00    -0.097 C 
ATOM     30  N   UNL     1      -0.727   1.548   1.217  0.00  0.00    +0.376 N 
ATOM     31  H   UNL     1      -1.674   1.153   1.216  0.00  0.00    -0.083 HD
ENDBRANCH  27  30
ENDBRANCH  26  27
ENDBRANCH  25  26
ENDBRANCH  18  25
ENDBRANCH   1  19
BRANCH   6  32
ATOM     32  C   UNL     1       2.934   5.785  -1.456  0.00  0.00    +0.412 C 
ATOM     33  F   UNL     1       2.160   5.160  -0.472  0.00  0.00    -0.168 F 
ATOM     34  F   UNL     1       4.289   5.546  -1.205  0.00  0.00    -0.168 F 
ATOM     35  F   UNL     1       2.691   7.162  -1.435  0.00  0.00    -0.168 F 
ENDBRANCH   6  32
TORSDOF 8
