REMARK  Name = ZINC37278841
REMARK  5 active torsions:
REMARK  status: ('A' for Active; 'I' for Inactive)
REMARK    1  A    between atoms: C_1  and  C_2
REMARK    2  A    between atoms: C_2  and  C_4
REMARK    3  A    between atoms: C_2  and  N_14
REMARK    4  A    between atoms: C_7  and  N_10
REMARK    5  A    between atoms: N_14  and  C_15
REMARK                            x       y       z     vdW  Elec       q    Type
REMARK                         _______ _______ _______ _____ _____    ______ ____
ROOT
ATOM      1  C   UNL     1       0.715  -0.472  -1.241  0.00  0.00    -0.027 A 
ATOM      2  C   UNL     1       2.086  -0.335  -1.357  0.00  0.00    +0.007 A 
ATOM      3  C   UNL     1       2.733  -0.785  -2.491  0.00  0.00    +0.023 A 
ATOM      4  C   UNL     1       2.005  -1.376  -3.515  0.00  0.00    +0.035 A 
ATOM      5  C   UNL     1       0.628  -1.513  -3.396  0.00  0.00    +0.023 A 
ATOM      6  C   UNL     1      -0.012  -1.065  -2.257  0.00  0.00    +0.007 A 
ENDROOT
BRANCH   4   7
ATOM      7  N   UNL     1       2.658  -1.833  -4.666  0.00  0.00    -0.270 N 
ATOM      8  C   UNL     1       3.907  -2.331  -4.579  0.00  0.00    +0.301 C 
ATOM      9  O   UNL     1       4.431  -2.473  -3.491  0.00  0.00    -0.253 OA
ATOM     10  N   UNL     1       4.576  -2.671  -5.699  0.00  0.00    -0.313 N 
ATOM     11  H   UNL     1       2.211  -1.792  -5.526  0.00  0.00    +0.156 HD
ATOM     12  H   UNL     1       4.158  -2.558  -6.567  0.00  0.00    +0.146 HD
ATOM     13  H   UNL     1       5.475  -3.030  -5.636  0.00  0.00    +0.146 HD
ENDBRANCH   4   7
BRANCH   1  15
ATOM     14  C   UNL     1      -0.191   1.534  -0.099  0.00  0.00    +0.033 C 
ATOM     15  C   UNL     1       0.012   0.021  -0.002  0.00  0.00    +0.098 C 
BRANCH  15  16
ATOM     16  N   UNL     1       0.826  -0.288   1.176  0.00  0.00    -0.336 N 
ATOM     17  H   UNL     1       1.785  -0.398   1.088  0.00  0.00    +0.147 HD
BRANCH  16  18
ATOM     18  C   UNL     1       0.219  -0.425   2.428  0.00  0.00    +0.042 A 
ATOM     19  C   UNL     1      -1.156  -0.274   2.555  0.00  0.00    +0.025 A 
ATOM     20  C   UNL     1      -1.753  -0.409   3.793  0.00  0.00    +0.017 A 
ATOM     21  C   UNL     1      -0.983  -0.696   4.907  0.00  0.00    +0.019 A 
ATOM     22  C   UNL     1       0.387  -0.847   4.784  0.00  0.00    +0.032 A 
ATOM     23  C   UNL     1       0.989  -0.718   3.547  0.00  0.00    +0.040 A 
ATOM     24 BR   UNL     1       2.860  -0.933   3.378  0.00  0.00    -0.048 Br
ATOM     25 BR   UNL     1      -1.804  -0.880   6.600  0.00  0.00    -0.050 Br
ENDBRANCH  16  18
ENDBRANCH  15  16
ENDBRANCH   1  15
TORSDOF 4
