REMARK  Name = ZINC39694495
REMARK  6 active torsions:
REMARK  status: ('A' for Active; 'I' for Inactive)
REMARK    1  A    between atoms: N_4  and  C_6
REMARK    2  A    between atoms: C_6  and  C_7
REMARK    3  A    between atoms: C_7  and  N_8
REMARK    4  A    between atoms: C_9  and  C_11
REMARK    5  A    between atoms: C_22  and  C_24
REMARK    6  A    between atoms: C_27  and  C_31
REMARK                            x       y       z     vdW  Elec       q    Type
REMARK                         _______ _______ _______ _____ _____    ______ ____
ROOT
ATOM      1  C   UNL     1       4.607  -5.861  -1.989  0.00  0.00    +0.100 C 
ATOM      2  C   UNL     1       3.237  -6.550  -2.180  0.00  0.00    +0.121 C 
ATOM      3  N   UNL     1       3.128  -6.770  -3.641  0.00  0.00    -0.296 N 
ATOM      4  C   UNL     1       4.495  -7.168  -4.056  0.00  0.00    +0.115 C 
ATOM      5  C   UNL     1       5.430  -6.272  -3.221  0.00  0.00    -0.004 C 
ATOM      6  C   UNL     1       5.832  -5.038  -4.024  0.00  0.00    -0.010 C 
ATOM      7  C   UNL     1       6.697  -5.467  -5.212  0.00  0.00    -0.082 C 
ATOM      8  N   UNL     1       7.891  -6.168  -4.722  0.00  0.00    +0.379 N 
ATOM      9  C   UNL     1       7.500  -7.402  -4.031  0.00  0.00    -0.082 C 
ATOM     10  C   UNL     1       6.668  -7.054  -2.793  0.00  0.00    -0.010 C 
ATOM     11  C   UNL     1       2.035  -6.638  -4.417  0.00  0.00    +0.247 C 
ATOM     12  O   UNL     1       1.010  -6.180  -3.950  0.00  0.00    -0.270 OA
ATOM     13  H   UNL     1       8.489  -6.396  -5.502  0.00  0.00    -0.086 HD
ATOM     14  H   UNL     1       8.391  -5.569  -4.082  0.00  0.00    -0.086 HD
ENDROOT
BRANCH  11  15
ATOM     15  C   UNL     1       2.081  -7.050  -5.836  0.00  0.00    +0.040 A 
ATOM     16  C   UNL     1       3.054  -7.950  -6.273  0.00  0.00    +0.014 A 
ATOM     17  C   UNL     1       3.093  -8.332  -7.598  0.00  0.00    +0.016 A 
ATOM     18  C   UNL     1       2.170  -7.825  -8.495  0.00  0.00    +0.090 A 
ATOM     19  C   UNL     1       1.201  -6.931  -8.069  0.00  0.00    +0.136 A 
ATOM     20  C   UNL     1       1.148  -6.545  -6.743  0.00  0.00    +0.052 A 
ATOM     21  F   UNL     1       0.303  -6.439  -8.951  0.00  0.00    -0.205 F 
BRANCH  18  22
ATOM     22  C   UNL     1       2.218  -8.247  -9.941  0.00  0.00    +0.420 C 
ATOM     23  F   UNL     1       3.272  -9.147 -10.129  0.00  0.00    -0.166 F 
ATOM     24  F   UNL     1       1.011  -8.864 -10.288  0.00  0.00    -0.166 F 
ATOM     25  F   UNL     1       2.416  -7.122 -10.749  0.00  0.00    -0.166 F 
ENDBRANCH  18  22
ENDBRANCH  11  15
BRANCH   1  27
ATOM     26  N   UNL     1       5.365  -3.600  -1.333  0.00  0.00    -0.313 N 
ATOM     27  C   UNL     1       4.439  -4.364  -1.945  0.00  0.00    +0.218 C 
ATOM     28  O   UNL     1       3.471  -3.847  -2.461  0.00  0.00    -0.275 OA
ATOM     29  H   UNL     1       6.139  -4.014  -0.920  0.00  0.00    +0.149 HD
BRANCH  26  30
ATOM     30  C   UNL     1       5.202  -2.145  -1.290  0.00  0.00    +0.127 C 
BRANCH  30  31
ATOM     31  C   UNL     1       6.383  -1.521  -0.542  0.00  0.00    +0.162 C 
BRANCH  31  35
ATOM     32  C   UNL     1       6.042   1.985   0.225  0.00  0.00    +0.041 A 
ATOM     33  C   UNL     1       5.930   2.005  -1.169  0.00  0.00    +0.134 A 
ATOM     34  N   UNL     1       6.037   0.775  -1.604  0.00  0.00    -0.180 NA
ATOM     35  N   UNL     1       6.220  -0.066  -0.499  0.00  0.00    -0.270 N 
ATOM     36  C   UNL     1       6.219   0.701   0.611  0.00  0.00    +0.108 A 
ENDBRANCH  31  35
ENDBRANCH  30  31
ENDBRANCH  26  30
ENDBRANCH   1  27
TORSDOF 6
