REMARK  Name = ZINC21892313
REMARK  6 active torsions:
REMARK  status: ('A' for Active; 'I' for Inactive)
REMARK    1  A    between atoms: C_1  and  C_2
REMARK    2  A    between atoms: C_2  and  O_3
REMARK    3  A    between atoms: O_3  and  C_4
REMARK    4  A    between atoms: C_4  and  C_6
REMARK    5  A    between atoms: C_11  and  N_12
REMARK    6  A    between atoms: C_28  and  C_30
REMARK                            x       y       z     vdW  Elec       q    Type
REMARK                         _______ _______ _______ _____ _____    ______ ____
ROOT
ATOM      1  N   UNL     1      -3.268   4.807   2.659  0.00  0.00    -0.269 N 
ATOM      2  C   UNL     1      -3.808   3.702   2.108  0.00  0.00    +0.308 C 
ATOM      3  O   UNL     1      -4.576   3.014   2.753  0.00  0.00    -0.252 OA
ATOM      4  N   UNL     1      -3.496   3.358   0.843  0.00  0.00    -0.268 N 
ATOM      5  C   UNL     1      -4.154   2.217   0.176  0.00  0.00    +0.147 C 
ATOM      6  C   UNL     1      -3.180   1.395  -0.623  0.00  0.00    -0.006 A 
ATOM      7  C   UNL     1      -2.781   0.149  -0.188  0.00  0.00    +0.007 A 
ATOM      8  C   UNL     1      -1.954  -0.627  -0.981  0.00  0.00    +0.000 A 
ATOM      9  C   UNL     1      -1.524  -0.155  -2.208  0.00  0.00    +0.002 A 
ATOM     10  C   UNL     1      -1.899   1.104  -2.637  0.00  0.00    +0.026 A 
ATOM     11  C   UNL     1      -2.709   1.891  -1.835  0.00  0.00    +0.051 A 
ATOM     12  N   UNL     1      -3.057   3.194  -2.217  0.00  0.00    -0.318 N 
ATOM     13  C   UNL     1      -3.516   3.647  -3.411  0.00  0.00    +0.091 A 
ATOM     14  C   UNL     1      -3.720   4.979  -3.302  0.00  0.00    +0.020 A 
ATOM     15  C   UNL     1      -3.369   5.356  -1.987  0.00  0.00    +0.025 A 
ATOM     16  C   UNL     1      -2.966   4.247  -1.347  0.00  0.00    +0.049 A 
ATOM     17  C   UNL     1      -2.485   4.109   0.074  0.00  0.00    +0.155 C 
ATOM     18  H   UNL     1      -2.654   5.483   2.046  0.00  0.00    +0.156 HD
ENDROOT
BRANCH  17  19
ATOM     19  C   UNL     1      -1.176   3.362   0.095  0.00  0.00    -0.016 A 
ATOM     20  C   UNL     1      -0.758   2.734   1.252  0.00  0.00    +0.044 A 
ATOM     21  C   UNL     1       0.445   2.048   1.273  0.00  0.00    +0.126 A 
ATOM     22  C   UNL     1       1.228   1.991   0.133  0.00  0.00    +0.076 A 
ATOM     23  C   UNL     1       0.808   2.621  -1.026  0.00  0.00    +0.126 A 
ATOM     24  C   UNL     1      -0.393   3.311  -1.043  0.00  0.00    +0.044 A 
ATOM     25  F   UNL     1       1.571   2.567  -2.139  0.00  0.00    -0.205 F 
ATOM     26  F   UNL     1       0.854   1.434   2.405  0.00  0.00    -0.205 F 
ENDBRANCH  17  19
BRANCH   1  32
ATOM     27  C   UNL     1      -3.424   6.419   4.462  0.00  0.00    +0.080 A 
ATOM     28  C   UNL     1      -3.648   6.693   5.814  0.00  0.00    +0.017 A 
ATOM     29  C   UNL     1      -3.929   5.664   6.686  0.00  0.00    +0.001 A 
ATOM     30  C   UNL     1      -3.991   4.357   6.230  0.00  0.00    +0.002 A 
ATOM     31  C   UNL     1      -3.779   4.071   4.896  0.00  0.00    +0.024 A 
ATOM     32  C   UNL     1      -3.489   5.094   4.003  0.00  0.00    +0.049 A 
BRANCH  27  33
ATOM     33  C   UNL     1      -3.124   7.514   3.523  0.00  0.00    +0.341 C 
ATOM     34  O   UNL     1      -3.029   7.286   2.333  0.00  0.00    -0.245 OA
BRANCH  33  35
ATOM     35  O   UNL     1      -2.954   8.769   3.984  0.00  0.00    -0.461 OA
BRANCH  35  37
ATOM     36  C   UNL     1      -2.502  11.146   3.708  0.00  0.00    +0.048 C 
ATOM     37  C   UNL     1      -2.660   9.798   3.002  0.00  0.00    +0.229 C 
ENDBRANCH  35  37
ENDBRANCH  33  35
ENDBRANCH  27  33
ENDBRANCH   1  32
TORSDOF 5
