REMARK  Name = ZINC36203398
REMARK  12 active torsions:
REMARK  status: ('A' for Active; 'I' for Inactive)
REMARK    1  A    between atoms: C_1  and  O_2
REMARK    2  A    between atoms: O_2  and  C_3
REMARK    3  A    between atoms: C_7  and  C_9
REMARK    4  A    between atoms: C_9  and  N_10
REMARK    5  A    between atoms: N_10  and  C_11
REMARK    6  A    between atoms: N_10  and  C_29
REMARK    7  A    between atoms: C_11  and  C_12
REMARK    8  A    between atoms: C_15  and  C_17
REMARK    9  A    between atoms: C_17  and  C_18
REMARK   10  A    between atoms: C_17  and  C_23
REMARK   11  A    between atoms: C_17  and  O_28
REMARK   12  A    between atoms: C_29  and  C_30
REMARK                            x       y       z     vdW  Elec       q    Type
REMARK                         _______ _______ _______ _____ _____    ______ ____
ROOT
ATOM      1  C   UNL     1      -0.110  -7.648   2.406  0.00  0.00    -0.003 C 
ENDROOT
BRANCH   1   2
ATOM      2  C   UNL     1      -1.461  -7.633   3.072  0.00  0.00    +0.089 A 
ATOM      3  C   UNL     1      -2.631  -7.944   2.485  0.00  0.00    +0.043 A 
ATOM      4  C   UNL     1      -3.635  -7.796   3.469  0.00  0.00    +0.048 A 
ATOM      5  C   UNL     1      -3.019  -7.404   4.599  0.00  0.00    +0.147 A 
ATOM      6  O   UNL     1      -1.702  -7.312   4.354  0.00  0.00    -0.463 OA
BRANCH   5   7
ATOM      7  C   UNL     1      -3.693  -7.120   5.917  0.00  0.00    +0.186 C 
BRANCH   7   8
ATOM      8  C   UNL     1      -2.776  -7.517   7.045  0.00  0.00    +0.034 A 
ATOM      9  C   UNL     1      -2.985  -8.413   8.040  0.00  0.00    +0.015 A 
ATOM     10  C   UNL     1      -1.990  -8.618   8.977  0.00  0.00    +0.008 A 
ATOM     11  C   UNL     1      -0.834  -7.918   8.873  0.00  0.00    +0.045 A 
ATOM     12  S   UNL     1      -1.129  -6.934   7.413  0.00  0.00    -0.098 S 
ENDBRANCH   7   8
BRANCH   7  13
ATOM     13  C   UNL     1      -4.004  -5.649   6.016  0.00  0.00    +0.034 A 
ATOM     14  C   UNL     1      -5.012  -5.032   6.679  0.00  0.00    +0.015 A 
ATOM     15  C   UNL     1      -5.102  -3.654   6.630  0.00  0.00    +0.008 A 
ATOM     16  C   UNL     1      -4.180  -2.959   5.921  0.00  0.00    +0.045 A 
ATOM     17  S   UNL     1      -3.135  -4.265   5.296  0.00  0.00    -0.098 S 
ENDBRANCH   7  13
BRANCH   7  18
ATOM     18  O   UNL     1      -4.906  -7.870   6.003  0.00  0.00    -0.371 OA
ATOM     19  H   UNL     1      -4.782  -8.827   5.946  0.00  0.00    +0.212 HD
ENDBRANCH   7  18
ENDBRANCH   5   7
ENDBRANCH   1   2
BRANCH   1  20
ATOM     20  N   UNL     1       0.232  -6.291   1.960  0.00  0.00    +0.389 N 
ATOM     21  H   UNL     1      -0.505  -5.936   1.368  0.00  0.00    -0.081 HD
BRANCH  20  22
ATOM     22  C   UNL     1       1.491  -6.326   1.205  0.00  0.00    -0.042 C 
BRANCH  22  27
ATOM     23  C   UNL     1       1.421  -3.313  -1.076  0.00  0.00    +0.120 A 
ATOM     24  C   UNL     1       2.289  -2.452  -0.419  0.00  0.00    +0.045 A 
ATOM     25  C   UNL     1       2.894  -2.848   0.758  0.00  0.00    +0.004 A 
ATOM     26  C   UNL     1       2.635  -4.101   1.283  0.00  0.00    +0.002 A 
ATOM     27  C   UNL     1       1.771  -4.961   0.630  0.00  0.00    -0.060 A 
ATOM     28  C   UNL     1       1.159  -4.568  -0.544  0.00  0.00    +0.047 A 
BRANCH  23  30
ATOM     29  C   UNL     1       1.142  -1.621  -2.722  0.00  0.00    +0.277 C 
ATOM     30  O   UNL     1       0.825  -2.927  -2.234  0.00  0.00    -0.495 OA
ENDBRANCH  23  30
ENDBRANCH  22  27
ENDBRANCH  20  22
BRANCH  20  31
ATOM     31  C   UNL     1       0.386  -5.415   3.129  0.00  0.00    -0.046 C 
BRANCH  31  32
ATOM     32  C   UNL     1       1.607  -5.854   3.938  0.00  0.00    +0.102 C 
ATOM     33  C   UNL     1       1.847  -4.883   5.121  0.00  0.00    +0.032 C 
ATOM     34  C   UNL     1       2.619  -5.802   6.106  0.00  0.00    +0.030 C 
ATOM     35  C   UNL     1       1.973  -7.180   5.844  0.00  0.00    +0.160 C 
ATOM     36  O   UNL     1       1.369  -7.135   4.544  0.00  0.00    -0.378 OA
ENDBRANCH  31  32
ENDBRANCH  20  31
ENDBRANCH   1  20
TORSDOF 11
