REMARK  Name = ZINC06443618
REMARK  9 active torsions:
REMARK  status: ('A' for Active; 'I' for Inactive)
REMARK    1  A    between atoms: C_1  and  C_2
REMARK    2  A    between atoms: C_12  and  C_14
REMARK    3  A    between atoms: C_14  and  C_16
REMARK    4  A    between atoms: C_14  and  N_67
REMARK    5  A    between atoms: N_20  and  C_21
REMARK    6  A    between atoms: C_26  and  C_27
REMARK    7  A    between atoms: C_26  and  N_67
REMARK    8  A    between atoms: C_33  and  C_34
REMARK    9  A    between atoms: C_33  and  N_67
REMARK                            x       y       z     vdW  Elec       q    Type
REMARK                         _______ _______ _______ _____ _____    ______ ____
ROOT
ATOM      1  C   UNL     1       0.571  -2.187   4.615  0.00  0.00    +0.040 C 
ENDROOT
BRANCH   1  13
ATOM      2  C   UNL     1       0.546   2.809   0.344  0.00  0.00    +0.046 C 
ATOM      3  C   UNL     1       0.576   1.317   0.131  0.00  0.00    -0.026 A 
ATOM      4  C   UNL     1       0.599   0.801  -1.147  0.00  0.00    +0.005 A 
ATOM      5  C   UNL     1       0.633  -0.571  -1.357  0.00  0.00    +0.001 A 
ATOM      6  C   UNL     1       0.632  -1.436  -0.299  0.00  0.00    +0.010 A 
ATOM      7  C   UNL     1       0.603  -0.935   1.006  0.00  0.00    -0.001 A 
ATOM      8  C   UNL     1       0.575   0.456   1.223  0.00  0.00    +0.052 A 
ATOM      9  N   UNL     1       0.547   0.944   2.512  0.00  0.00    -0.322 N 
ATOM     10  H   UNL     1       0.528   1.903   2.659  0.00  0.00    +0.169 HD
ATOM     11  C   UNL     1       0.546   0.111   3.567  0.00  0.00    +0.251 A 
ATOM     12  O   UNL     1       0.521   0.578   4.692  0.00  0.00    -0.268 OA
ATOM     13  C   UNL     1       0.573  -1.291   3.404  0.00  0.00    +0.011 A 
ATOM     14  C   UNL     1       0.602  -1.833   2.162  0.00  0.00    +0.017 A 
ENDBRANCH   1  13
BRANCH   1  15
ATOM     15  C   UNL     1       1.868  -2.024   5.364  0.00  0.00    +0.143 A 
ATOM     16  N   UNL     1       2.159  -1.084   6.230  0.00  0.00    -0.115 NA
ATOM     17  N   UNL     1       3.360  -1.288   6.651  0.00  0.00    -0.023 NA
ATOM     18  N   UNL     1       3.845  -2.330   6.070  0.00  0.00    -0.044 NA
ATOM     19  N   UNL     1       2.956  -2.811   5.269  0.00  0.00    -0.227 N 
BRANCH  19  20
ATOM     20  C   UNL     1       3.102  -3.994   4.417  0.00  0.00    +0.111 C 
ATOM     21  C   UNL     1       3.412  -5.233   5.281  0.00  0.00    +0.027 C 
ATOM     22  C   UNL     1       4.416  -6.049   4.428  0.00  0.00    +0.002 C 
ATOM     23  C   UNL     1       5.291  -4.947   3.781  0.00  0.00    +0.002 C 
ATOM     24  C   UNL     1       4.295  -3.812   3.463  0.00  0.00    +0.027 C 
ENDBRANCH  19  20
ENDBRANCH   1  15
BRANCH   1  25
ATOM     25  N   UNL     1      -0.543  -1.797   5.505  0.00  0.00    +0.395 N 
ATOM     26  H   UNL     1      -0.313  -0.905   5.957  0.00  0.00    -0.079 HD
BRANCH  25  27
ATOM     27  C   UNL     1      -1.783  -1.630   4.718  0.00  0.00    -0.041 C 
BRANCH  27  28
ATOM     28  C   UNL     1      -2.842  -1.024   5.602  0.00  0.00    -0.064 A 
ATOM     29  C   UNL     1      -3.699  -1.842   6.316  0.00  0.00    +0.002 A 
ATOM     30  C   UNL     1      -4.666  -1.286   7.131  0.00  0.00    +0.000 A 
ATOM     31  C   UNL     1      -4.785   0.089   7.224  0.00  0.00    +0.000 A 
ATOM     32  C   UNL     1      -3.933   0.906   6.506  0.00  0.00    +0.000 A 
ATOM     33  C   UNL     1      -2.961   0.350   5.695  0.00  0.00    +0.002 A 
ENDBRANCH  27  28
ENDBRANCH  25  27
BRANCH  25  34
ATOM     34  C   UNL     1      -0.742  -2.826   6.547  0.00  0.00    -0.034 C 
BRANCH  34  35
ATOM     35  C   UNL     1       0.315  -2.650   7.607  0.00  0.00    -0.027 A 
ATOM     36  C   UNL     1       0.341  -1.785   8.650  0.00  0.00    +0.009 A 
ATOM     37  C   UNL     1       1.426  -1.800   9.507  0.00  0.00    +0.008 A 
ATOM     38  C   UNL     1       2.432  -2.680   9.278  0.00  0.00    +0.045 A 
ATOM     39  S   UNL     1       1.854  -3.530   7.819  0.00  0.00    -0.103 S 
ENDBRANCH  34  35
ENDBRANCH  25  34
ENDBRANCH   1  25
TORSDOF 8
