REMARK  Name = ZINC27520233
REMARK  10 active torsions:
REMARK  status: ('A' for Active; 'I' for Inactive)
REMARK    1  A    between atoms: C_1  and  C_2
REMARK    2  A    between atoms: C_2  and  O_3
REMARK    3  A    between atoms: O_3  and  C_4
REMARK    4  A    between atoms: N_12  and  C_13
REMARK    5  A    between atoms: C_14  and  C_22
REMARK    6  A    between atoms: C_22  and  O_24
REMARK    7  A    between atoms: O_24  and  C_25
REMARK    8  A    between atoms: C_25  and  C_26
REMARK    9  A    between atoms: C_27  and  C_29
REMARK   10  A    between atoms: N_31  and  C_32
REMARK                            x       y       z     vdW  Elec       q    Type
REMARK                         _______ _______ _______ _____ _____    ______ ____
ROOT
ATOM      1  C   UNL     1      -5.782   0.653  -6.522  0.00  0.00    +0.163 A 
ATOM      2  C   UNL     1      -7.152   0.576  -6.711  0.00  0.00    +0.049 A 
ATOM      3  C   UNL     1      -7.880  -0.476  -6.177  0.00  0.00    +0.004 A 
ATOM      4  C   UNL     1      -7.260  -1.455  -5.452  0.00  0.00    +0.012 A 
ATOM      5  C   UNL     1      -5.876  -1.397  -5.245  0.00  0.00    +0.022 A 
ATOM      6  C   UNL     1      -5.131  -0.334  -5.788  0.00  0.00    +0.179 A 
ATOM      7  O   UNL     1      -3.794  -0.279  -5.592  0.00  0.00    -0.435 OA
ATOM      8  C   UNL     1      -3.305  -0.873  -4.475  0.00  0.00    +0.212 A 
ATOM      9  N   UNL     1      -2.346  -0.306  -3.767  0.00  0.00    -0.319 N 
ATOM     10  C   UNL     1      -3.882  -2.168  -4.072  0.00  0.00    +0.098 A 
ATOM     11  C   UNL     1      -5.190  -2.430  -4.466  0.00  0.00    +0.030 A 
ATOM     12  H   UNL     1      -1.965  -0.800  -2.861  0.00  0.00    +0.169 HD
ENDROOT
BRANCH   9  13
ATOM     13  C   UNL     1      -1.833   0.878  -4.154  0.00  0.00    +0.095 A 
ATOM     14  C   UNL     1      -0.822   1.639  -3.551  0.00  0.00    +0.093 A 
ATOM     15  C   UNL     1      -0.461   2.897  -4.182  0.00  0.00    -0.021 A 
ATOM     16  C   UNL     1      -1.133   3.216  -5.311  0.00  0.00    -0.004 A 
ATOM     17  S   UNL     1      -2.266   1.878  -5.566  0.00  0.00    -0.075 S 
ATOM     18  C   UNL     1      -0.957   4.441  -6.154  0.00  0.00    +0.043 C 
ATOM     19  C   UNL     1      -0.162   5.478  -5.342  0.00  0.00    +0.005 C 
ATOM     20  C   UNL     1       1.060   4.783  -4.734  0.00  0.00    +0.005 C 
ATOM     21  C   UNL     1       0.616   3.825  -3.628  0.00  0.00    +0.037 C 
BRANCH  14  22
ATOM     22  C   UNL     1      -0.180   1.200  -2.365  0.00  0.00    +0.342 C 
ATOM     23  O   UNL     1       0.820   0.510  -2.434  0.00  0.00    -0.245 OA
BRANCH  22  24
ATOM     24  O   UNL     1      -0.677   1.549  -1.160  0.00  0.00    -0.461 OA
BRANCH  24  25
ATOM     25  C   UNL     1       0.021   1.071  -0.008  0.00  0.00    +0.229 C 
ATOM     26  C   UNL     1      -0.685   1.565   1.257  0.00  0.00    +0.048 C 
ENDBRANCH  24  25
ENDBRANCH  22  24
ENDBRANCH  14  22
ENDBRANCH   9  13
BRANCH  10  27
ATOM     27  C   UNL     1      -3.108  -3.143  -3.284  0.00  0.00    +0.253 C 
ATOM     28  O   UNL     1      -1.966  -2.887  -2.953  0.00  0.00    -0.270 OA
ATOM     29  N   UNL     1      -3.664  -4.319  -2.932  0.00  0.00    -0.281 N 
ATOM     30  H   UNL     1      -4.720  -4.519  -3.165  0.00  0.00    +0.155 HD
BRANCH  29  31
ATOM     31  C   UNL     1      -2.899  -5.283  -2.269  0.00  0.00    +0.034 A 
ATOM     32  C   UNL     1      -3.116  -6.633  -2.514  0.00  0.00    +0.023 A 
ATOM     33  C   UNL     1      -2.355  -7.583  -1.862  0.00  0.00    +0.002 A 
ATOM     34  C   UNL     1      -1.386  -7.192  -0.956  0.00  0.00    +0.000 A 
ATOM     35  C   UNL     1      -1.171  -5.849  -0.706  0.00  0.00    +0.002 A 
ATOM     36  C   UNL     1      -1.924  -4.894  -1.359  0.00  0.00    +0.023 A 
ENDBRANCH  29  31
ENDBRANCH  10  27
BRANCH   1  37
ATOM     37  O   UNL     1      -5.077   1.688  -7.051  0.00  0.00    -0.489 OA
BRANCH  37  39
ATOM     38  C   UNL     1      -4.857   3.742  -8.305  0.00  0.00    +0.048 C 
ATOM     39  C   UNL     1      -5.813   2.663  -7.792  0.00  0.00    +0.226 C 
ENDBRANCH  37  39
ENDBRANCH   1  37
TORSDOF 8
