REMARK  Name = ZINC11859659
REMARK  6 active torsions:
REMARK  status: ('A' for Active; 'I' for Inactive)
REMARK    1  A    between atoms: C_1  and  C_2
REMARK    2  A    between atoms: C_5  and  C_8
REMARK    3  A    between atoms: C_8  and  O_9
REMARK    4  A    between atoms: O_9  and  C_10
REMARK    5  A    between atoms: C_13  and  N_37
REMARK    6  A    between atoms: C_15  and  C_16
REMARK                            x       y       z     vdW  Elec       q    Type
REMARK                         _______ _______ _______ _____ _____    ______ ____
ROOT
ATOM      1  C   UNL     1       0.683  -1.974   1.622  0.00  0.00    +0.125 A 
ATOM      2  C   UNL     1       0.677  -2.811   0.516  0.00  0.00    +0.048 A 
ATOM      3  C   UNL     1       0.062  -4.045   0.589  0.00  0.00    +0.036 A 
ATOM      4  C   UNL     1      -0.558  -4.442   1.760  0.00  0.00    +0.127 A 
ATOM      5  C   UNL     1      -0.558  -3.607   2.862  0.00  0.00    +0.040 A 
ATOM      6  C   UNL     1       0.061  -2.374   2.796  0.00  0.00    +0.005 A 
ENDROOT
BRANCH   6   7
ATOM      7  C   UNL     1       0.060  -1.464   3.997  0.00  0.00    +0.066 C 
ATOM      8  C   UNL     1       0.036  -0.026   3.546  0.00  0.00    +0.032 A 
ATOM      9  C   UNL     1       1.043   0.875   3.486  0.00  0.00    +0.087 A 
ATOM     10  N   UNL     1       0.699   2.129   3.040  0.00  0.00    -0.311 N 
ATOM     11  H   UNL     1       1.375   2.823   2.985  0.00  0.00    +0.170 HD
ATOM     12  C   UNL     1      -0.572   2.401   2.681  0.00  0.00    +0.289 A 
ATOM     13  O   UNL     1      -1.041   3.446   2.264  0.00  0.00    -0.260 OA
ATOM     14  S   UNL     1      -1.369   0.886   2.963  0.00  0.00    -0.030 S 
ATOM     15  S   UNL     1       2.716   0.434   3.948  0.00  0.00    -0.103 S 
ATOM     16  C   UNL     1       2.575  -1.370   3.976  0.00  0.00    +0.060 C 
ATOM     17  C   UNL     1       1.297  -1.678   4.790  0.00  0.00    +0.018 C 
ATOM     18  C   UNL     1       1.594  -2.934   5.602  0.00  0.00    -0.006 C 
ATOM     19  C   UNL     1       2.262  -2.291   6.878  0.00  0.00    +0.004 C 
ATOM     20  C   UNL     1       3.534  -1.587   6.293  0.00  0.00    +0.005 C 
ATOM     21  C   UNL     1       3.650  -2.082   4.826  0.00  0.00    +0.003 C 
ATOM     22  C   UNL     1       2.914  -3.481   4.933  0.00  0.00    +0.008 C 
ENDBRANCH   6   7
BRANCH   4  23
ATOM     23  N   UNL     1      -1.221  -5.764   1.834  0.00  0.00    +0.056 N 
ATOM     24  O   UNL     1      -1.766  -6.114   2.865  0.00  0.00    -0.126 OA
ATOM     25  O   UNL     1      -1.221  -6.500   0.864  0.00  0.00    -0.126 OA
ENDBRANCH   4  23
BRANCH   1  26
ATOM     26  O   UNL     1       1.292  -0.760   1.554  0.00  0.00    -0.487 OA
BRANCH  26  27
ATOM     27  C   UNL     1       1.912  -0.414   0.314  0.00  0.00    +0.264 C 
BRANCH  27  32
ATOM     28  C   UNL     1       4.284   4.837   0.747  0.00  0.00    +0.044 C 
ATOM     29  C   UNL     1       3.666   3.468   0.633  0.00  0.00    -0.050 A 
ATOM     30  C   UNL     1       4.406   2.346   0.957  0.00  0.00    +0.004 A 
ATOM     31  C   UNL     1       3.839   1.090   0.853  0.00  0.00    +0.007 A 
ATOM     32  C   UNL     1       2.531   0.955   0.427  0.00  0.00    -0.010 A 
ATOM     33  C   UNL     1       1.792   2.076   0.099  0.00  0.00    +0.007 A 
ATOM     34  C   UNL     1       2.358   3.333   0.206  0.00  0.00    +0.004 A 
ENDBRANCH  27  32
ENDBRANCH  26  27
ENDBRANCH   1  26
TORSDOF 5
