REMARK  Name = ZINC57608306
REMARK  9 active torsions:
REMARK  status: ('A' for Active; 'I' for Inactive)
REMARK    1  A    between atoms: C_1  and  C_2
REMARK    2  A    between atoms: C_7  and  C_14
REMARK    3  A    between atoms: C_14  and  C_16
REMARK    4  A    between atoms: C_14  and  N_27
REMARK    5  A    between atoms: N_20  and  C_21
REMARK    6  A    between atoms: N_27  and  C_28
REMARK    7  A    between atoms: N_27  and  C_34
REMARK    8  A    between atoms: C_28  and  C_29
REMARK    9  A    between atoms: C_34  and  C_35
REMARK                            x       y       z     vdW  Elec       q    Type
REMARK                         _______ _______ _______ _____ _____    ______ ____
ROOT
ATOM      1  C   UNL     1      -0.351  -6.848   2.080  0.00  0.00    +0.163 C 
ENDROOT
BRANCH   1   8
ATOM      2  C   UNL     1      -0.546   0.496   5.186  0.00  0.00    +0.044 C 
ATOM      3  C   UNL     1      -0.530  -0.785   4.393  0.00  0.00    -0.048 A 
ATOM      4  C   UNL     1      -0.632  -0.737   3.009  0.00  0.00    +0.004 A 
ATOM      5  C   UNL     1      -0.620  -1.886   2.271  0.00  0.00    +0.010 A 
ATOM      6  C   UNL     1      -0.504  -3.123   2.914  0.00  0.00    -0.001 A 
ATOM      7  C   UNL     1      -0.487  -4.374   2.154  0.00  0.00    +0.021 A 
ATOM      8  C   UNL     1      -0.372  -5.542   2.832  0.00  0.00    +0.042 A 
ATOM      9  C   UNL     1      -0.271  -5.540   4.240  0.00  0.00    +0.254 A 
ATOM     10  O   UNL     1      -0.167  -6.602   4.830  0.00  0.00    -0.268 OA
ATOM     11  N   UNL     1      -0.285  -4.396   4.947  0.00  0.00    -0.322 N 
ATOM     12  H   UNL     1      -0.213  -4.431   5.913  0.00  0.00    +0.169 HD
ATOM     13  C   UNL     1      -0.400  -3.175   4.317  0.00  0.00    +0.049 A 
ATOM     14  C   UNL     1      -0.409  -1.991   5.047  0.00  0.00    +0.029 A 
ENDBRANCH   1   8
BRANCH   1  15
ATOM     15  C   UNL     1       0.988  -7.513   2.265  0.00  0.00    +0.173 A 
ATOM     16  N   UNL     1       1.571  -7.795   3.404  0.00  0.00    -0.111 NA
ATOM     17  N   UNL     1       2.700  -8.360   3.145  0.00  0.00    -0.023 NA
ATOM     18  N   UNL     1       2.851  -8.446   1.869  0.00  0.00    -0.044 NA
ATOM     19  N   UNL     1       1.814  -7.940   1.292  0.00  0.00    -0.224 N 
BRANCH  19  20
ATOM     20  C   UNL     1       1.582  -7.844  -0.151  0.00  0.00    +0.111 C 
ATOM     21  C   UNL     1       1.704  -9.233  -0.781  0.00  0.00    +0.027 C 
ATOM     22  C   UNL     1       1.461  -9.133  -2.288  0.00  0.00    +0.002 C 
ATOM     23  C   UNL     1       2.500  -8.198  -2.911  0.00  0.00    +0.000 C 
ATOM     24  C   UNL     1       2.378  -6.809  -2.281  0.00  0.00    +0.002 C 
ATOM     25  C   UNL     1       2.621  -6.909  -0.774  0.00  0.00    +0.027 C 
ENDBRANCH  19  20
ENDBRANCH   1  15
BRANCH   1  26
ATOM     26  N   UNL     1      -1.410  -7.726   2.595  0.00  0.00    -0.279 NA
BRANCH  26  27
ATOM     27  C   UNL     1      -2.739  -7.221   2.225  0.00  0.00    +0.159 C 
BRANCH  27  28
ATOM     28  C   UNL     1      -3.105  -6.067   3.122  0.00  0.00    +0.119 A 
ATOM     29  C   UNL     1      -3.374  -4.812   2.718  0.00  0.00    +0.046 A 
ATOM     30  C   UNL     1      -3.666  -4.061   3.880  0.00  0.00    +0.041 A 
ATOM     31  C   UNL     1      -3.559  -4.903   4.924  0.00  0.00    +0.195 A 
ATOM     32  O   UNL     1      -3.225  -6.117   4.458  0.00  0.00    -0.467 OA
ENDBRANCH  27  28
ENDBRANCH  26  27
BRANCH  26  33
ATOM     33  C   UNL     1      -1.223  -9.106   2.129  0.00  0.00    +0.117 C 
BRANCH  33  34
ATOM     34  C   UNL     1      -0.349  -9.868   3.127  0.00  0.00    +0.132 C 
ATOM     35  C   UNL     1      -0.221 -11.344   2.692  0.00  0.00    +0.035 C 
ATOM     36  C   UNL     1      -0.292 -12.095   4.050  0.00  0.00    +0.031 C 
ATOM     37  C   UNL     1      -1.273 -11.190   4.836  0.00  0.00    +0.160 C 
ATOM     38  O   UNL     1      -0.960  -9.848   4.422  0.00  0.00    -0.375 OA
ENDBRANCH  33  34
ENDBRANCH  26  33
ENDBRANCH   1  26
TORSDOF 8
