REMARK  Name = ZINC19874855
REMARK  3 active torsions:
REMARK  status: ('A' for Active; 'I' for Inactive)
REMARK    1  A    between atoms: C_6  and  N_7
REMARK    2  A    between atoms: N_8  and  S_11
REMARK    3  A    between atoms: S_11  and  N_14
REMARK                            x       y       z     vdW  Elec       q    Type
REMARK                         _______ _______ _______ _____ _____    ______ ____
ROOT
ATOM      1  C   UNL     1      -0.756  -2.277  -0.003  0.00  0.00    +0.023 A 
ATOM      2  C   UNL     1      -1.030  -0.923   0.007  0.00  0.00    +0.007 A 
ATOM      3  C   UNL     1       0.002  -0.004   0.002  0.00  0.00    -0.023 A 
ATOM      4  C   UNL     1       1.323  -0.426  -0.013  0.00  0.00    +0.057 A 
ATOM      5  C   UNL     1       1.598  -1.794  -0.023  0.00  0.00    +0.047 A 
ATOM      6  C   UNL     1       0.562  -2.714  -0.017  0.00  0.00    +0.026 A 
ATOM      7  N   UNL     1       2.209   0.653  -0.015  0.00  0.00    -0.193 N 
ATOM      8  C   UNL     1       1.464   1.915  -0.002  0.00  0.00    +0.137 C 
ATOM      9  C   UNL     1      -0.018   1.508   0.010  0.00  0.00    +0.058 C 
ENDROOT
BRANCH   6  10
ATOM     10  N   UNL     1       0.844  -4.082  -0.028  0.00  0.00    -0.358 N 
ATOM     11  H   UNL     1       1.888  -4.428  -0.039  0.00  0.00    +0.142 HD
ATOM     12  H   UNL     1       0.022  -4.813  -0.024  0.00  0.00    +0.142 HD
ENDBRANCH   6  10
BRANCH   7  13
ATOM     13  S   UNL     1       3.860   0.525  -0.032  0.00  0.00    +0.109 S 
ATOM     14  O   UNL     1       4.365   1.733   0.521  0.00  0.00    -0.138 OA
ATOM     15  O   UNL     1       4.174  -0.750   0.510  0.00  0.00    -0.138 OA
BRANCH  13  16
ATOM     16  N   UNL     1       4.333   0.496  -1.618  0.00  0.00    -0.190 NA
ATOM     17  H   UNL     1       5.428   0.411  -1.672  0.00  0.00    +0.146 HD
ATOM     18  H   UNL     1       4.012   1.423  -2.114  0.00  0.00    +0.146 HD
ENDBRANCH  13  16
ENDBRANCH   7  13
TORSDOF 3
