REMARK  Name = ZINC39936510
REMARK  8 active torsions:
REMARK  status: ('A' for Active; 'I' for Inactive)
REMARK    1  A    between atoms: C_1  and  C_2
REMARK    2  A    between atoms: C_5  and  C_15
REMARK    3  A    between atoms: C_6  and  C_14
REMARK    4  A    between atoms: C_15  and  C_17
REMARK    5  A    between atoms: C_17  and  S_18
REMARK    6  A    between atoms: S_18  and  C_19
REMARK    7  A    between atoms: C_22  and  C_30
REMARK    8  A    between atoms: N_23  and  C_24
REMARK                            x       y       z     vdW  Elec       q    Type
REMARK                         _______ _______ _______ _____ _____    ______ ____
ROOT
ATOM      1  S   UNL     1      -4.924  -3.133   2.366  0.00  0.00    -0.078 S 
ENDROOT
BRANCH   1   2
ATOM      2  C   UNL     1      -6.470  -2.996   1.533  0.00  0.00    +0.193 A 
ATOM      3  N   UNL     1      -6.712  -2.291   0.450  0.00  0.00    -0.122 NA
ATOM      4  N   UNL     1      -7.944  -2.413   0.108  0.00  0.00    -0.125 NA
ATOM      5  C   UNL     1      -8.568  -3.205   0.953  0.00  0.00    +0.201 A 
ATOM      6  N   UNL     1      -7.640  -3.607   1.888  0.00  0.00    -0.297 N 
BRANCH   6   7
ATOM      7  C   UNL     1      -7.861  -4.501   3.028  0.00  0.00    +0.091 C 
ATOM      8  C   UNL     1      -7.543  -3.758   4.327  0.00  0.00    +0.025 C 
ATOM      9  C   UNL     1      -7.774  -4.691   5.518  0.00  0.00    +0.002 C 
ATOM     10  C   UNL     1      -6.862  -5.913   5.393  0.00  0.00    +0.000 C 
ATOM     11  C   UNL     1      -7.180  -6.656   4.093  0.00  0.00    +0.002 C 
ATOM     12  C   UNL     1      -6.949  -5.723   2.903  0.00  0.00    +0.025 C 
ENDBRANCH   6   7
BRANCH   5  13
ATOM     13  C   UNL     1      -9.986  -3.593   0.905  0.00  0.00    +0.172 A 
ATOM     14  C   UNL     1     -10.820  -3.445  -0.163  0.00  0.00    +0.053 A 
ATOM     15  C   UNL     1     -12.076  -3.948   0.231  0.00  0.00    +0.042 A 
ATOM     16  C   UNL     1     -11.950  -4.373   1.504  0.00  0.00    +0.196 A 
ATOM     17  O   UNL     1     -10.685  -4.163   1.906  0.00  0.00    -0.460 OA
ENDBRANCH   5  13
ENDBRANCH   1   2
BRANCH   1  18
ATOM     18  C   UNL     1      -3.806  -2.089   1.392  0.00  0.00    +0.156 C 
BRANCH  18  19
ATOM     19  C   UNL     1      -2.430  -2.118   2.005  0.00  0.00    +0.171 C 
ATOM     20  O   UNL     1      -2.223  -2.779   3.004  0.00  0.00    -0.291 OA
BRANCH  19  24
ATOM     21  C   UNL     1      -0.132   1.523  -0.045  0.00  0.00    +0.029 C 
ATOM     22  C   UNL     1      -0.056  -0.005  -0.027  0.00  0.00    +0.083 C 
ATOM     23  C   UNL     1      -1.465  -0.612   0.123  0.00  0.00    +0.062 C 
ATOM     24  C   UNL     1      -1.387  -1.381   1.424  0.00  0.00    +0.015 C 
ATOM     25  C   UNL     1      -0.146  -1.237   1.929  0.00  0.00    +0.017 C 
ATOM     26  N   UNL     1       0.671  -0.469   1.161  0.00  0.00    -0.270 N 
ATOM     27  C   UNL     1       1.992  -0.169   1.454  0.00  0.00    +0.218 A 
ATOM     28  N   UNL     1       2.682  -0.588   2.535  0.00  0.00    -0.247 N 
ATOM     29  H   UNL     1       2.353  -1.153   3.252  0.00  0.00    +0.192 HD
ATOM     30  N   UNL     1       3.972  -0.045   2.416  0.00  0.00    -0.160 NA
ATOM     31  C   UNL     1       3.993   0.649   1.310  0.00  0.00    +0.246 A 
ATOM     32  N   UNL     1       2.798   0.571   0.723  0.00  0.00    -0.201 NA
ATOM     33  C   UNL     1       0.296  -1.869   3.224  0.00  0.00    +0.061 C 
ENDBRANCH  19  24
ENDBRANCH  18  19
ENDBRANCH   1  18
TORSDOF 6
