REMARK  Name = ZINC02094953
REMARK  12 active torsions:
REMARK  status: ('A' for Active; 'I' for Inactive)
REMARK    1  A    between atoms: C_1  and  C_2
REMARK    2  A    between atoms: C_2  and  C_3
REMARK    3  A    between atoms: C_3  and  C_4
REMARK    4  A    between atoms: C_4  and  O_5
REMARK    5  A    between atoms: O_5  and  C_6
REMARK    6  A    between atoms: C_15  and  C_16
REMARK    7  A    between atoms: C_28  and  S_31
REMARK    8  A    between atoms: S_31  and  C_32
REMARK    9  A    between atoms: C_32  and  C_33
REMARK   10  A    between atoms: C_33  and  C_34
REMARK   11  A    between atoms: C_34  and  C_35
REMARK   12  A    between atoms: C_37  and  C_39
REMARK                            x       y       z     vdW  Elec       q    Type
REMARK                         _______ _______ _______ _____ _____    ______ ____
ROOT
ATOM      1  C   UNL     1      -0.055   1.065  -0.009  0.00  0.00    +0.307 C 
ATOM      2  N   UNL     1       1.304   1.531  -0.268  0.00  0.00    -0.231 N 
ATOM      3  C   UNL     1       1.507   2.885  -0.563  0.00  0.00    +0.049 A 
ATOM      4  C   UNL     1       2.165   3.723   0.318  0.00  0.00    +0.024 A 
ATOM      5  C   UNL     1       2.334   5.059   0.003  0.00  0.00    +0.002 A 
ATOM      6  C   UNL     1       1.849   5.563  -1.192  0.00  0.00    +0.001 A 
ATOM      7  C   UNL     1       1.196   4.737  -2.085  0.00  0.00    +0.012 A 
ATOM      8  C   UNL     1       1.024   3.392  -1.784  0.00  0.00    +0.029 A 
ATOM      9  C   UNL     1       0.362   2.466  -2.725  0.00  0.00    +0.156 A 
ATOM     10  C   UNL     1      -0.634   1.582  -2.252  0.00  0.00    +0.248 A 
ATOM     11  N   UNL     1      -1.208   0.754  -3.108  0.00  0.00    -0.184 NA
ATOM     12  C   UNL     1      -0.838   0.779  -4.385  0.00  0.00    +0.212 A 
ATOM     13  N   UNL     1       0.095   1.621  -4.811  0.00  0.00    -0.122 NA
ATOM     14  N   UNL     1       0.682   2.442  -4.010  0.00  0.00    -0.141 NA
ATOM     15  O   UNL     1      -0.985   1.600  -0.944  0.00  0.00    -0.448 OA
ATOM     16  C   UNL     1       2.343   0.674  -0.226  0.00  0.00    +0.220 C 
ATOM     17  O   UNL     1       2.145  -0.511  -0.060  0.00  0.00    -0.275 OA
ATOM     18  C   UNL     1       3.751   1.188  -0.385  0.00  0.00    +0.110 C 
ENDROOT
BRANCH   1  28
ATOM     19  C   UNL     1      -0.922   2.750   1.608  0.00  0.00    +0.129 A 
ATOM     20  C   UNL     1      -1.304   3.155   2.891  0.00  0.00    +0.047 A 
ATOM     21  C   UNL     1      -1.226   2.300   3.946  0.00  0.00    +0.012 A 
ATOM     22  C   UNL     1      -0.755   0.990   3.748  0.00  0.00    -0.017 A 
ATOM     23  C   UNL     1      -0.662   0.080   4.815  0.00  0.00    +0.008 A 
ATOM     24  C   UNL     1      -0.218  -1.186   4.585  0.00  0.00    +0.001 A 
ATOM     25  C   UNL     1       0.162  -1.591   3.307  0.00  0.00    +0.001 A 
ATOM     26  C   UNL     1       0.090  -0.737   2.250  0.00  0.00    +0.009 A 
ATOM     27  C   UNL     1      -0.374   0.576   2.447  0.00  0.00    -0.006 A 
ATOM     28  C   UNL     1      -0.461   1.485   1.380  0.00  0.00    +0.061 A 
BRANCH  19  29
ATOM     29  O   UNL     1      -1.012   3.627   0.574  0.00  0.00    -0.491 OA
BRANCH  29  30
ATOM     30  C   UNL     1      -1.615   4.894   0.848  0.00  0.00    +0.229 C 
BRANCH  30  31
ATOM     31  C   UNL     1      -1.749   5.687  -0.454  0.00  0.00    +0.041 C 
BRANCH  31  33
ATOM     32  C   UNL     1      -2.417   7.880  -1.446  0.00  0.00    +0.004 C 
ATOM     33  C   UNL     1      -2.283   7.087  -0.145  0.00  0.00    -0.000 C 
ENDBRANCH  31  33
ENDBRANCH  30  31
ENDBRANCH  29  30
ENDBRANCH  19  29
ENDBRANCH   1  28
BRANCH  12  34
ATOM     34  S   UNL     1      -1.601  -0.322  -5.530  0.00  0.00    -0.084 S 
BRANCH  34  35
ATOM     35  C   UNL     1      -0.732   0.151  -7.046  0.00  0.00    +0.077 C 
BRANCH  35  36
ATOM     36  C   UNL     1      -1.243  -0.698  -8.212  0.00  0.00    +0.011 C 
BRANCH  36  37
ATOM     37  C   UNL     1      -0.508  -0.298  -9.494  0.00  0.00    -0.003 C 
ATOM     38  C   UNL     1      -1.019  -1.147 -10.660  0.00  0.00    +0.004 C 
ENDBRANCH  36  37
ENDBRANCH  35  36
ENDBRANCH  34  35
ENDBRANCH  12  34
TORSDOF 9
