REMARK  Name = ZINC06486523
REMARK  6 active torsions:
REMARK  status: ('A' for Active; 'I' for Inactive)
REMARK    1  A    between atoms: C_3  and  C_6
REMARK    2  A    between atoms: C_9  and  C_24
REMARK    3  A    between atoms: C_12  and  C_14
REMARK    4  A    between atoms: C_14  and  O_15
REMARK    5  A    between atoms: O_15  and  C_16
REMARK    6  A    between atoms: C_16  and  C_18
REMARK                            x       y       z     vdW  Elec       q    Type
REMARK                         _______ _______ _______ _____ _____    ______ ____
ROOT
ATOM      1  C   UNL     1      -0.013   1.086   0.008  0.00  0.00    +0.173 C 
ATOM      2  C   UNL     1      -0.791   1.611   1.231  0.00  0.00    +0.090 C 
ATOM      3  C   UNL     1      -1.942   2.383   0.626  0.00  0.00    +0.069 C 
ATOM      4  N   UNL     1      -1.867   2.330  -0.659  0.00  0.00    -0.181 NA
ATOM      5  N   UNL     1      -0.778   1.600  -1.139  0.00  0.00    -0.179 N 
ATOM      6  C   UNL     1      -0.476   1.397  -2.437  0.00  0.00    +0.273 C 
ATOM      7  O   UNL     1       0.500   0.741  -2.737  0.00  0.00    -0.270 OA
ENDROOT
BRANCH   3   8
ATOM      8  C   UNL     1      -2.988   3.088   1.389  0.00  0.00    -0.002 A 
ATOM      9  C   UNL     1      -2.969   3.071   2.786  0.00  0.00    +0.011 A 
ATOM     10  C   UNL     1      -3.948   3.737   3.494  0.00  0.00    +0.020 A 
ATOM     11  C   UNL     1      -4.954   4.412   2.823  0.00  0.00    +0.041 A 
ATOM     12  C   UNL     1      -4.982   4.427   1.438  0.00  0.00    +0.020 A 
ATOM     13  C   UNL     1      -4.006   3.770   0.718  0.00  0.00    +0.011 A 
ATOM     14 CL   UNL     1      -6.186   5.241   3.721  0.00  0.00    -0.084 Cl
ENDBRANCH   3   8
BRANCH   1  17
ATOM     15  C   UNL     1       3.587   1.854   0.201  0.00  0.00    +0.041 A 
ATOM     16  C   UNL     1       2.499   0.967   0.369  0.00  0.00    +0.046 A 
ATOM     17  C   UNL     1       1.391   1.634  -0.003  0.00  0.00    +0.128 A 
ATOM     18  O   UNL     1       1.749   2.869  -0.390  0.00  0.00    -0.466 OA
ATOM     19  C   UNL     1       3.079   3.010  -0.263  0.00  0.00    +0.195 A 
ENDBRANCH   1  17
BRANCH   6  20
ATOM     20  C   UNL     1      -1.350   1.984  -3.515  0.00  0.00    +0.330 C 
BRANCH  20  21
ATOM     21  O   UNL     1      -0.819   1.627  -4.818  0.00  0.00    -0.451 OA
BRANCH  21  22
ATOM     22  C   UNL     1      -1.488   2.077  -5.896  0.00  0.00    +0.360 C 
ATOM     23  O   UNL     1      -2.489   2.749  -5.752  0.00  0.00    -0.243 OA
BRANCH  22  24
ATOM     24  C   UNL     1      -1.005   1.752  -7.257  0.00  0.00    +0.166 A 
ATOM     25  C   UNL     1      -1.700   2.212  -8.375  0.00  0.00    +0.145 A 
ATOM     26  N   UNL     1      -1.262   1.924  -9.587  0.00  0.00    -0.259 NA
ATOM     27  C   UNL     1      -0.172   1.192  -9.740  0.00  0.00    +0.130 A 
ATOM     28  C   UNL     1       0.519   0.728  -8.630  0.00  0.00    +0.131 A 
ATOM     29  N   UNL     1       0.091   1.015  -7.417  0.00  0.00    -0.245 NA
ENDBRANCH  22  24
ENDBRANCH  21  22
ENDBRANCH  20  21
ENDBRANCH   6  20
TORSDOF 6
