REMARK  Name = ZINC63140495
REMARK  5 active torsions:
REMARK  status: ('A' for Active; 'I' for Inactive)
REMARK    1  A    between atoms: C_1  and  O_2
REMARK    2  A    between atoms: O_2  and  C_3
REMARK    3  A    between atoms: C_6  and  C_9
REMARK    4  A    between atoms: N_28  and  C_31
REMARK    5  A    between atoms: C_31  and  C_32
REMARK                            x       y       z     vdW  Elec       q    Type
REMARK                         _______ _______ _______ _____ _____    ______ ____
ROOT
ATOM      1  C   UNL     1       2.371  -2.465   4.196  0.00  0.00    +0.133 C 
ATOM      2  C   UNL     1       3.785  -2.808   3.729  0.00  0.00    +0.131 C 
ATOM      3  C   UNL     1       4.353  -3.757   4.782  0.00  0.00    -0.034 C 
ATOM      4  C   UNL     1       5.420  -3.162   5.297  0.00  0.00    -0.001 A 
ATOM      5  C   UNL     1       6.384  -3.595   6.322  0.00  0.00    +0.010 A 
ATOM      6  C   UNL     1       7.377  -2.716   6.620  0.00  0.00    +0.001 A 
ATOM      7  C   UNL     1       7.506  -1.465   6.010  0.00  0.00    +0.002 A 
ATOM      8  C   UNL     1       6.666  -0.986   5.058  0.00  0.00    +0.026 A 
ATOM      9  C   UNL     1       5.582  -1.821   4.658  0.00  0.00    +0.043 A 
ATOM     10  N   UNL     1       4.641  -1.615   3.759  0.00  0.00    -0.375 N 
ATOM     11  C   UNL     1       3.691  -5.074   5.083  0.00  0.00    +0.065 C 
ATOM     12  C   UNL     1       2.194  -4.901   5.102  0.00  0.00    +0.167 C 
ATOM     13  N   UNL     1       1.643  -3.646   4.638  0.00  0.00    -0.279 N 
ATOM     14  C   UNL     1       0.273  -3.559   4.670  0.00  0.00    +0.234 C 
ATOM     15  O   UNL     1      -0.311  -2.584   4.245  0.00  0.00    -0.274 OA
ATOM     16  C   UNL     1      -0.474  -4.736   5.260  0.00  0.00    +0.204 C 
ATOM     17  N   UNL     1       0.217  -5.158   6.492  0.00  0.00    -0.287 N 
ATOM     18  C   UNL     1       1.575  -5.267   6.428  0.00  0.00    +0.237 C 
ATOM     19  O   UNL     1       2.241  -5.638   7.371  0.00  0.00    -0.274 OA
ATOM     20  H   UNL     1       4.523  -0.821   3.214  0.00  0.00    +0.160 HD
ENDROOT
BRANCH   1  24
ATOM     21  C   UNL     1       0.243  -0.650   0.965  0.00  0.00    +0.120 A 
ATOM     22  C   UNL     1       0.816   0.140   1.950  0.00  0.00    +0.046 A 
ATOM     23  C   UNL     1       1.503  -0.449   2.994  0.00  0.00    +0.009 A 
ATOM     24  C   UNL     1       1.620  -1.825   3.056  0.00  0.00    -0.025 A 
ATOM     25  C   UNL     1       1.050  -2.615   2.075  0.00  0.00    +0.009 A 
ATOM     26  C   UNL     1       0.357  -2.031   1.033  0.00  0.00    +0.046 A 
BRANCH  21  28
ATOM     27  C   UNL     1      -0.511   1.354  -0.068  0.00  0.00    +0.277 C 
ATOM     28  O   UNL     1      -0.434  -0.073  -0.063  0.00  0.00    -0.495 OA
ENDBRANCH  21  28
ENDBRANCH   1  24
BRANCH  17  29
ATOM     29  C   UNL     1      -0.518  -5.443   7.727  0.00  0.00    +0.145 C 
BRANCH  29  30
ATOM     30  C   UNL     1      -0.508  -4.223   8.611  0.00  0.00    -0.012 A 
ATOM     31  C   UNL     1       0.423  -4.112   9.627  0.00  0.00    +0.008 A 
ATOM     32  C   UNL     1       0.432  -2.994  10.438  0.00  0.00    +0.020 A 
ATOM     33  C   UNL     1      -0.490  -1.982  10.233  0.00  0.00    +0.042 A 
ATOM     34  C   UNL     1      -1.421  -2.092   9.217  0.00  0.00    +0.040 A 
ATOM     35  C   UNL     1      -1.427  -3.210   8.402  0.00  0.00    +0.047 A 
ATOM     36 CL   UNL     1      -2.592  -3.346   7.122  0.00  0.00    -0.083 Cl
ATOM     37 CL   UNL     1      -0.478  -0.577  11.252  0.00  0.00    -0.083 Cl
ENDBRANCH  29  30
ENDBRANCH  17  29
TORSDOF 4
