REMARK  Name = ZINC18475290
REMARK  12 active torsions:
REMARK  status: ('A' for Active; 'I' for Inactive)
REMARK    1  A    between atoms: C_1  and  C_2
REMARK    2  A    between atoms: C_2  and  C_3
REMARK    3  A    between atoms: C_2  and  C_4
REMARK    4  A    between atoms: C_7  and  C_10
REMARK    5  A    between atoms: C_10  and  C_11
REMARK    6  A    between atoms: C_11  and  N_12
REMARK    7  A    between atoms: C_13  and  C_15
REMARK    8  A    between atoms: C_15  and  O_16
REMARK    9  A    between atoms: O_16  and  C_17
REMARK   10  A    between atoms: C_20  and  S_26
REMARK   11  A    between atoms: C_22  and  N_23
REMARK   12  A    between atoms: S_26  and  N_29
REMARK                            x       y       z     vdW  Elec       q    Type
REMARK                         _______ _______ _______ _____ _____    ______ ____
ROOT
ATOM      1  C   UNL     1      -2.355   2.659   3.684  0.00  0.00    +0.151 A 
ATOM      2  C   UNL     1      -1.432   3.529   3.120  0.00  0.00    +0.050 A 
ATOM      3  C   UNL     1      -0.716   3.145   2.003  0.00  0.00    +0.032 A 
ATOM      4  C   UNL     1      -0.927   1.900   1.439  0.00  0.00    +0.108 A 
ATOM      5  C   UNL     1      -1.845   1.032   1.999  0.00  0.00    +0.065 A 
ATOM      6  C   UNL     1      -2.560   1.409   3.120  0.00  0.00    +0.169 A 
ENDROOT
BRANCH   6   7
ATOM      7  N   UNL     1      -3.544   0.479   3.718  0.00  0.00    +0.060 N 
ATOM      8  O   UNL     1      -3.724  -0.619   3.222  0.00  0.00    -0.126 OA
ATOM      9  O   UNL     1      -4.173   0.811   4.706  0.00  0.00    -0.126 OA
ENDBRANCH   6   7
BRANCH   4  10
ATOM     10  S   UNL     1      -0.017   1.417   0.010  0.00  0.00    +0.061 S 
ATOM     11  O   UNL     1       0.002  -0.004   0.002  0.00  0.00    -0.153 OA
ATOM     12  O   UNL     1       1.172   2.195   0.003  0.00  0.00    -0.153 OA
BRANCH  10  13
ATOM     13  N   UNL     1      -0.897   1.885  -1.312  0.00  0.00    -0.172 NA
ATOM     14  C   UNL     1      -1.888   0.984  -1.921  0.00  0.00    +0.137 C 
ATOM     15  C   UNL     1      -3.209   1.756  -2.073  0.00  0.00    +0.177 C 
ATOM     16  O   UNL     1      -2.958   2.982  -2.764  0.00  0.00    -0.377 OA
ATOM     17  C   UNL     1      -2.082   3.875  -2.072  0.00  0.00    +0.177 C 
ATOM     18  C   UNL     1      -0.708   3.214  -1.917  0.00  0.00    +0.137 C 
ENDBRANCH  10  13
ENDBRANCH   4  10
BRANCH   1  19
ATOM     19  O   UNL     1      -3.057   3.032   4.786  0.00  0.00    -0.480 OA
BRANCH  19  20
ATOM     20  C   UNL     1      -2.793   4.334   5.313  0.00  0.00    +0.324 C 
BRANCH  20  22
ATOM     21  N   UNL     1      -3.580   5.739   7.191  0.00  0.00    -0.312 N 
ATOM     22  C   UNL     1      -3.658   4.570   6.525  0.00  0.00    +0.251 C 
ATOM     23  O   UNL     1      -4.424   3.708   6.900  0.00  0.00    -0.272 OA
ATOM     24  H   UNL     1      -2.967   6.429   6.891  0.00  0.00    +0.149 HD
BRANCH  21  25
ATOM     25  C   UNL     1      -4.420   5.968   8.369  0.00  0.00    +0.109 C 
BRANCH  25  26
ATOM     26  C   UNL     1      -4.138   7.362   8.933  0.00  0.00    +0.054 C 
BRANCH  26  30
ATOM     27  C   UNL     1      -6.588   8.031  12.368  0.00  0.00    -0.045 A 
ATOM     28  C   UNL     1      -5.335   7.466  12.512  0.00  0.00    +0.004 A 
ATOM     29  C   UNL     1      -4.542   7.250  11.401  0.00  0.00    +0.004 A 
ATOM     30  C   UNL     1      -5.003   7.598  10.145  0.00  0.00    -0.046 A 
ATOM     31  C   UNL     1      -6.254   8.168  10.001  0.00  0.00    +0.004 A 
ATOM     32  C   UNL     1      -7.048   8.380  11.112  0.00  0.00    +0.004 A 
BRANCH  27  34
ATOM     33  C   UNL     1      -7.764   9.759  13.702  0.00  0.00    +0.012 C 
ATOM     34  C   UNL     1      -7.453   8.266  13.579  0.00  0.00    +0.013 C 
ATOM     35  C   UNL     1      -8.759   7.483  13.433  0.00  0.00    +0.012 C 
ENDBRANCH  27  34
ENDBRANCH  26  30
ENDBRANCH  25  26
ENDBRANCH  21  25
ENDBRANCH  20  22
ENDBRANCH  19  20
ENDBRANCH   1  19
TORSDOF 10
