REMARK  Name = ZINC03066595
REMARK  4 active torsions:
REMARK  status: ('A' for Active; 'I' for Inactive)
REMARK    1  A    between atoms: C_6  and  N_7
REMARK    2  A    between atoms: C_8  and  C_9
REMARK    3  A    between atoms: C_14  and  O_15
REMARK    4  A    between atoms: C_19  and  C_21
REMARK                            x       y       z     vdW  Elec       q    Type
REMARK                         _______ _______ _______ _____ _____    ______ ____
ROOT
ATOM      1  C   UNL     1      -1.215   1.747   0.017  0.00  0.00    +0.031 A 
ATOM      2  C   UNL     1      -0.013   1.076   0.008  0.00  0.00    +0.050 A 
ATOM      3  C   UNL     1       1.180   1.785   0.000  0.00  0.00    +0.156 A 
ATOM      4  C   UNL     1       1.164   3.190   0.008  0.00  0.00    +0.112 A 
ATOM      5  C   UNL     1      -0.054   3.869   0.024  0.00  0.00    +0.059 A 
ATOM      6  C   UNL     1      -1.243   3.147   0.032  0.00  0.00    +0.066 A 
ATOM      7  N   UNL     1       2.461   3.595  -0.002  0.00  0.00    -0.209 NA
ATOM      8  C   UNL     1       3.232   2.538  -0.015  0.00  0.00    +0.230 A 
ATOM      9  O   UNL     1       2.482   1.419  -0.014  0.00  0.00    -0.435 OA
ENDROOT
BRANCH   8  10
ATOM     10  C   UNL     1       4.709   2.567  -0.029  0.00  0.00    +0.057 A 
ATOM     11  C   UNL     1       5.434   1.373  -0.042  0.00  0.00    +0.034 A 
ATOM     12  C   UNL     1       6.814   1.408  -0.055  0.00  0.00    +0.042 A 
ATOM     13  C   UNL     1       7.479   2.622  -0.056  0.00  0.00    +0.021 A 
ATOM     14  C   UNL     1       6.768   3.808  -0.043  0.00  0.00    +0.022 A 
ATOM     15  C   UNL     1       5.387   3.788  -0.035  0.00  0.00    +0.053 A 
ATOM     16 CL   UNL     1       4.495   5.278  -0.027  0.00  0.00    -0.083 Cl
ATOM     17 CL   UNL     1       7.716  -0.075  -0.071  0.00  0.00    -0.084 Cl
ENDBRANCH   8  10
BRANCH   6  18
ATOM     18  N   UNL     1      -2.443   3.806   0.048  0.00  0.00    -0.255 NA
ATOM     19  C   UNL     1      -3.407   3.424  -0.743  0.00  0.00    +0.123 C 
BRANCH  19  20
ATOM     20  C   UNL     1      -4.696   4.132  -0.726  0.00  0.00    +0.037 A 
ATOM     21  C   UNL     1      -5.732   3.726  -1.573  0.00  0.00    +0.028 A 
ATOM     22  C   UNL     1      -6.938   4.394  -1.552  0.00  0.00    +0.020 A 
ATOM     23  C   UNL     1      -7.128   5.467  -0.695  0.00  0.00    +0.039 A 
ATOM     24  C   UNL     1      -6.112   5.878   0.147  0.00  0.00    +0.084 A 
ATOM     25  C   UNL     1      -4.895   5.215   0.143  0.00  0.00    +0.144 A 
ATOM     26 CL   UNL     1      -6.363   7.223   1.216  0.00  0.00    -0.080 Cl
ATOM     27 BR   UNL     1      -8.339   3.845  -2.698  0.00  0.00    -0.050 Br
BRANCH  25  28
ATOM     28  O   UNL     1      -3.898   5.614   0.974  0.00  0.00    -0.505 OA
ATOM     29  H   UNL     1      -3.313   6.283   0.593  0.00  0.00    +0.292 HD
ENDBRANCH  25  28
ENDBRANCH  19  20
ENDBRANCH   6  18
TORSDOF 4
