REMARK  Name = ZINC34830419
REMARK  6 active torsions:
REMARK  status: ('A' for Active; 'I' for Inactive)
REMARK    1  A    between atoms: C_1  and  C_2
REMARK    2  A    between atoms: C_7  and  C_8
REMARK    3  A    between atoms: N_17  and  C_18
REMARK    4  A    between atoms: C_18  and  C_20
REMARK    5  A    between atoms: C_18  and  C_21
REMARK    6  A    between atoms: C_30  and  C_32
REMARK                            x       y       z     vdW  Elec       q    Type
REMARK                         _______ _______ _______ _____ _____    ______ ____
ROOT
ATOM      1  C   UNL     1       1.891  -0.897   3.024  0.00  0.00    +0.018 C 
ATOM      2  C   UNL     1       2.518  -1.938   3.954  0.00  0.00    -0.004 C 
ENDROOT
BRANCH   1   3
ATOM      3  C   UNL     1       1.870  -1.430   1.615  0.00  0.00    +0.202 C 
ATOM      4  O   UNL     1       0.873  -1.972   1.187  0.00  0.00    -0.277 OA
ATOM      5  N   UNL     1       2.959  -1.304   0.830  0.00  0.00    -0.301 N 
ATOM      6  C   UNL     1       2.936  -1.692  -0.537  0.00  0.00    +0.109 C 
ATOM      7  C   UNL     1       3.193  -3.213  -0.787  0.00  0.00    +0.038 C 
ATOM      8  C   UNL     1       4.280  -3.676   0.238  0.00  0.00    +0.109 C 
ATOM      9  N   UNL     1       5.307  -2.724   0.482  0.00  0.00    -0.296 N 
ATOM     10  C   UNL     1       5.147  -1.848   1.671  0.00  0.00    +0.127 C 
ATOM     11  C   UNL     1       4.233  -0.749   1.355  0.00  0.00    +0.126 C 
ATOM     12  C   UNL     1       6.378  -2.620  -0.329  0.00  0.00    +0.249 C 
ATOM     13  O   UNL     1       7.277  -1.849  -0.054  0.00  0.00    -0.270 OA
BRANCH  12  14
ATOM     14  C   UNL     1       6.460  -3.442  -1.553  0.00  0.00    +0.072 A 
ATOM     15  C   UNL     1       6.375  -4.834  -1.471  0.00  0.00    +0.016 A 
ATOM     16  C   UNL     1       6.452  -5.596  -2.617  0.00  0.00    +0.001 A 
ATOM     17  C   UNL     1       6.612  -4.986  -3.850  0.00  0.00    +0.003 A 
ATOM     18  C   UNL     1       6.697  -3.610  -3.942  0.00  0.00    +0.039 A 
ATOM     19  C   UNL     1       6.616  -2.832  -2.801  0.00  0.00    +0.135 A 
ATOM     20  F   UNL     1       6.693  -1.486  -2.892  0.00  0.00    -0.205 F 
ENDBRANCH  12  14
ENDBRANCH   1   3
BRANCH   1  29
ATOM     21  C   UNL     1       0.557   0.103   4.742  0.00  0.00    -0.005 C 
ATOM     22  C   UNL     1      -0.871   0.302   5.240  0.00  0.00    -0.047 A 
ATOM     23  C   UNL     1      -1.241   1.252   6.189  0.00  0.00    +0.010 A 
ATOM     24  C   UNL     1      -2.535   1.360   6.570  0.00  0.00    +0.045 A 
ATOM     25  S   UNL     1      -3.318   0.093   5.582  0.00  0.00    -0.101 S 
ATOM     26  C   UNL     1      -1.870  -0.481   4.743  0.00  0.00    -0.010 A 
ATOM     27  C   UNL     1      -1.723  -1.566   3.726  0.00  0.00    +0.024 C 
ATOM     28  C   UNL     1      -0.222  -1.876   3.592  0.00  0.00    -0.071 C 
ATOM     29  N   UNL     1       0.518  -0.613   3.462  0.00  0.00    +0.395 N 
ATOM     30  H   UNL     1       0.064  -0.034   2.771  0.00  0.00    -0.079 HD
BRANCH  21  37
ATOM     31  C   UNL     1       1.969   1.343   6.937  0.00  0.00    +0.044 C 
ATOM     32  C   UNL     1       1.893   2.037   5.602  0.00  0.00    -0.049 A 
ATOM     33  C   UNL     1       2.504   3.265   5.425  0.00  0.00    +0.003 A 
ATOM     34  C   UNL     1       2.434   3.902   4.201  0.00  0.00    +0.000 A 
ATOM     35  C   UNL     1       1.754   3.311   3.152  0.00  0.00    +0.000 A 
ATOM     36  C   UNL     1       1.144   2.083   3.328  0.00  0.00    +0.002 A 
ATOM     37  C   UNL     1       1.218   1.444   4.552  0.00  0.00    -0.054 A 
ENDBRANCH  21  37
ENDBRANCH   1  29
TORSDOF 4
