REMARK  Name = ZINC39660402
REMARK  8 active torsions:
REMARK  status: ('A' for Active; 'I' for Inactive)
REMARK    1  A    between atoms: C_1  and  C_2
REMARK    2  A    between atoms: C_2  and  C_3
REMARK    3  A    between atoms: C_3  and  C_4
REMARK    4  A    between atoms: C_4  and  C_5
REMARK    5  A    between atoms: C_5  and  C_6
REMARK    6  A    between atoms: C_6  and  N_7
REMARK    7  A    between atoms: C_8  and  C_10
REMARK    8  A    between atoms: C_21  and  C_23
REMARK                            x       y       z     vdW  Elec       q    Type
REMARK                         _______ _______ _______ _____ _____    ______ ____
ROOT
ATOM      1  C   UNL     1       3.006  -6.331  -5.199  0.00  0.00    +0.100 C 
ATOM      2  C   UNL     1       4.443  -5.766  -5.257  0.00  0.00    +0.121 C 
ATOM      3  N   UNL     1       5.287  -6.829  -4.662  0.00  0.00    -0.297 N 
ATOM      4  C   UNL     1       4.707  -8.092  -5.177  0.00  0.00    +0.115 C 
ATOM      5  C   UNL     1       3.184  -7.858  -5.151  0.00  0.00    -0.004 C 
ATOM      6  C   UNL     1       2.529  -8.505  -6.367  0.00  0.00    -0.010 C 
ATOM      7  C   UNL     1       2.667 -10.027  -6.266  0.00  0.00    -0.082 C 
ATOM      8  N   UNL     1       2.027 -10.498  -5.032  0.00  0.00    +0.379 N 
ATOM      9  C   UNL     1       2.723  -9.944  -3.865  0.00  0.00    -0.082 C 
ATOM     10  C   UNL     1       2.587  -8.419  -3.863  0.00  0.00    -0.010 C 
ATOM     11  C   UNL     1       6.344  -6.680  -3.839  0.00  0.00    +0.260 C 
ATOM     12  O   UNL     1       6.938  -7.656  -3.433  0.00  0.00    -0.271 OA
ATOM     13  H   UNL     1       1.063 -10.201  -5.020  0.00  0.00    -0.086 HD
ATOM     14  H   UNL     1       2.066 -11.506  -4.998  0.00  0.00    -0.086 HD
ENDROOT
BRANCH  11  15
ATOM     15  C   UNL     1       6.787  -5.301  -3.424  0.00  0.00    +0.296 C 
ATOM     16  C   UNL     1       7.303  -4.532  -4.648  0.00  0.00    +0.283 C 
ATOM     17  O   UNL     1       7.728  -3.235  -4.216  0.00  0.00    -0.484 OA
ATOM     18  C   UNL     1       8.503  -3.186  -3.098  0.00  0.00    +0.162 A 
ATOM     19  C   UNL     1       9.239  -2.042  -2.830  0.00  0.00    +0.049 A 
ATOM     20  C   UNL     1      10.028  -1.976  -1.697  0.00  0.00    +0.004 A 
ATOM     21  C   UNL     1      10.085  -3.050  -0.828  0.00  0.00    +0.004 A 
ATOM     22  C   UNL     1       9.355  -4.193  -1.090  0.00  0.00    +0.049 A 
ATOM     23  C   UNL     1       8.562  -4.266  -2.226  0.00  0.00    +0.163 A 
ATOM     24  O   UNL     1       7.855  -5.403  -2.475  0.00  0.00    -0.473 OA
ENDBRANCH  11  15
BRANCH   1  26
ATOM     25  N   UNL     1       0.959  -5.712  -3.955  0.00  0.00    -0.315 N 
ATOM     26  C   UNL     1       2.301  -5.845  -3.959  0.00  0.00    +0.218 C 
ATOM     27  O   UNL     1       2.940  -5.574  -2.965  0.00  0.00    -0.275 OA
ATOM     28  H   UNL     1       0.448  -5.929  -4.751  0.00  0.00    +0.149 HD
BRANCH  25  29
ATOM     29  C   UNL     1       0.274  -5.240  -2.750  0.00  0.00    +0.104 C 
BRANCH  29  30
ATOM     30  C   UNL     1      -1.233  -5.179  -3.011  0.00  0.00    +0.019 C 
BRANCH  30  31
ATOM     31  C   UNL     1      -1.949  -4.686  -1.752  0.00  0.00    +0.002 C 
BRANCH  31  32
ATOM     32  C   UNL     1      -3.455  -4.626  -2.013  0.00  0.00    -0.000 C 
BRANCH  32  34
ATOM     33  C   UNL     1      -5.678  -4.072  -1.015  0.00  0.00    +0.004 C 
ATOM     34  C   UNL     1      -4.171  -4.132  -0.754  0.00  0.00    -0.003 C 
ENDBRANCH  32  34
ENDBRANCH  31  32
ENDBRANCH  30  31
ENDBRANCH  29  30
ENDBRANCH  25  29
ENDBRANCH   1  26
TORSDOF 7
