REMARK  Name = ZINC18070392
REMARK  15 active torsions:
REMARK  status: ('A' for Active; 'I' for Inactive)
REMARK    1  A    between atoms: C_1  and  C_2
REMARK    2  A    between atoms: C_6  and  C_33
REMARK    3  A    between atoms: C_7  and  O_8
REMARK    4  A    between atoms: O_8  and  C_9
REMARK    5  A    between atoms: C_9  and  C_10
REMARK    6  A    between atoms: N_12  and  N_13
REMARK    7  A    between atoms: C_14  and  C_16
REMARK    8  A    between atoms: C_16  and  C_18
REMARK    9  A    between atoms: C_16  and  N_19
REMARK   10  A    between atoms: N_19  and  S_20
REMARK   11  A    between atoms: S_20  and  C_23
REMARK   12  A    between atoms: C_24  and  C_32
REMARK   13  A    between atoms: C_25  and  C_31
REMARK   14  A    between atoms: C_27  and  C_30
REMARK   15  A    between atoms: C_28  and  C_29
REMARK                            x       y       z     vdW  Elec       q    Type
REMARK                         _______ _______ _______ _____ _____    ______ ____
ROOT
ATOM      1  N   UNL     1       1.882   2.552   0.534  0.00  0.00    -0.233 N 
ATOM      2  C   UNL     1       0.817   2.462   1.357  0.00  0.00    +0.247 C 
ATOM      3  O   UNL     1       0.859   2.965   2.459  0.00  0.00    -0.273 OA
ATOM      4  H   UNL     1       1.848   2.150  -0.348  0.00  0.00    +0.173 HD
ENDROOT
BRANCH   1   7
ATOM      5  C   UNL     1       4.100   3.315   0.132  0.00  0.00    +0.267 C 
ATOM      6  O   UNL     1       4.059   2.812  -0.971  0.00  0.00    -0.271 OA
ATOM      7  N   UNL     1       3.036   3.226   0.954  0.00  0.00    -0.232 N 
ATOM      8  H   UNL     1       3.070   3.628   1.836  0.00  0.00    +0.173 HD
BRANCH   5   9
ATOM      9  C   UNL     1       5.342   4.040   0.583  0.00  0.00    +0.326 C 
BRANCH   9  10
ATOM     10  O   UNL     1       6.322   3.998  -0.456  0.00  0.00    -0.482 OA
BRANCH  10  17
ATOM     11  C   UNL     1       6.558   6.721  -1.172  0.00  0.00    +0.047 C 
ATOM     12  C   UNL     1       7.685   5.946  -0.539  0.00  0.00    -0.009 A 
ATOM     13  C   UNL     1       8.892   6.568  -0.282  0.00  0.00    +0.007 A 
ATOM     14  C   UNL     1       9.928   5.856   0.294  0.00  0.00    +0.001 A 
ATOM     15  C   UNL     1       9.758   4.523   0.618  0.00  0.00    +0.007 A 
ATOM     16  C   UNL     1       8.552   3.898   0.368  0.00  0.00    -0.009 A 
ATOM     17  C   UNL     1       7.510   4.610  -0.209  0.00  0.00    +0.127 A 
ATOM     18  C   UNL     1       8.367   2.445   0.722  0.00  0.00    +0.047 C 
ENDBRANCH  10  17
ENDBRANCH   9  10
ENDBRANCH   5   9
ENDBRANCH   1   7
BRANCH   2  19
ATOM     19  C   UNL     1      -0.424   1.738   0.905  0.00  0.00    +0.160 C 
ATOM     20  C   UNL     1      -0.982   2.413  -0.349  0.00  0.00    +0.035 C 
BRANCH  19  21
ATOM     21  N   UNL     1      -1.429   1.780   1.971  0.00  0.00    -0.178 NA
ATOM     22  H   UNL     1      -1.526   2.578   2.514  0.00  0.00    +0.149 HD
BRANCH  21  23
ATOM     23  S   UNL     1      -2.399   0.467   2.248  0.00  0.00    +0.060 S 
ATOM     24  O   UNL     1      -3.213   0.792   3.366  0.00  0.00    -0.153 OA
ATOM     25  O   UNL     1      -2.946   0.094   0.990  0.00  0.00    -0.153 OA
BRANCH  23  26
ATOM     26  C   UNL     1      -1.352  -0.856   2.754  0.00  0.00    +0.112 A 
ATOM     27  C   UNL     1      -0.977  -1.828   1.845  0.00  0.00    -0.021 A 
ATOM     28  C   UNL     1      -0.151  -2.863   2.242  0.00  0.00    -0.045 A 
ATOM     29  C   UNL     1       0.290  -2.933   3.550  0.00  0.00    +0.007 A 
ATOM     30  C   UNL     1      -0.089  -1.964   4.460  0.00  0.00    -0.045 A 
ATOM     31  C   UNL     1      -0.910  -0.926   4.062  0.00  0.00    -0.021 A 
ATOM     32  C   UNL     1      -1.324   0.130   5.055  0.00  0.00    +0.046 C 
ATOM     33  C   UNL     1       0.392  -2.041   5.886  0.00  0.00    +0.044 C 
ATOM     34  C   UNL     1       0.263  -3.919   1.249  0.00  0.00    +0.044 C 
ATOM     35  C   UNL     1      -1.464  -1.755   0.421  0.00  0.00    +0.046 C 
ENDBRANCH  23  26
ENDBRANCH  21  23
ENDBRANCH  19  21
ENDBRANCH   2  19
TORSDOF 8
