REMARK  Name = ZINC37257030
REMARK  3 active torsions:
REMARK  status: ('A' for Active; 'I' for Inactive)
REMARK    1  A    between atoms: C_1  and  C_2
REMARK    2  A    between atoms: C_7  and  N_10
REMARK    3  A    between atoms: C_14  and  C_17
REMARK                            x       y       z     vdW  Elec       q    Type
REMARK                         _______ _______ _______ _____ _____    ______ ____
ROOT
ATOM      1  N   UNL     1       1.471  -2.526   2.420  0.00  0.00    -0.328 N 
ATOM      2  C   UNL     1       2.072  -3.772   2.406  0.00  0.00    +0.096 A 
ATOM      3  C   UNL     1       2.001  -4.556   1.254  0.00  0.00    +0.042 A 
ATOM      4  C   UNL     1       2.596  -5.788   1.243  0.00  0.00    +0.020 A 
ATOM      5  C   UNL     1       3.261  -6.221   2.402  0.00  0.00    +0.079 A 
ATOM      6  C   UNL     1       3.292  -5.383   3.520  0.00  0.00    +0.099 A 
ATOM      7  N   UNL     1       2.711  -4.202   3.486  0.00  0.00    -0.349 N 
ATOM      8  H   UNL     1       1.520  -1.974   3.216  0.00  0.00    +0.148 HD
ATOM      9  H   UNL     1       2.747  -3.634   4.271  0.00  0.00    +0.167 HD
ENDROOT
BRANCH   1  15
ATOM     10  C   UNL     1      -0.019   1.526   0.010  0.00  0.00    +0.007 C 
ATOM     11  C   UNL     1       0.002  -0.004   0.002  0.00  0.00    -0.012 C 
ATOM     12  C   UNL     1      -1.433  -0.534   0.013  0.00  0.00    +0.003 C 
ATOM     13  C   UNL     1      -1.413  -2.063   0.004  0.00  0.00    +0.002 C 
ATOM     14  C   UNL     1      -0.673  -2.570   1.244  0.00  0.00    +0.022 C 
ATOM     15  C   UNL     1       0.763  -2.041   1.233  0.00  0.00    +0.072 C 
ATOM     16  C   UNL     1       0.742  -0.511   1.242  0.00  0.00    +0.025 C 
ENDBRANCH   1  15
BRANCH   5  17
ATOM     17  C   UNL     1       3.916  -7.538   2.439  0.00  0.00    +0.388 C 
ATOM     18  O   UNL     1       3.884  -8.265   1.456  0.00  0.00    -0.241 OA
ATOM     19  O   UNL     1       4.493  -7.907   3.453  0.00  0.00    -0.241 OA
ENDBRANCH   5  17
TORSDOF 2
