REMARK  Name = ZINC34787458
REMARK  4 active torsions:
REMARK  status: ('A' for Active; 'I' for Inactive)
REMARK    1  A    between atoms: C_6  and  C_7
REMARK    2  A    between atoms: N_16  and  C_17
REMARK    3  A    between atoms: C_17  and  C_18
REMARK    4  A    between atoms: C_26  and  C_28
REMARK                            x       y       z     vdW  Elec       q    Type
REMARK                         _______ _______ _______ _____ _____    ______ ____
ROOT
ATOM      1  C   UNL     1      -1.821  -3.060  -3.832  0.00  0.00    +0.199 C 
ATOM      2  O   UNL     1      -1.778  -4.186  -3.383  0.00  0.00    -0.278 OA
ATOM      3  N   UNL     1      -1.317  -2.803  -5.056  0.00  0.00    -0.300 N 
ATOM      4  C   UNL     1      -1.357  -1.443  -5.610  0.00  0.00    +0.126 C 
ATOM      5  C   UNL     1       0.068  -1.029  -5.997  0.00  0.00    +0.127 C 
ATOM      6  N   UNL     1       0.668  -2.104  -6.800  0.00  0.00    -0.295 N 
ATOM      7  C   UNL     1       0.708  -3.464  -6.245  0.00  0.00    +0.127 C 
ATOM      8  C   UNL     1      -0.713  -3.877  -5.856  0.00  0.00    +0.126 C 
ATOM      9  C   UNL     1       1.172  -1.847  -8.023  0.00  0.00    +0.247 C 
ATOM     10  O   UNL     1       1.727  -2.729  -8.649  0.00  0.00    -0.270 OA
ENDROOT
BRANCH   9  11
ATOM     11  C   UNL     1       1.050  -0.495  -8.602  0.00  0.00    +0.041 A 
ATOM     12  C   UNL     1       1.458   0.621  -7.868  0.00  0.00    +0.017 A 
ATOM     13  C   UNL     1       1.344   1.882  -8.410  0.00  0.00    +0.050 A 
ATOM     14  C   UNL     1       0.824   2.049  -9.687  0.00  0.00    +0.166 A 
ATOM     15  C   UNL     1       0.414   0.939 -10.426  0.00  0.00    +0.167 A 
ATOM     16  C   UNL     1       0.531  -0.329  -9.889  0.00  0.00    +0.062 A 
ATOM     17  O   UNL     1      -0.053   1.368 -11.635  0.00  0.00    -0.453 OA
ATOM     18  C   UNL     1      -0.306   2.776 -11.470  0.00  0.00    +0.466 C 
ATOM     19  O   UNL     1       0.613   3.170 -10.434  0.00  0.00    -0.453 OA
ENDBRANCH   9  11
BRANCH   1  20
ATOM     20  C   UNL     1      -2.438  -1.948  -3.023  0.00  0.00    +0.020 C 
BRANCH  20  29
ATOM     21  C   UNL     1      -3.400  -1.376  -0.906  0.00  0.00    -0.005 C 
ATOM     22  C   UNL     1      -3.981  -1.948   0.382  0.00  0.00    -0.047 A 
ATOM     23  C   UNL     1      -4.176  -1.208   1.546  0.00  0.00    +0.010 A 
ATOM     24  C   UNL     1      -4.697  -1.800   2.646  0.00  0.00    +0.045 A 
ATOM     25  S   UNL     1      -4.945  -3.477   2.079  0.00  0.00    -0.101 S 
ATOM     26  C   UNL     1      -4.342  -3.262   0.430  0.00  0.00    -0.010 A 
ATOM     27  C   UNL     1      -4.234  -4.252  -0.684  0.00  0.00    +0.024 C 
ATOM     28  C   UNL     1      -3.975  -3.465  -1.980  0.00  0.00    -0.072 C 
ATOM     29  N   UNL     1      -2.909  -2.482  -1.738  0.00  0.00    +0.393 N 
ATOM     30  H   UNL     1      -2.142  -2.937  -1.266  0.00  0.00    -0.080 HD
BRANCH  21  36
ATOM     31  C   UNL     1      -2.461   0.920  -0.575  0.00  0.00    +0.004 A 
ATOM     32  C   UNL     1      -1.416   1.773  -0.273  0.00  0.00    +0.020 A 
ATOM     33  C   UNL     1      -0.168   1.257   0.026  0.00  0.00    +0.041 A 
ATOM     34  C   UNL     1       0.034  -0.112   0.023  0.00  0.00    +0.020 A 
ATOM     35  C   UNL     1      -1.012  -0.963  -0.279  0.00  0.00    +0.004 A 
ATOM     36  C   UNL     1      -2.260  -0.447  -0.578  0.00  0.00    -0.057 A 
ATOM     37 CL   UNL     1       1.146   2.327   0.405  0.00  0.00    -0.084 Cl
ENDBRANCH  21  36
ENDBRANCH  20  29
ENDBRANCH   1  20
TORSDOF 4
