REMARK  Name = ZINC12364919
REMARK  8 active torsions:
REMARK  status: ('A' for Active; 'I' for Inactive)
REMARK    1  A    between atoms: C_1  and  C_2
REMARK    2  A    between atoms: C_2  and  C_3
REMARK    3  A    between atoms: C_2  and  C_4
REMARK    4  A    between atoms: C_2  and  C_5
REMARK    5  A    between atoms: C_5  and  C_7
REMARK    6  A    between atoms: C_9  and  C_29
REMARK    7  A    between atoms: C_11  and  C_24
REMARK    8  A    between atoms: C_11  and  C_26
REMARK                            x       y       z     vdW  Elec       q    Type
REMARK                         _______ _______ _______ _____ _____    ______ ____
ROOT
ATOM      1  C   UNL     1      -2.873   4.307  -1.670  0.00  0.00    +0.150 C 
ATOM      2  C   UNL     1      -1.558   4.465  -0.859  0.00  0.00    +0.078 C 
ATOM      3  C   UNL     1      -2.007   4.542   0.624  0.00  0.00    +0.163 C 
ATOM      4  C   UNL     1      -3.527   4.349   0.560  0.00  0.00    +0.127 C 
ATOM      5  N   UNL     1      -3.891   4.878  -0.782  0.00  0.00    -0.310 N 
ATOM      6  C   UNL     1      -5.216   4.609  -1.035  0.00  0.00    +0.038 A 
ATOM      7  C   UNL     1      -5.683   4.139  -2.247  0.00  0.00    +0.025 A 
ATOM      8  C   UNL     1      -7.033   3.889  -2.415  0.00  0.00    +0.017 A 
ATOM      9  C   UNL     1      -7.923   4.105  -1.376  0.00  0.00    +0.019 A 
ATOM     10  C   UNL     1      -7.473   4.557  -0.166  0.00  0.00    +0.025 A 
ATOM     11  C   UNL     1      -6.123   4.822   0.019  0.00  0.00    -0.003 A 
ATOM     12  C   UNL     1      -5.601   5.336   1.308  0.00  0.00    +0.007 C 
ATOM     13  C   UNL     1      -4.306   5.106   1.591  0.00  0.00    -0.002 C 
ATOM     14 BR   UNL     1      -9.764   3.752  -1.627  0.00  0.00    -0.050 Br
ENDROOT
BRANCH   2  15
ATOM     15  C   UNL     1      -0.662   3.272  -1.074  0.00  0.00    -0.037 A 
ATOM     16  C   UNL     1      -1.045   2.011  -0.643  0.00  0.00    +0.024 A 
ATOM     17  C   UNL     1      -0.196   0.941  -0.854  0.00  0.00    +0.111 A 
ATOM     18  N   UNL     1       0.961   1.108  -1.465  0.00  0.00    -0.263 NA
ATOM     19  C   UNL     1       1.355   2.292  -1.893  0.00  0.00    +0.111 A 
ATOM     20  C   UNL     1       0.561   3.408  -1.713  0.00  0.00    +0.024 A 
ENDBRANCH   2  15
BRANCH   3  21
ATOM     21  C   UNL     1      -1.668   5.888   1.210  0.00  0.00    +0.233 C 
ATOM     22  O   UNL     1      -0.926   5.964   2.166  0.00  0.00    -0.274 OA
ATOM     23  N   UNL     1      -2.189   7.008   0.670  0.00  0.00    -0.328 N 
ATOM     24  H   UNL     1      -2.715   6.955  -0.143  0.00  0.00    +0.145 HD
ATOM     25  H   UNL     1      -2.038   7.867   1.095  0.00  0.00    +0.145 HD
ENDBRANCH   3  21
BRANCH   1  26
ATOM     26  C   UNL     1      -3.158   2.852  -1.940  0.00  0.00    +0.159 C 
ATOM     27  O   UNL     1      -3.731   2.185  -1.111  0.00  0.00    -0.295 OA
BRANCH  26  29
ATOM     28  C   UNL     1      -2.592   0.716  -3.064  0.00  0.00    +0.018 C 
ATOM     29  C   UNL     1      -2.729   2.229  -3.243  0.00  0.00    +0.022 C 
ATOM     30  C   UNL     1      -3.778   2.522  -4.318  0.00  0.00    +0.018 C 
ATOM     31  C   UNL     1      -1.383   2.816  -3.671  0.00  0.00    +0.018 C 
ENDBRANCH  26  29
ENDBRANCH   1  26
BRANCH   3  32
ATOM     32  C   UNL     1      -1.382   3.464   1.409  0.00  0.00    +0.082 C 
ATOM     33  N   UNL     1      -0.900   2.633   2.014  0.00  0.00    -0.195 NA
ENDBRANCH   3  32
TORSDOF 5
