REMARK  Name = ZINC23038623
REMARK  11 active torsions:
REMARK  status: ('A' for Active; 'I' for Inactive)
REMARK    1  A    between atoms: C_1  and  C_2
REMARK    2  A    between atoms: C_2  and  C_3
REMARK    3  A    between atoms: C_2  and  C_4
REMARK    4  A    between atoms: C_4  and  C_6
REMARK    5  A    between atoms: C_4  and  N_16
REMARK    6  A    between atoms: C_17  and  C_19
REMARK    7  A    between atoms: C_19  and  N_20
REMARK    8  A    between atoms: N_20  and  C_21
REMARK    9  A    between atoms: N_20  and  C_22
REMARK   10  A    between atoms: C_22  and  C_23
REMARK   11  A    between atoms: N_25  and  C_26
REMARK                            x       y       z     vdW  Elec       q    Type
REMARK                         _______ _______ _______ _____ _____    ______ ____
ROOT
ATOM      1  N   UNL     1      -4.681  -0.132  -0.818  0.00  0.00    -0.310 N 
ATOM      2  C   UNL     1      -5.678  -0.840  -1.386  0.00  0.00    +0.197 C 
ATOM      3  O   UNL     1      -5.779  -2.028  -1.167  0.00  0.00    -0.278 OA
ATOM      4  H   UNL     1      -4.590   0.946  -1.016  0.00  0.00    +0.149 HD
ENDROOT
BRANCH   1   5
ATOM      5  C   UNL     1      -3.720  -0.799   0.063  0.00  0.00    +0.106 C 
BRANCH   5   6
ATOM      6  C   UNL     1      -2.426  -0.025   0.072  0.00  0.00    -0.023 A 
ATOM      7  C   UNL     1      -2.449   1.357   0.086  0.00  0.00    +0.009 A 
ATOM      8  C   UNL     1      -1.265   2.070   0.090  0.00  0.00    +0.050 A 
ATOM      9  C   UNL     1      -0.051   1.400   0.086  0.00  0.00    +0.162 A 
ATOM     10  C   UNL     1      -0.028   0.011   0.073  0.00  0.00    +0.162 A 
ATOM     11  C   UNL     1      -1.220  -0.699   0.065  0.00  0.00    +0.055 A 
ATOM     12  O   UNL     1       1.153  -0.666   0.069  0.00  0.00    -0.485 OA
ATOM     13  C   UNL     1       2.319   0.077  -0.302  0.00  0.00    +0.270 C 
ATOM     14  C   UNL     1       2.298   1.412   0.455  0.00  0.00    +0.270 C 
ATOM     15  O   UNL     1       1.107   2.116   0.088  0.00  0.00    -0.485 OA
ENDBRANCH   5   6
BRANCH   5  17
ATOM     16  C   UNL     1      -5.599  -1.646   1.474  0.00  0.00    +0.009 C 
ATOM     17  C   UNL     1      -4.286  -0.861   1.483  0.00  0.00    +0.008 C 
ATOM     18  C   UNL     1      -3.282  -1.557   2.403  0.00  0.00    +0.009 C 
ENDBRANCH   5  17
ENDBRANCH   1   5
BRANCH   2  19
ATOM     19  C   UNL     1      -6.668  -0.154  -2.292  0.00  0.00    +0.019 C 
BRANCH  19  20
ATOM     20  N   UNL     1      -7.647  -1.134  -2.779  0.00  0.00    +0.389 N 
ATOM     21  C   UNL     1      -7.007  -2.129  -3.650  0.00  0.00    -0.095 C 
ATOM     22  H   UNL     1      -8.059  -1.663  -1.907  0.00  0.00    -0.081 HD
BRANCH  20  23
ATOM     23  C   UNL     1      -8.760  -0.469  -3.470  0.00  0.00    +0.019 C 
BRANCH  23  24
ATOM     24  C   UNL     1      -9.855  -1.468  -3.737  0.00  0.00    +0.201 C 
ATOM     25  O   UNL     1      -9.722  -2.622  -3.387  0.00  0.00    -0.278 OA
ATOM     26  N   UNL     1     -10.983  -1.081  -4.365  0.00  0.00    -0.286 N 
ATOM     27  H   UNL     1     -11.136  -0.021  -4.617  0.00  0.00    +0.155 HD
BRANCH  26  28
ATOM     28  C   UNL     1     -11.960  -2.027  -4.697  0.00  0.00    +0.047 A 
ATOM     29  C   UNL     1     -12.191  -3.111  -3.861  0.00  0.00    +0.024 A 
ATOM     30  C   UNL     1     -13.158  -4.040  -4.189  0.00  0.00    +0.002 A 
ATOM     31  C   UNL     1     -13.889  -3.898  -5.355  0.00  0.00    +0.001 A 
ATOM     32  C   UNL     1     -13.658  -2.823  -6.193  0.00  0.00    +0.017 A 
ATOM     33  C   UNL     1     -12.695  -1.886  -5.867  0.00  0.00    +0.039 A 
ATOM     34 BR   UNL     1     -12.379  -0.417  -7.014  0.00  0.00    -0.048 Br
ENDBRANCH  26  28
ENDBRANCH  23  24
ENDBRANCH  20  23
ENDBRANCH  19  20
ENDBRANCH   2  19
TORSDOF 8
