REMARK  Name = ZINC15299910
REMARK  13 active torsions:
REMARK  status: ('A' for Active; 'I' for Inactive)
REMARK    1  A    between atoms: C_1  and  C_2
REMARK    2  A    between atoms: C_2  and  C_3
REMARK    3  A    between atoms: C_3  and  N_65
REMARK    4  A    between atoms: C_4  and  C_5
REMARK    5  A    between atoms: C_4  and  N_65
REMARK    6  A    between atoms: N_7  and  C_8
REMARK    7  A    between atoms: C_13  and  O_14
REMARK    8  A    between atoms: O_14  and  C_15
REMARK    9  A    between atoms: C_16  and  C_17
REMARK   10  A    between atoms: C_16  and  N_65
REMARK   11  A    between atoms: N_19  and  C_20
REMARK   12  A    between atoms: N_19  and  C_26
REMARK   13  A    between atoms: C_20  and  C_21
REMARK                            x       y       z     vdW  Elec       q    Type
REMARK                         _______ _______ _______ _____ _____    ______ ____
ROOT
ATOM      1  N   UNL     1       2.305   0.437  -0.360  0.00  0.00    +0.391 N 
ATOM      2  H   UNL     1       2.055  -0.430   0.130  0.00  0.00    -0.080 HD
ENDROOT
BRANCH   1   3
ATOM      3  C   UNL     1       2.483   0.142  -1.797  0.00  0.00    -0.078 C 
BRANCH   3   5
ATOM      4  C   UNL     1       3.213   1.039  -4.012  0.00  0.00    +0.002 C 
ATOM      5  C   UNL     1       2.933   1.395  -2.550  0.00  0.00    -0.022 C 
ENDBRANCH   3   5
ENDBRANCH   1   3
BRANCH   1   6
ATOM      6  C   UNL     1       1.217   1.421  -0.177  0.00  0.00    +0.020 C 
BRANCH   6   7
ATOM      7  C   UNL     1      -0.090   0.777  -0.560  0.00  0.00    +0.201 C 
ATOM      8  O   UNL     1      -0.109  -0.369  -0.958  0.00  0.00    -0.278 OA
ATOM      9  N   UNL     1      -1.239   1.476  -0.467  0.00  0.00    -0.284 N 
ATOM     10  H   UNL     1      -1.232   2.371  -0.092  0.00  0.00    +0.155 HD
BRANCH   9  11
ATOM     11  C   UNL     1      -2.442   0.911  -0.910  0.00  0.00    +0.076 A 
ATOM     12  C   UNL     1      -2.655  -0.455  -0.788  0.00  0.00    +0.027 A 
ATOM     13  C   UNL     1      -3.844  -1.009  -1.222  0.00  0.00    +0.002 A 
ATOM     14  C   UNL     1      -4.819  -0.208  -1.787  0.00  0.00    +0.004 A 
ATOM     15  C   UNL     1      -4.612   1.153  -1.916  0.00  0.00    +0.047 A 
ATOM     16  C   UNL     1      -3.425   1.717  -1.479  0.00  0.00    +0.141 A 
BRANCH  16  17
ATOM     17  O   UNL     1      -3.219   3.055  -1.605  0.00  0.00    -0.493 OA
ATOM     18  C   UNL     1      -4.271   3.820  -2.198  0.00  0.00    +0.277 C 
ENDBRANCH  16  17
ENDBRANCH   9  11
ENDBRANCH   6   7
ENDBRANCH   1   6
BRANCH   1  19
ATOM     19  C   UNL     1       3.564   0.964   0.208  0.00  0.00    +0.020 C 
BRANCH  19  20
ATOM     20  C   UNL     1       4.538  -0.175   0.365  0.00  0.00    +0.203 C 
ATOM     21  O   UNL     1       4.219  -1.296   0.029  0.00  0.00    -0.277 OA
ATOM     22  N   UNL     1       5.763   0.052   0.877  0.00  0.00    -0.270 N 
BRANCH  22  23
ATOM     23  C   UNL     1       6.095   1.317   1.355  0.00  0.00    +0.010 C 
ATOM     24  C   UNL     1       5.474   1.753   2.416  0.00  0.00    -0.008 C 
ATOM     25  C   UNL     1       5.719   3.097   3.037  0.00  0.00    +0.029 C 
ATOM     26  C   UNL     1       7.045   3.674   2.537  0.00  0.00    +0.004 C 
ATOM     27  C   UNL     1       7.073   3.575   1.007  0.00  0.00    +0.006 C 
ATOM     28  C   UNL     1       7.149   2.094   0.622  0.00  0.00    +0.051 C 
ENDBRANCH  22  23
BRANCH  22  29
ATOM     29  C   UNL     1       6.747  -1.032   0.932  0.00  0.00    +0.187 C 
BRANCH  29  30
ATOM     30  C   UNL     1       7.585  -1.014  -0.320  0.00  0.00    +0.122 A 
ATOM     31  C   UNL     1       8.734  -0.334  -0.488  0.00  0.00    +0.046 A 
ATOM     32  C   UNL     1       9.179  -0.599  -1.803  0.00  0.00    +0.041 A 
ATOM     33  C   UNL     1       8.275  -1.425  -2.361  0.00  0.00    +0.195 A 
ATOM     34  O   UNL     1       7.315  -1.677  -1.456  0.00  0.00    -0.466 OA
ENDBRANCH  29  30
ENDBRANCH  22  29
ENDBRANCH  19  20
ENDBRANCH   1  19
TORSDOF 11
