REMARK  Name = ZINC35098560
REMARK  12 active torsions:
REMARK  status: ('A' for Active; 'I' for Inactive)
REMARK    1  A    between atoms: C_1  and  C_2
REMARK    2  A    between atoms: C_2  and  C_3
REMARK    3  A    between atoms: C_3  and  C_5
REMARK    4  A    between atoms: C_3  and  C_6
REMARK    5  A    between atoms: C_6  and  C_8
REMARK    6  A    between atoms: C_6  and  N_27
REMARK    7  A    between atoms: C_14  and  C_17
REMARK    8  A    between atoms: N_20  and  C_21
REMARK    9  A    between atoms: C_28  and  C_30
REMARK   10  A    between atoms: C_30  and  C_31
REMARK   11  A    between atoms: C_30  and  C_32
REMARK   12  A    between atoms: C_30  and  C_33
REMARK                            x       y       z     vdW  Elec       q    Type
REMARK                         _______ _______ _______ _____ _____    ______ ____
ROOT
ATOM      1  C   UNL     1      -3.238  -0.862  -1.436  0.00  0.00    +0.236 C 
ATOM      2  O   UNL     1      -4.183  -0.167  -1.744  0.00  0.00    -0.274 OA
ATOM      3  N   UNL     1      -3.411  -2.184  -1.236  0.00  0.00    -0.297 N 
ATOM      4  C   UNL     1      -2.299  -3.020  -0.763  0.00  0.00    +0.127 C 
ATOM      5  C   UNL     1      -2.102  -4.178  -1.750  0.00  0.00    +0.128 C 
ATOM      6  N   UNL     1      -3.406  -4.808  -2.001  0.00  0.00    -0.280 N 
ATOM      7  C   UNL     1      -4.518  -3.971  -2.474  0.00  0.00    +0.092 C 
ATOM      8  C   UNL     1      -4.716  -2.813  -1.481  0.00  0.00    +0.130 C 
ATOM      9  C   UNL     1      -4.190  -3.417  -3.861  0.00  0.00    +0.030 C 
ATOM     10  C   UNL     1      -3.579  -6.130  -1.800  0.00  0.00    +0.303 C 
ATOM     11  O   UNL     1      -4.630  -6.658  -2.106  0.00  0.00    -0.253 OA
ATOM     12  N   UNL     1      -2.587  -6.865  -1.262  0.00  0.00    -0.296 N 
ATOM     13  H   UNL     1      -1.778  -6.432  -0.946  0.00  0.00    +0.151 HD
ENDROOT
BRANCH  12  14
ATOM     14  C   UNL     1      -2.729  -8.319  -1.152  0.00  0.00    +0.074 C 
ATOM     15  C   UNL     1      -3.483  -8.662   0.134  0.00  0.00    +0.022 C 
ATOM     16  C   UNL     1      -3.631 -10.181   0.248  0.00  0.00    +0.002 C 
ATOM     17  C   UNL     1      -2.245 -10.828   0.282  0.00  0.00    +0.000 C 
ATOM     18  C   UNL     1      -1.491 -10.484  -1.004  0.00  0.00    +0.002 C 
ATOM     19  C   UNL     1      -1.343  -8.966  -1.118  0.00  0.00    +0.022 C 
ENDBRANCH  12  14
BRANCH   1  20
ATOM     20  C   UNL     1      -1.871  -0.248  -1.277  0.00  0.00    +0.162 C 
BRANCH  20  21
ATOM     21  N   UNL     1      -1.917   1.158  -1.683  0.00  0.00    -0.303 N 
ATOM     22  C   UNL     1      -0.838   1.731  -2.253  0.00  0.00    +0.220 C 
ATOM     23  O   UNL     1       0.136   1.059  -2.518  0.00  0.00    -0.275 OA
ATOM     24  H   UNL     1      -2.724   1.678  -1.542  0.00  0.00    +0.149 HD
BRANCH  22  25
ATOM     25  C   UNL     1      -0.843   3.206  -2.561  0.00  0.00    +0.055 C 
ATOM     26  C   UNL     1      -1.984   3.522  -3.530  0.00  0.00    +0.022 C 
ATOM     27  C   UNL     1      -1.040   3.997  -1.266  0.00  0.00    +0.022 C 
BRANCH  25  28
ATOM     28  C   UNL     1       0.492   3.598  -3.199  0.00  0.00    +0.124 C 
ATOM     29 CL   UNL     1       0.487   5.363  -3.567  0.00  0.00    -0.124 Cl
ENDBRANCH  25  28
ENDBRANCH  22  25
ENDBRANCH  20  21
BRANCH  20  30
ATOM     30  C   UNL     1      -1.437  -0.343   0.187  0.00  0.00    +0.015 C 
ATOM     31  C   UNL     1       0.016   0.118   0.318  0.00  0.00    +0.010 C 
BRANCH  30  33
ATOM     32  C   UNL     1      -3.749  -0.032   1.080  0.00  0.00    +0.004 C 
ATOM     33  C   UNL     1      -2.335   0.551   1.044  0.00  0.00    +0.002 C 
ENDBRANCH  30  33
ENDBRANCH  20  30
ENDBRANCH   1  20
TORSDOF 7
