REMARK  Name = ZINC13739204
REMARK  11 active torsions:
REMARK  status: ('A' for Active; 'I' for Inactive)
REMARK    1  A    between atoms: C_1  and  C_2
REMARK    2  A    between atoms: C_2  and  O_3
REMARK    3  A    between atoms: O_3  and  C_4
REMARK    4  A    between atoms: C_11  and  C_31
REMARK    5  A    between atoms: C_11  and  C_32
REMARK    6  A    between atoms: C_17  and  C_25
REMARK    7  A    between atoms: C_18  and  C_20
REMARK    8  A    between atoms: C_20  and  O_22
REMARK    9  A    between atoms: O_22  and  C_23
REMARK   10  A    between atoms: C_23  and  C_24
REMARK   11  A    between atoms: C_33  and  C_35
REMARK                            x       y       z     vdW  Elec       q    Type
REMARK                         _______ _______ _______ _____ _____    ______ ____
ROOT
ATOM      1  C   UNL     1      -7.826  -5.056  -0.398  0.00  0.00    +0.122 A 
ATOM      2  C   UNL     1      -6.651  -5.122   0.338  0.00  0.00    +0.046 A 
ATOM      3  C   UNL     1      -5.954  -3.968   0.644  0.00  0.00    +0.014 A 
ATOM      4  C   UNL     1      -6.436  -2.738   0.213  0.00  0.00    +0.006 A 
ATOM      5  C   UNL     1      -7.628  -2.674  -0.522  0.00  0.00    +0.048 A 
ATOM      6  C   UNL     1      -8.319  -3.833  -0.819  0.00  0.00    +0.069 A 
ATOM      7  N   UNL     1      -8.089  -1.421  -0.945  0.00  0.00    -0.261 N 
ATOM      8  C   UNL     1      -7.819  -0.244  -0.112  0.00  0.00    +0.069 C 
ATOM      9  C   UNL     1      -6.385  -0.261   0.349  0.00  0.00    +0.029 C 
ATOM     10  S   UNL     1      -5.571   1.212   0.666  0.00  0.00    -0.054 S 
ATOM     11  C   UNL     1      -5.717  -1.479   0.520  0.00  0.00    +0.017 C 
ATOM     12  C   UNL     1      -4.390  -1.507   0.966  0.00  0.00    +0.059 C 
ATOM     13  S   UNL     1      -3.376  -0.167   1.543  0.00  0.00    -0.080 S 
ATOM     14  C   UNL     1      -1.822  -0.891   1.946  0.00  0.00    +0.041 C 
ATOM     15  C   UNL     1      -1.776  -2.232   1.725  0.00  0.00    +0.111 C 
ATOM     16  S   UNL     1      -3.285  -2.892   1.103  0.00  0.00    -0.073 S 
ATOM     17  C   UNL     1      -8.745  -0.260   1.106  0.00  0.00    +0.037 C 
ATOM     18  C   UNL     1      -8.076   1.026  -0.927  0.00  0.00    +0.037 C 
ATOM     19  C   UNL     1      -8.770  -1.298  -2.102  0.00  0.00    +0.217 C 
ATOM     20  O   UNL     1      -9.143  -0.206  -2.473  0.00  0.00    -0.276 OA
ATOM     21  C   UNL     1      -9.069  -2.519  -2.933  0.00  0.00    +0.110 C 
ENDROOT
BRANCH  14  22
ATOM     22  C   UNL     1      -0.678  -0.117   2.469  0.00  0.00    -0.010 A 
ATOM     23  C   UNL     1      -0.160   0.951   1.734  0.00  0.00    +0.009 A 
ATOM     24  C   UNL     1       0.908   1.671   2.228  0.00  0.00    +0.001 A 
ATOM     25  C   UNL     1       1.466   1.336   3.449  0.00  0.00    +0.000 A 
ATOM     26  C   UNL     1       0.958   0.278   4.182  0.00  0.00    +0.001 A 
ATOM     27  C   UNL     1      -0.110  -0.450   3.700  0.00  0.00    +0.009 A 
ENDBRANCH  14  22
BRANCH  15  28
ATOM     28  C   UNL     1      -0.625  -3.022   1.973  0.00  0.00    +0.347 C 
ATOM     29  O   UNL     1       0.401  -2.497   2.363  0.00  0.00    -0.244 OA
BRANCH  28  30
ATOM     30  O   UNL     1      -0.667  -4.357   1.776  0.00  0.00    -0.461 OA
BRANCH  30  31
ATOM     31  C   UNL     1       0.529  -5.091   2.046  0.00  0.00    +0.229 C 
ATOM     32  C   UNL     1       0.290  -6.576   1.768  0.00  0.00    +0.048 C 
ENDBRANCH  30  31
ENDBRANCH  28  30
ENDBRANCH  15  28
BRANCH   1  33
ATOM     33  O   UNL     1      -8.503  -6.197  -0.695  0.00  0.00    -0.492 OA
BRANCH  33  35
ATOM     34  C   UNL     1      -8.839  -8.590  -0.648  0.00  0.00    +0.048 C 
ATOM     35  C   UNL     1      -7.946  -7.424  -0.219  0.00  0.00    +0.225 C 
ENDBRANCH  33  35
ENDBRANCH   1  33
TORSDOF 6
