REMARK  Name = ZINC40315379
REMARK  11 active torsions:
REMARK  status: ('A' for Active; 'I' for Inactive)
REMARK    1  A    between atoms: C_1  and  C_2
REMARK    2  A    between atoms: C_6  and  O_9
REMARK    3  A    between atoms: C_7  and  C_8
REMARK    4  A    between atoms: O_9  and  C_10
REMARK    5  A    between atoms: C_10  and  C_11
REMARK    6  A    between atoms: C_11  and  C_13
REMARK    7  A    between atoms: C_11  and  O_32
REMARK    8  A    between atoms: C_13  and  N_14
REMARK    9  A    between atoms: N_14  and  C_15
REMARK   10  A    between atoms: N_14  and  C_24
REMARK   11  A    between atoms: C_15  and  C_16
REMARK                            x       y       z     vdW  Elec       q    Type
REMARK                         _______ _______ _______ _____ _____    ______ ____
ROOT
ATOM      1  N   UNL     1       1.718  -6.955   4.228  0.00  0.00    +0.387 N 
ATOM      2  H   UNL     1       2.441  -6.603   4.836  0.00  0.00    -0.081 HD
ENDROOT
BRANCH   1   3
ATOM      3  C   UNL     1       0.667  -5.940   4.076  0.00  0.00    -0.045 C 
ATOM      4  C   UNL     1      -0.044  -5.724   5.422  0.00  0.00    +0.009 C 
ATOM      5  C   UNL     1      -1.343  -4.909   5.207  0.00  0.00    +0.164 C 
ATOM      6  S   UNL     1      -1.815  -5.348   3.485  0.00  0.00    -0.033 S 
ATOM      7  O   UNL     1      -1.776  -4.176   2.682  0.00  0.00    -0.174 OA
ATOM      8  O   UNL     1      -2.998  -6.135   3.517  0.00  0.00    -0.174 OA
ATOM      9  C   UNL     1      -0.389  -6.426   3.043  0.00  0.00    +0.151 C 
ENDBRANCH   1   3
BRANCH   1  10
ATOM     10  C   UNL     1       2.293  -7.265   2.912  0.00  0.00    -0.043 C 
BRANCH  10  11
ATOM     11  C   UNL     1       3.056  -6.045   2.389  0.00  0.00    +0.135 C 
BRANCH  11  12
ATOM     12  O   UNL     1       2.132  -4.995   2.098  0.00  0.00    -0.390 OA
ATOM     13  H   UNL     1       1.433  -5.246   1.480  0.00  0.00    +0.210 HD
ENDBRANCH  11  12
BRANCH  11  14
ATOM     14  C   UNL     1       3.814  -6.426   1.116  0.00  0.00    +0.258 C 
BRANCH  14  15
ATOM     15  O   UNL     1       4.618  -5.322   0.693  0.00  0.00    -0.489 OA
BRANCH  15  21
ATOM     16  C   UNL     1       7.790  -3.525  -2.552  0.00  0.00    +0.044 C 
ATOM     17  C   UNL     1       6.918  -4.644  -2.043  0.00  0.00    -0.044 A 
ATOM     18  C   UNL     1       6.872  -5.848  -2.722  0.00  0.00    +0.004 A 
ATOM     19  C   UNL     1       6.073  -6.876  -2.258  0.00  0.00    +0.004 A 
ATOM     20  C   UNL     1       5.317  -6.702  -1.114  0.00  0.00    +0.046 A 
ATOM     21  C   UNL     1       5.361  -5.495  -0.432  0.00  0.00    +0.124 A 
ATOM     22  C   UNL     1       6.168  -4.467  -0.896  0.00  0.00    -0.006 A 
ATOM     23  C   UNL     1       6.223  -3.157  -0.154  0.00  0.00    +0.048 C 
ENDBRANCH  15  21
ENDBRANCH  14  15
ENDBRANCH  11  14
ENDBRANCH  10  11
ENDBRANCH   1  10
BRANCH   1  24
ATOM     24  C   UNL     1       1.140  -8.175   4.808  0.00  0.00    -0.041 C 
BRANCH  24  25
ATOM     25  C   UNL     1       1.733  -8.411   6.173  0.00  0.00    -0.046 A 
ATOM     26  C   UNL     1       3.104  -8.370   6.348  0.00  0.00    +0.004 A 
ATOM     27  C   UNL     1       3.648  -8.586   7.600  0.00  0.00    +0.020 A 
ATOM     28  C   UNL     1       2.821  -8.844   8.679  0.00  0.00    +0.042 A 
ATOM     29  C   UNL     1       1.450  -8.884   8.505  0.00  0.00    +0.040 A 
ATOM     30  C   UNL     1       0.905  -8.663   7.253  0.00  0.00    +0.044 A 
ATOM     31 CL   UNL     1      -0.817  -8.707   7.035  0.00  0.00    -0.083 Cl
ATOM     32 CL   UNL     1       3.506  -9.116  10.251  0.00  0.00    -0.083 Cl
ENDBRANCH  24  25
ENDBRANCH   1  24
TORSDOF 9
