REMARK  Name = ZINC11441287
REMARK  9 active torsions:
REMARK  status: ('A' for Active; 'I' for Inactive)
REMARK    1  A    between atoms: C_1  and  C_2
REMARK    2  A    between atoms: C_5  and  N_9
REMARK    3  A    between atoms: C_10  and  C_12
REMARK    4  A    between atoms: C_12  and  O_13
REMARK    5  A    between atoms: O_13  and  C_14
REMARK    6  A    between atoms: C_14  and  C_16
REMARK    7  A    between atoms: C_16  and  C_17
REMARK    8  A    between atoms: C_17  and  N_18
REMARK    9  A    between atoms: N_21  and  C_22
REMARK                            x       y       z     vdW  Elec       q    Type
REMARK                         _______ _______ _______ _____ _____    ______ ____
ROOT
ATOM      1  C   UNL     1       4.837   0.677  -0.003  0.00  0.00    +0.139 C 
ENDROOT
BRANCH   1   2
ATOM      2  C   UNL     1       3.630   1.579   0.008  0.00  0.00    +0.309 C 
ATOM      3  O   UNL     1       3.772   2.779   0.018  0.00  0.00    -0.251 OA
BRANCH   2   4
ATOM      4  O   UNL     1       2.396   1.050   0.007  0.00  0.00    -0.455 OA
BRANCH   4   5
ATOM      5  C   UNL     1       1.280   1.979   0.018  0.00  0.00    +0.328 C 
BRANCH   5   7
ATOM      6  N   UNL     1      -1.191   1.867   0.018  0.00  0.00    -0.282 N 
ATOM      7  C   UNL     1      -0.015   1.208   0.015  0.00  0.00    +0.255 C 
ATOM      8  O   UNL     1       0.001  -0.004   0.004  0.00  0.00    -0.272 OA
ATOM      9  H   UNL     1      -1.205   2.834   0.092  0.00  0.00    +0.155 HD
BRANCH   6  14
ATOM     10  C   UNL     1      -6.059  -1.018  -0.401  0.00  0.00    +0.044 C 
ATOM     11  C   UNL     1      -4.766  -0.252  -0.290  0.00  0.00    -0.049 A 
ATOM     12  C   UNL     1      -3.696  -0.798   0.395  0.00  0.00    +0.005 A 
ATOM     13  C   UNL     1      -2.510  -0.099   0.499  0.00  0.00    +0.025 A 
ATOM     14  C   UNL     1      -2.391   1.155  -0.086  0.00  0.00    +0.048 A 
ATOM     15  C   UNL     1      -3.469   1.704  -0.770  0.00  0.00    +0.039 A 
ATOM     16  C   UNL     1      -4.652   0.997  -0.874  0.00  0.00    +0.020 A 
ATOM     17 BR   UNL     1      -3.316   3.414  -1.562  0.00  0.00    -0.048 Br
ENDBRANCH   6  14
ENDBRANCH   5   7
ENDBRANCH   4   5
ENDBRANCH   2   4
ENDBRANCH   1   2
BRANCH   1  18
ATOM     18  C   UNL     1       6.109   1.527   0.002  0.00  0.00    +0.117 C 
BRANCH  18  19
ATOM     19  N   UNL     1       7.283   0.650  -0.009  0.00  0.00    -0.299 N 
ATOM     20  C   UNL     1       8.521   1.182  -0.008  0.00  0.00    +0.300 C 
ATOM     21  O   UNL     1       8.665   2.389   0.002  0.00  0.00    -0.253 OA
ATOM     22  N   UNL     1       9.601   0.375  -0.018  0.00  0.00    -0.294 N 
ATOM     23  H   UNL     1       7.168  -0.313  -0.017  0.00  0.00    +0.150 HD
ATOM     24  H   UNL     1       9.486  -0.588  -0.025  0.00  0.00    +0.151 HD
BRANCH  22  25
ATOM     25  C   UNL     1      10.947   0.953  -0.016  0.00  0.00    +0.037 C 
ATOM     26  C   UNL     1      11.128   1.828  -1.258  0.00  0.00    +0.029 C 
ATOM     27  C   UNL     1      12.534   2.431  -1.257  0.00  0.00    -0.008 C 
ATOM     28  C   UNL     1      13.571   1.307  -1.269  0.00  0.00    +0.007 C 
ATOM     29  C   UNL     1      13.390   0.432  -0.027  0.00  0.00    -0.008 C 
ATOM     30  C   UNL     1      11.985  -0.171  -0.028  0.00  0.00    +0.029 C 
ATOM     31  C   UNL     1      13.578   1.285   1.229  0.00  0.00    +0.007 C 
ATOM     32  C   UNL     1      12.540   2.409   1.242  0.00  0.00    -0.008 C 
ATOM     33  C   UNL     1      12.721   3.284  -0.000  0.00  0.00    +0.007 C 
ATOM     34  C   UNL     1      11.134   1.806   1.240  0.00  0.00    +0.029 C 
ENDBRANCH  22  25
ENDBRANCH  18  19
ENDBRANCH   1  18
TORSDOF 8
