REMARK  Name = ZINC15988689
REMARK  8 active torsions:
REMARK  status: ('A' for Active; 'I' for Inactive)
REMARK    1  A    between atoms: C_4  and  S_7
REMARK    2  A    between atoms: S_7  and  C_10
REMARK    3  A    between atoms: C_10  and  C_11
REMARK    4  A    between atoms: C_14  and  C_16
REMARK    5  A    between atoms: N_18  and  C_19
REMARK    6  A    between atoms: C_19  and  C_20
REMARK    7  A    between atoms: C_20  and  C_22
REMARK    8  A    between atoms: C_20  and  N_57
REMARK                            x       y       z     vdW  Elec       q    Type
REMARK                         _______ _______ _______ _____ _____    ______ ____
ROOT
ATOM      1  C   UNL     1       1.781   4.578   0.603  0.00  0.00    +0.279 C 
ATOM      2  O   UNL     1       2.995   4.604   0.523  0.00  0.00    -0.267 OA
ATOM      3  N   UNL     1       1.070   5.711   0.441  0.00  0.00    -0.310 N 
ATOM      4  H   UNL     1       0.102   5.690   0.505  0.00  0.00    +0.149 HD
ENDROOT
BRANCH   1   8
ATOM      5  C   UNL     1      -0.509   1.855   1.233  0.00  0.00    +0.127 A 
ATOM      6  C   UNL     1       0.657   1.173   1.290  0.00  0.00    +0.047 A 
ATOM      7  C   UNL     1       1.688   2.097   1.059  0.00  0.00    +0.055 A 
ATOM      8  C   UNL     1       1.092   3.312   0.875  0.00  0.00    +0.189 A 
ATOM      9  O   UNL     1      -0.242   3.144   0.988  0.00  0.00    -0.453 OA
BRANCH   5  10
ATOM     10  C   UNL     1      -1.882   1.262   1.417  0.00  0.00    +0.245 C 
BRANCH  10  11
ATOM     11  S   UNL     1      -2.338   1.328   3.172  0.00  0.00    +0.004 S 
ATOM     12  O   UNL     1      -1.514   0.449   3.925  0.00  0.00    -0.169 OA
ATOM     13  O   UNL     1      -2.522   2.677   3.579  0.00  0.00    -0.169 OA
BRANCH  11  17
ATOM     14  C   UNL     1      -6.470  -0.510   3.369  0.00  0.00    +0.000 A 
ATOM     15  C   UNL     1      -5.351  -1.310   3.507  0.00  0.00    +0.002 A 
ATOM     16  C   UNL     1      -4.089  -0.748   3.446  0.00  0.00    +0.027 A 
ATOM     17  C   UNL     1      -3.946   0.612   3.248  0.00  0.00    +0.089 A 
ATOM     18  C   UNL     1      -5.066   1.413   3.117  0.00  0.00    +0.027 A 
ATOM     19  C   UNL     1      -6.328   0.850   3.171  0.00  0.00    +0.002 A 
ENDBRANCH  11  17
ENDBRANCH  10  11
ENDBRANCH   5  10
ENDBRANCH   1   8
BRANCH   3  20
ATOM     20  C   UNL     1       1.759   6.975   0.169  0.00  0.00    +0.097 C 
BRANCH  20  21
ATOM     21  C   UNL     1       0.725   8.073  -0.090  0.00  0.00    +0.016 C 
BRANCH  21  27
ATOM     22  C   UNL     1      -1.265   9.132   0.792  0.00  0.00    -0.078 C 
ATOM     23  C   UNL     1      -2.298   9.074   1.920  0.00  0.00    -0.019 C 
ATOM     24  C   UNL     1      -1.605   9.363   3.255  0.00  0.00    -0.004 C 
ATOM     25  C   UNL     1      -0.479   8.347   3.467  0.00  0.00    -0.019 C 
ATOM     26  C   UNL     1       0.501   8.427   2.295  0.00  0.00    -0.078 C 
ATOM     27  N   UNL     1      -0.222   8.115   1.043  0.00  0.00    +0.387 N 
ATOM     28  H   UNL     1      -0.669   7.196   1.137  0.00  0.00    -0.081 HD
ENDBRANCH  21  27
BRANCH  21  29
ATOM     29  C   UNL     1       1.428   9.398  -0.242  0.00  0.00    +0.093 A 
ATOM     30  C   UNL     1       1.577  10.082  -1.391  0.00  0.00    +0.043 A 
ATOM     31  C   UNL     1       2.292  11.260  -1.076  0.00  0.00    +0.041 A 
ATOM     32  C   UNL     1       2.536  11.227   0.246  0.00  0.00    +0.195 A 
ATOM     33  O   UNL     1       2.005  10.099   0.747  0.00  0.00    -0.469 OA
ENDBRANCH  21  29
ENDBRANCH  20  21
ENDBRANCH   3  20
TORSDOF 8
