REMARK  Name = ZINC35664595
REMARK  11 active torsions:
REMARK  status: ('A' for Active; 'I' for Inactive)
REMARK    1  A    between atoms: C_1  and  C_2
REMARK    2  A    between atoms: C_2  and  O_3
REMARK    3  A    between atoms: O_3  and  C_4
REMARK    4  A    between atoms: C_4  and  C_6
REMARK    5  A    between atoms: C_7  and  C_23
REMARK    6  A    between atoms: N_8  and  C_20
REMARK    7  A    between atoms: C_12  and  C_14
REMARK    8  A    between atoms: C_20  and  C_21
REMARK    9  A    between atoms: C_23  and  N_24
REMARK   10  A    between atoms: N_27  and  S_30
REMARK   11  A    between atoms: S_30  and  C_33
REMARK                            x       y       z     vdW  Elec       q    Type
REMARK                         _______ _______ _______ _____ _____    ______ ____
ROOT
ATOM      1  C   UNL     1      -2.796  -2.417   0.163  0.00  0.00    +0.080 C 
ATOM      2  C   UNL     1      -2.985  -3.731  -0.085  0.00  0.00    +0.041 C 
ATOM      3  N   UNL     1      -4.240  -4.249  -0.223  0.00  0.00    -0.254 N 
ATOM      4  C   UNL     1      -5.359  -3.519  -0.129  0.00  0.00    +0.307 C 
ATOM      5  O   UNL     1      -6.434  -4.071  -0.268  0.00  0.00    -0.252 OA
ATOM      6  N   UNL     1      -5.333  -2.194   0.114  0.00  0.00    -0.288 N 
ATOM      7  C   UNL     1      -4.025  -1.539   0.286  0.00  0.00    +0.144 C 
ATOM      8  H   UNL     1      -6.156  -1.685   0.178  0.00  0.00    +0.151 HD
ENDROOT
BRANCH   7   9
ATOM      9  C   UNL     1      -3.920  -0.445  -0.744  0.00  0.00    -0.022 A 
ATOM     10  C   UNL     1      -4.260  -0.699  -2.060  0.00  0.00    +0.006 A 
ATOM     11  C   UNL     1      -4.164   0.305  -3.005  0.00  0.00    +0.000 A 
ATOM     12  C   UNL     1      -3.728   1.563  -2.635  0.00  0.00    +0.000 A 
ATOM     13  C   UNL     1      -3.389   1.818  -1.319  0.00  0.00    +0.000 A 
ATOM     14  C   UNL     1      -3.490   0.816  -0.373  0.00  0.00    +0.006 A 
ENDBRANCH   7   9
BRANCH   1  15
ATOM     15  C   UNL     1      -1.496  -1.879   0.307  0.00  0.00    +0.339 C 
ATOM     16  O   UNL     1      -1.056  -1.640   1.416  0.00  0.00    -0.245 OA
BRANCH  15  17
ATOM     17  O   UNL     1      -0.744  -1.629  -0.785  0.00  0.00    -0.462 OA
BRANCH  17  19
ATOM     18  C   UNL     1       1.257  -0.873  -1.911  0.00  0.00    +0.048 C 
ATOM     19  C   UNL     1       0.560  -1.086  -0.566  0.00  0.00    +0.229 C 
ENDBRANCH  17  19
ENDBRANCH  15  17
ENDBRANCH   1  15
BRANCH   3  20
ATOM     20  C   UNL     1      -4.371  -5.684  -0.490  0.00  0.00    +0.141 C 
BRANCH  20  21
ATOM     21  C   UNL     1      -4.464  -6.431   0.815  0.00  0.00    -0.015 C 
ATOM     22  C   UNL     1      -5.477  -7.231   1.041  0.00  0.00    +0.005 C 
ENDBRANCH  20  21
ENDBRANCH   3  20
BRANCH   2  23
ATOM     23  C   UNL     1      -1.789  -4.640  -0.210  0.00  0.00    +0.136 C 
BRANCH  23  24
ATOM     24  N   UNL     1      -1.770  -5.582   0.917  0.00  0.00    -0.294 NA
ATOM     25  C   UNL     1      -1.552  -4.878   2.188  0.00  0.00    +0.102 C 
ATOM     26  C   UNL     1      -1.719  -5.864   3.349  0.00  0.00    +0.125 C 
ATOM     27  N   UNL     1      -0.834  -7.016   3.116  0.00  0.00    -0.174 NA
ATOM     28  C   UNL     1      -0.899  -7.689   1.810  0.00  0.00    +0.125 C 
ATOM     29  C   UNL     1      -0.764  -6.632   0.709  0.00  0.00    +0.102 C 
BRANCH  27  30
ATOM     30  S   UNL     1       0.207  -7.540   4.292  0.00  0.00    +0.061 S 
ATOM     31  O   UNL     1       1.256  -8.231   3.627  0.00  0.00    -0.153 OA
ATOM     32  O   UNL     1       0.447  -6.430   5.146  0.00  0.00    -0.153 OA
BRANCH  30  33
ATOM     33  C   UNL     1      -0.654  -8.739   5.254  0.00  0.00    +0.105 A 
ATOM     34  C   UNL     1      -1.386  -8.343   6.358  0.00  0.00    +0.028 A 
ATOM     35  C   UNL     1      -2.062  -9.283   7.113  0.00  0.00    +0.002 A 
ATOM     36  C   UNL     1      -2.007 -10.619   6.763  0.00  0.00    +0.000 A 
ATOM     37  C   UNL     1      -1.276 -11.015   5.658  0.00  0.00    +0.002 A 
ATOM     38  C   UNL     1      -0.604 -10.074   4.901  0.00  0.00    +0.028 A 
ENDBRANCH  30  33
ENDBRANCH  27  30
ENDBRANCH  23  24
ENDBRANCH   2  23
TORSDOF 10
