REMARK  Name = ZINC13896446
REMARK  8 active torsions:
REMARK  status: ('A' for Active; 'I' for Inactive)
REMARK    1  A    between atoms: C_1  and  C_2
REMARK    2  A    between atoms: C_2  and  O_3
REMARK    3  A    between atoms: O_3  and  C_4
REMARK    4  A    between atoms: C_6  and  C_14
REMARK    5  A    between atoms: C_9  and  O_10
REMARK    6  A    between atoms: O_10  and  C_11
REMARK    7  A    between atoms: C_11  and  C_12
REMARK    8  A    between atoms: N_20  and  C_21
REMARK                            x       y       z     vdW  Elec       q    Type
REMARK                         _______ _______ _______ _____ _____    ______ ____
ROOT
ATOM      1  C   UNL     1      -0.208  -4.963   0.443  0.00  0.00    +0.028 C 
ATOM      2  C   UNL     1      -0.751  -6.145   0.055  0.00  0.00    +0.078 C 
ATOM      3  C   UNL     1      -1.461  -7.157   0.860  0.00  0.00    +0.256 C 
ATOM      4  O   UNL     1      -1.639  -7.010   2.055  0.00  0.00    -0.269 OA
ATOM      5  N   UNL     1      -1.895  -8.232   0.224  0.00  0.00    -0.260 N 
ATOM      6  C   UNL     1      -1.684  -8.381  -1.129  0.00  0.00    +0.166 C 
ATOM      7  N   UNL     1      -2.045  -9.376  -1.908  0.00  0.00    -0.226 NA
ATOM      8  S   UNL     1      -0.808  -6.889  -1.569  0.00  0.00    -0.049 S 
ATOM      9  H   UNL     1      -2.366  -8.924   0.716  0.00  0.00    +0.157 HD
ENDROOT
BRANCH   1  12
ATOM     10  C   UNL     1       1.606  -2.091  -1.149  0.00  0.00    +0.163 A 
ATOM     11  C   UNL     1       0.851  -2.824  -0.254  0.00  0.00    +0.057 A 
ATOM     12  C   UNL     1       0.594  -4.178  -0.505  0.00  0.00    -0.019 A 
ATOM     13  C   UNL     1       1.103  -4.780  -1.662  0.00  0.00    +0.026 A 
ATOM     14  C   UNL     1       1.855  -4.040  -2.549  0.00  0.00    +0.059 A 
ATOM     15  C   UNL     1       2.105  -2.697  -2.301  0.00  0.00    +0.175 A 
ATOM     16  I   UNL     1       2.617  -4.943  -4.279  0.00  0.00    -0.040 I 
BRANCH  10  17
ATOM     17  O   UNL     1       1.858  -0.777  -0.908  0.00  0.00    -0.489 OA
BRANCH  17  19
ATOM     18  C   UNL     1       1.702   1.256   0.390  0.00  0.00    +0.048 C 
ATOM     19  C   UNL     1       1.317  -0.221   0.292  0.00  0.00    +0.226 C 
ENDBRANCH  17  19
ENDBRANCH  10  17
BRANCH  15  20
ATOM     20  O   UNL     1       2.842  -1.971  -3.182  0.00  0.00    -0.488 OA
BRANCH  20  21
ATOM     21  C   UNL     1       4.256  -1.943  -2.976  0.00  0.00    +0.226 C 
ATOM     22  C   UNL     1       4.912  -1.083  -4.059  0.00  0.00    +0.048 C 
ENDBRANCH  20  21
ENDBRANCH  15  20
ENDBRANCH   1  12
BRANCH   7  23
ATOM     23  C   UNL     1      -2.723 -10.443  -1.385  0.00  0.00    +0.067 A 
ATOM     24  C   UNL     1      -2.305 -11.018  -0.182  0.00  0.00    +0.028 A 
ATOM     25  C   UNL     1      -2.994 -12.094   0.340  0.00  0.00    +0.002 A 
ATOM     26  C   UNL     1      -4.094 -12.604  -0.326  0.00  0.00    +0.000 A 
ATOM     27  C   UNL     1      -4.513 -12.039  -1.518  0.00  0.00    +0.002 A 
ATOM     28  C   UNL     1      -3.838 -10.960  -2.048  0.00  0.00    +0.028 A 
ENDBRANCH   7  23
TORSDOF 6
