REMARK  Name = ZINC08954248
REMARK  8 active torsions:
REMARK  status: ('A' for Active; 'I' for Inactive)
REMARK    1  A    between atoms: C_1  and  C_2
REMARK    2  A    between atoms: C_5  and  C_8
REMARK    3  A    between atoms: C_8  and  N_9
REMARK    4  A    between atoms: C_19  and  S_20
REMARK    5  A    between atoms: S_20  and  C_21
REMARK    6  A    between atoms: C_21  and  C_22
REMARK    7  A    between atoms: N_24  and  C_25
REMARK    8  A    between atoms: C_26  and  C_30
REMARK                            x       y       z     vdW  Elec       q    Type
REMARK                         _______ _______ _______ _____ _____    ______ ____
ROOT
ATOM      1  N   UNL     1       0.037  -2.766  -0.012  0.00  0.00    -0.283 N 
ATOM      2  C   UNL     1       1.240  -2.146  -0.020  0.00  0.00    +0.263 A 
ATOM      3  O   UNL     1       2.278  -2.781  -0.034  0.00  0.00    -0.267 OA
ATOM      4  C   UNL     1       1.245  -0.677  -0.013  0.00  0.00    +0.065 A 
ATOM      5  C   UNL     1       2.432   0.055  -0.021  0.00  0.00    +0.015 A 
ATOM      6  C   UNL     1       2.381   1.422  -0.013  0.00  0.00    +0.001 A 
ATOM      7  C   UNL     1       1.161   2.086   0.002  0.00  0.00    +0.002 A 
ATOM      8  C   UNL     1      -0.017   1.394   0.010  0.00  0.00    +0.028 A 
ATOM      9  C   UNL     1       0.002  -0.004   0.002  0.00  0.00    +0.079 A 
ATOM     10  N   UNL     1      -1.136  -0.727   0.009  0.00  0.00    -0.223 NA
ATOM     11  C   UNL     1      -1.118  -2.037   0.003  0.00  0.00    +0.173 A 
ENDROOT
BRANCH   1  12
ATOM     12  C   UNL     1      -0.027  -4.229  -0.019  0.00  0.00    +0.162 C 
BRANCH  12  17
ATOM     13  C   UNL     1      -0.164  -6.126  -5.476  0.00  0.00    +0.044 C 
ATOM     14  C   UNL     1      -0.129  -5.632  -4.053  0.00  0.00    -0.050 A 
ATOM     15  C   UNL     1       1.084  -5.457  -3.412  0.00  0.00    +0.004 A 
ATOM     16  C   UNL     1       1.117  -5.003  -2.107  0.00  0.00    +0.005 A 
ATOM     17  C   UNL     1      -0.063  -4.724  -1.442  0.00  0.00    -0.028 A 
ATOM     18  C   UNL     1      -1.276  -4.904  -2.081  0.00  0.00    +0.005 A 
ATOM     19  C   UNL     1      -1.308  -5.354  -3.388  0.00  0.00    +0.004 A 
ENDBRANCH  12  17
ENDBRANCH   1  12
BRANCH  11  20
ATOM     20  S   UNL     1      -2.655  -2.898   0.013  0.00  0.00    -0.078 S 
BRANCH  20  21
ATOM     21  C   UNL     1      -3.800  -1.496   0.030  0.00  0.00    +0.173 C 
BRANCH  21  22
ATOM     22  C   UNL     1      -5.218  -2.007   0.041  0.00  0.00    +0.228 C 
ATOM     23  O   UNL     1      -5.434  -3.200   0.037  0.00  0.00    -0.275 OA
ATOM     24  N   UNL     1      -6.248  -1.137   0.055  0.00  0.00    -0.278 N 
ATOM     25  H   UNL     1      -6.076  -0.182   0.058  0.00  0.00    +0.155 HD
BRANCH  24  26
ATOM     26  C   UNL     1      -7.554  -1.606   0.065  0.00  0.00    +0.089 A 
ATOM     27  C   UNL     1      -8.734  -0.874   0.085  0.00  0.00    +0.080 A 
ATOM     28  C   UNL     1      -9.965  -1.627   0.088  0.00  0.00    +0.028 A 
ATOM     29  C   UNL     1      -9.865  -2.969   0.081  0.00  0.00    +0.048 A 
ATOM     30  S   UNL     1      -8.106  -3.247   0.062  0.00  0.00    -0.081 S 
BRANCH  27  31
ATOM     31  C   UNL     1      -8.729   0.558   0.099  0.00  0.00    +0.102 C 
ATOM     32  N   UNL     1      -8.725   1.694   0.109  0.00  0.00    -0.191 NA
ENDBRANCH  27  31
ENDBRANCH  24  26
ENDBRANCH  21  22
ENDBRANCH  20  21
ENDBRANCH  11  20
TORSDOF 7
