REMARK  Name = ZINC63428651
REMARK  7 active torsions:
REMARK  status: ('A' for Active; 'I' for Inactive)
REMARK    1  A    between atoms: C_1  and  C_2
REMARK    2  A    between atoms: C_2  and  C_3
REMARK    3  A    between atoms: C_7  and  N_21
REMARK    4  A    between atoms: N_9  and  N_10
REMARK    5  A    between atoms: C_11  and  C_12
REMARK    6  A    between atoms: C_22  and  C_32
REMARK    7  A    between atoms: C_24  and  C_26
REMARK                            x       y       z     vdW  Elec       q    Type
REMARK                         _______ _______ _______ _____ _____    ______ ____
ROOT
ATOM      1  C   UNL     1      -1.107  -0.898  -0.130  0.00  0.00    +0.234 C 
ATOM      2  N   UNL     1      -1.894  -0.226   0.905  0.00  0.00    -0.164 NA
ATOM      3  N   UNL     1      -2.416  -1.029   1.676  0.00  0.00    -0.141 NA
ATOM      4  C   UNL     1      -2.091  -2.412   1.323  0.00  0.00    +0.353 C 
ATOM      5  N   UNL     1      -1.226  -2.344   0.131  0.00  0.00    -0.184 N 
ENDROOT
BRANCH   4   6
ATOM      6  N   UNL     1      -3.316  -3.154   1.015  0.00  0.00    -0.219 N 
ATOM      7  C   UNL     1      -4.450  -3.179   1.772  0.00  0.00    +0.074 A 
ATOM      8  C   UNL     1      -5.350  -3.984   1.137  0.00  0.00    +0.058 A 
ATOM      9  C   UNL     1      -4.745  -4.460  -0.039  0.00  0.00    +0.093 A 
ATOM     10  N   UNL     1      -3.531  -3.958  -0.112  0.00  0.00    -0.167 NA
BRANCH   9  11
ATOM     11  C   UNL     1      -5.371  -5.370  -1.031  0.00  0.00    +0.002 A 
ATOM     12  C   UNL     1      -6.674  -5.823  -0.840  0.00  0.00    +0.010 A 
ATOM     13  C   UNL     1      -7.251  -6.668  -1.766  0.00  0.00    +0.001 A 
ATOM     14  C   UNL     1      -6.538  -7.065  -2.882  0.00  0.00    +0.000 A 
ATOM     15  C   UNL     1      -5.244  -6.619  -3.077  0.00  0.00    +0.001 A 
ATOM     16  C   UNL     1      -4.659  -5.769  -2.160  0.00  0.00    +0.010 A 
ENDBRANCH   9  11
BRANCH   7  17
ATOM     17  C   UNL     1      -4.665  -2.465   3.050  0.00  0.00    +0.000 A 
ATOM     18  C   UNL     1      -3.574  -2.076   3.827  0.00  0.00    +0.010 A 
ATOM     19  C   UNL     1      -3.781  -1.410   5.017  0.00  0.00    +0.001 A 
ATOM     20  C   UNL     1      -5.067  -1.126   5.440  0.00  0.00    +0.000 A 
ATOM     21  C   UNL     1      -6.154  -1.509   4.674  0.00  0.00    +0.001 A 
ATOM     22  C   UNL     1      -5.960  -2.171   3.479  0.00  0.00    +0.010 A 
ENDBRANCH   7  17
ENDBRANCH   4   6
BRANCH   1  24
ATOM     23  C   UNL     1       0.464   1.038  -0.290  0.00  0.00    +0.008 C 
ATOM     24  C   UNL     1       0.359  -0.467  -0.038  0.00  0.00    +0.046 C 
ENDBRANCH   1  24
BRANCH   5  25
ATOM     25  N   UNL     1      -0.698  -3.319  -0.529  0.00  0.00    -0.187 NA
ATOM     26  C   UNL     1      -0.912  -4.557  -0.153  0.00  0.00    +0.136 C 
BRANCH  26  27
ATOM     27  C   UNL     1      -0.340  -5.613  -0.867  0.00  0.00    +0.000 C 
ATOM     28  C   UNL     1      -0.471  -6.979  -0.606  0.00  0.00    +0.004 A 
ATOM     29  C   UNL     1      -1.169  -7.696   0.389  0.00  0.00    +0.010 A 
ATOM     30  C   UNL     1      -1.118  -9.053   0.401  0.00  0.00    +0.001 A 
ATOM     31  C   UNL     1      -0.387  -9.766  -0.552  0.00  0.00    +0.002 A 
ATOM     32  C   UNL     1       0.307  -9.142  -1.535  0.00  0.00    +0.026 A 
ATOM     33  C   UNL     1       0.301  -7.725  -1.612  0.00  0.00    +0.043 A 
ATOM     34  N   UNL     1       0.883  -6.896  -2.456  0.00  0.00    -0.380 N 
ATOM     35  C   UNL     1       0.546  -5.517  -2.090  0.00  0.00    +0.150 C 
ATOM     36  H   UNL     1       1.444  -7.157  -3.203  0.00  0.00    +0.160 HD
ENDBRANCH  26  27
ENDBRANCH   5  25
TORSDOF 6
