REMARK  Name = ZINC32834857
REMARK  11 active torsions:
REMARK  status: ('A' for Active; 'I' for Inactive)
REMARK    1  A    between atoms: C_1  and  C_2
REMARK    2  A    between atoms: C_2  and  C_3
REMARK    3  A    between atoms: C_2  and  C_4
REMARK    4  A    between atoms: C_4  and  N_5
REMARK    5  A    between atoms: N_14  and  C_26
REMARK    6  A    between atoms: C_15  and  C_17
REMARK    7  A    between atoms: C_20  and  O_24
REMARK    8  A    between atoms: O_24  and  C_25
REMARK    9  A    between atoms: C_26  and  C_27
REMARK   10  A    between atoms: C_27  and  O_28
REMARK   11  A    between atoms: O_28  and  C_29
REMARK                            x       y       z     vdW  Elec       q    Type
REMARK                         _______ _______ _______ _____ _____    ______ ____
ROOT
ATOM      1  N   UNL     1       2.289  -0.138  -1.184  0.00  0.00    -0.276 N 
ATOM      2  C   UNL     1       2.584   1.102  -1.730  0.00  0.00    +0.169 A 
ATOM      3  C   UNL     1       3.898   1.558  -1.687  0.00  0.00    +0.152 A 
ATOM      4  C   UNL     1       4.887   0.748  -1.092  0.00  0.00    +0.280 A 
ATOM      5  O   UNL     1       6.044   1.126  -1.042  0.00  0.00    -0.265 OA
ATOM      6  N   UNL     1       4.538  -0.449  -0.578  0.00  0.00    -0.273 N 
ATOM      7  H   UNL     1       5.215  -1.009  -0.167  0.00  0.00    +0.173 HD
ATOM      8  C   UNL     1       3.264  -0.876  -0.621  0.00  0.00    +0.331 A 
ATOM      9  O   UNL     1       2.985  -1.959  -0.143  0.00  0.00    -0.246 OA
ATOM     10  N   UNL     1       3.902   2.800  -2.293  0.00  0.00    -0.316 N 
ATOM     11  C   UNL     1       2.620   3.055  -2.676  0.00  0.00    +0.144 A 
ATOM     12  N   UNL     1       1.853   2.038  -2.335  0.00  0.00    -0.209 NA
ENDROOT
BRANCH  11  13
ATOM     13  C   UNL     1       2.161   4.278  -3.366  0.00  0.00    +0.019 A 
ATOM     14  C   UNL     1       3.073   5.071  -4.066  0.00  0.00    +0.015 A 
ATOM     15  C   UNL     1       2.641   6.211  -4.707  0.00  0.00    +0.047 A 
ATOM     16  C   UNL     1       1.300   6.573  -4.659  0.00  0.00    +0.134 A 
ATOM     17  C   UNL     1       0.390   5.786  -3.964  0.00  0.00    +0.060 A 
ATOM     18  C   UNL     1       0.813   4.640  -3.325  0.00  0.00    +0.030 A 
ATOM     19 BR   UNL     1      -1.434   6.284  -3.902  0.00  0.00    -0.046 Br
BRANCH  16  20
ATOM     20  O   UNL     1       0.879   7.698  -5.293  0.00  0.00    -0.494 OA
ATOM     21  C   UNL     1       1.868   8.460  -5.988  0.00  0.00    +0.277 C 
ENDBRANCH  16  20
ENDBRANCH  11  13
BRANCH   1  22
ATOM     22  C   UNL     1       0.914  -0.642  -1.216  0.00  0.00    +0.131 C 
BRANCH  22  24
ATOM     23  C   UNL     1       0.048   1.335   0.042  0.00  0.00    +0.009 C 
ATOM     24  C   UNL     1       0.176  -0.190   0.045  0.00  0.00    +0.003 C 
ATOM     25  C   UNL     1      -1.218  -0.819   0.073  0.00  0.00    +0.009 C 
ENDBRANCH  22  24
ENDBRANCH   1  22
BRANCH  10  26
ATOM     26  C   UNL     1       5.061   3.675  -2.485  0.00  0.00    +0.152 C 
BRANCH  26  27
ATOM     27  C   UNL     1       5.790   3.281  -3.772  0.00  0.00    +0.181 C 
BRANCH  27  28
ATOM     28  O   UNL     1       6.921   4.134  -3.959  0.00  0.00    -0.381 OA
ATOM     29  C   UNL     1       7.675   3.849  -5.139  0.00  0.00    +0.194 C 
ENDBRANCH  27  28
ENDBRANCH  26  27
ENDBRANCH  10  26
TORSDOF 7
