REMARK  Name = ZINC23914181
REMARK  7 active torsions:
REMARK  status: ('A' for Active; 'I' for Inactive)
REMARK    1  A    between atoms: C_1  and  C_2
REMARK    2  A    between atoms: N_5  and  S_11
REMARK    3  A    between atoms: C_7  and  C_10
REMARK    4  A    between atoms: S_11  and  C_14
REMARK    5  A    between atoms: C_17  and  C_20
REMARK    6  A    between atoms: N_22  and  N_23
REMARK    7  A    between atoms: C_24  and  C_26
REMARK                            x       y       z     vdW  Elec       q    Type
REMARK                         _______ _______ _______ _____ _____    ______ ____
ROOT
ATOM      1  C   UNL     1      -0.694   2.155   1.560  0.00  0.00    +0.106 A 
ATOM      2  C   UNL     1      -2.058   2.345   1.688  0.00  0.00    +0.029 A 
ATOM      3  C   UNL     1      -2.592   2.735   2.900  0.00  0.00    +0.015 A 
ATOM      4  C   UNL     1      -1.751   2.948   3.993  0.00  0.00    +0.038 A 
ATOM      5  C   UNL     1      -0.375   2.759   3.855  0.00  0.00    +0.015 A 
ATOM      6  C   UNL     1       0.145   2.364   2.640  0.00  0.00    +0.029 A 
ENDROOT
BRANCH   4   7
ATOM      7  C   UNL     1      -2.316   3.371   5.292  0.00  0.00    +0.260 C 
ATOM      8  O   UNL     1      -1.581   3.557   6.243  0.00  0.00    -0.269 OA
ATOM      9  N   UNL     1      -3.645   3.552   5.422  0.00  0.00    -0.230 N 
ATOM     10  H   UNL     1      -4.310   3.385   4.562  0.00  0.00    +0.173 HD
BRANCH   9  11
ATOM     11  N   UNL     1      -4.180   3.954   6.653  0.00  0.00    -0.229 N 
ATOM     12  C   UNL     1      -5.510   4.135   6.783  0.00  0.00    +0.276 C 
ATOM     13  O   UNL     1      -6.245   3.949   5.832  0.00  0.00    -0.267 OA
ATOM     14  H   UNL     1      -3.516   4.122   7.513  0.00  0.00    +0.173 HD
BRANCH  12  15
ATOM     15  C   UNL     1      -6.070   4.555   8.072  0.00  0.00    +0.104 A 
ATOM     16  C   UNL     1      -7.402   4.783   8.346  0.00  0.00    +0.047 A 
ATOM     17  C   UNL     1      -7.486   5.162   9.690  0.00  0.00    +0.036 A 
ATOM     18  C   UNL     1      -6.230   5.167  10.200  0.00  0.00    +0.098 A 
ATOM     19  N   UNL     1      -5.361   4.800   9.226  0.00  0.00    -0.356 N 
ATOM     20  H   UNL     1      -4.267   4.683   9.235  0.00  0.00    +0.166 HD
ATOM     21 BR   UNL     1      -9.070   5.597  10.627  0.00  0.00    -0.049 Br
ENDBRANCH  12  15
ENDBRANCH   9  11
ENDBRANCH   4   7
BRANCH   1  22
ATOM     22  S   UNL     1      -0.020   1.652   0.011  0.00  0.00    +0.061 S 
ATOM     23  O   UNL     1       1.336   2.076   0.001  0.00  0.00    -0.153 OA
ATOM     24  O   UNL     1      -0.952   2.051  -0.985  0.00  0.00    -0.153 OA
BRANCH  22  28
ATOM     25  C   UNL     1       2.661  -2.696  -0.003  0.00  0.00    +0.039 C 
ATOM     26  C   UNL     1       1.573  -1.778  -0.565  0.00  0.00    +0.131 C 
ATOM     27  C   UNL     1       1.173  -0.748   0.491  0.00  0.00    +0.140 C 
ATOM     28  N   UNL     1       0.002  -0.004   0.002  0.00  0.00    -0.172 NA
ATOM     29  C   UNL     1      -1.146  -0.774  -0.501  0.00  0.00    +0.140 C 
ATOM     30  C   UNL     1      -0.631  -1.803  -1.515  0.00  0.00    +0.131 C 
ATOM     31  O   UNL     1       0.429  -2.558  -0.922  0.00  0.00    -0.371 OA
ATOM     32  C   UNL     1      -1.770  -2.745  -1.911  0.00  0.00    +0.039 C 
ENDBRANCH  22  28
ENDBRANCH   1  22
TORSDOF 5
