REMARK  Name = ZINC25453229
REMARK  10 active torsions:
REMARK  status: ('A' for Active; 'I' for Inactive)
REMARK    1  A    between atoms: C_1  and  C_2
REMARK    2  A    between atoms: C_2  and  N_3
REMARK    3  A    between atoms: C_4  and  C_26
REMARK    4  A    between atoms: C_7  and  S_8
REMARK    5  A    between atoms: S_8  and  C_9
REMARK    6  A    between atoms: C_9  and  C_11
REMARK    7  A    between atoms: C_9  and  C_12
REMARK    8  A    between atoms: N_17  and  C_18
REMARK    9  A    between atoms: C_21  and  C_25
REMARK   10  A    between atoms: C_23  and  C_24
REMARK                            x       y       z     vdW  Elec       q    Type
REMARK                         _______ _______ _______ _____ _____    ______ ____
ROOT
ATOM      1  C   UNL     1      -1.325   3.535   0.063  0.00  0.00    +0.137 C 
ATOM      2  C   UNL     1      -1.227   4.070  -1.367  0.00  0.00    +0.029 C 
ENDROOT
BRANCH   1   3
ATOM      3  C   UNL     1      -1.262   2.030   0.042  0.00  0.00    +0.234 C 
ATOM      4  O   UNL     1      -2.286   1.380   0.038  0.00  0.00    -0.274 OA
ATOM      5  N   UNL     1      -0.068   1.405   0.028  0.00  0.00    -0.239 N 
ATOM      6  C   UNL     1      -0.012   0.058   0.009  0.00  0.00    +0.310 C 
ATOM      7  O   UNL     1      -1.039  -0.593   0.010  0.00  0.00    -0.252 OA
ATOM      8  N   UNL     1       1.182  -0.566  -0.011  0.00  0.00    -0.269 N 
ATOM      9  H   UNL     1       0.861   1.994   0.032  0.00  0.00    +0.159 HD
ATOM     10  H   UNL     1       2.108   0.020  -0.105  0.00  0.00    +0.156 HD
BRANCH   8  11
ATOM     11  C   UNL     1       1.244  -1.961   0.089  0.00  0.00    +0.038 A 
ATOM     12  C   UNL     1       0.214  -2.661   0.704  0.00  0.00    +0.024 A 
ATOM     13  C   UNL     1       0.278  -4.037   0.800  0.00  0.00    +0.005 A 
ATOM     14  C   UNL     1       1.366  -4.718   0.285  0.00  0.00    -0.050 A 
ATOM     15  C   UNL     1       2.393  -4.024  -0.327  0.00  0.00    +0.008 A 
ATOM     16  C   UNL     1       2.332  -2.648  -0.432  0.00  0.00    -0.029 A 
ATOM     17  C   UNL     1       3.449  -1.893  -1.106  0.00  0.00    +0.045 C 
ATOM     18  C   UNL     1       1.432  -6.220   0.392  0.00  0.00    +0.044 C 
ENDBRANCH   8  11
ENDBRANCH   1   3
BRANCH   1  19
ATOM     19  S   UNL     1      -2.892   4.064   0.799  0.00  0.00    -0.074 S 
BRANCH  19  24
ATOM     20  N   UNL     1      -3.520   6.743   1.300  0.00  0.00    -0.302 N 
ATOM     21  C   UNL     1      -2.893   7.957   1.134  0.00  0.00    +0.165 A 
ATOM     22  N   UNL     1      -1.720   7.714   0.596  0.00  0.00    -0.128 NA
ATOM     23  N   UNL     1      -1.571   6.449   0.422  0.00  0.00    -0.122 NA
ATOM     24  C   UNL     1      -2.639   5.807   0.838  0.00  0.00    +0.193 A 
BRANCH  21  25
ATOM     25  C   UNL     1      -3.439   9.284   1.488  0.00  0.00    +0.019 A 
ATOM     26  C   UNL     1      -2.908  10.437   0.909  0.00  0.00    +0.013 A 
ATOM     27  C   UNL     1      -3.424  11.673   1.241  0.00  0.00    +0.021 A 
ATOM     28  C   UNL     1      -4.462  11.770   2.153  0.00  0.00    +0.041 A 
ATOM     29  C   UNL     1      -4.989  10.630   2.735  0.00  0.00    +0.021 A 
ATOM     30  C   UNL     1      -4.484   9.389   2.407  0.00  0.00    +0.013 A 
ATOM     31 CL   UNL     1      -5.102  13.329   2.570  0.00  0.00    -0.084 Cl
ENDBRANCH  21  25
BRANCH  20  33
ATOM     32  C   UNL     1      -4.731   6.188   3.351  0.00  0.00    +0.027 C 
ATOM     33  C   UNL     1      -4.853   6.505   1.859  0.00  0.00    +0.122 C 
ENDBRANCH  20  33
ENDBRANCH  19  24
ENDBRANCH   1  19
TORSDOF 6
