REMARK  Name = ZINC35057006
REMARK  10 active torsions:
REMARK  status: ('A' for Active; 'I' for Inactive)
REMARK    1  A    between atoms: C_1  and  C_2
REMARK    2  A    between atoms: C_6  and  O_8
REMARK    3  A    between atoms: O_8  and  C_9
REMARK    4  A    between atoms: C_11  and  N_38
REMARK    5  A    between atoms: C_13  and  O_31
REMARK    6  A    between atoms: C_22  and  C_25
REMARK    7  A    between atoms: O_31  and  C_32
REMARK    8  A    between atoms: C_32  and  C_34
REMARK    9  A    between atoms: C_32  and  C_35
REMARK   10  A    between atoms: C_39  and  C_41
REMARK                            x       y       z     vdW  Elec       q    Type
REMARK                         _______ _______ _______ _____ _____    ______ ____
ROOT
ATOM      1  C   UNL     1       0.069  -4.202   2.274  0.00  0.00    +0.331 C 
ATOM      2  C   UNL     1       0.214  -4.792   3.678  0.00  0.00    +0.173 C 
ATOM      3  C   UNL     1      -1.015  -4.430   4.520  0.00  0.00    +0.177 C 
ATOM      4  C   UNL     1      -2.264  -4.928   3.793  0.00  0.00    +0.183 C 
ATOM      5  C   UNL     1      -2.314  -4.279   2.404  0.00  0.00    +0.179 C 
ATOM      6  O   UNL     1      -1.150  -4.658   1.677  0.00  0.00    -0.332 OA
ATOM      7  C   UNL     1      -3.586  -4.748   1.696  0.00  0.00    +0.197 C 
ATOM      8  O   UNL     1      -4.708  -4.430   2.530  0.00  0.00    -0.345 OA
ATOM      9  C   UNL     1      -4.648  -4.994   3.840  0.00  0.00    +0.282 C 
ATOM     10  O   UNL     1      -3.450  -4.574   4.503  0.00  0.00    -0.339 OA
ENDROOT
BRANCH   9  11
ATOM     11  C   UNL     1      -5.843  -4.538   4.636  0.00  0.00    +0.008 A 
ATOM     12  C   UNL     1      -5.663  -3.814   5.800  0.00  0.00    +0.008 A 
ATOM     13  C   UNL     1      -6.760  -3.395   6.530  0.00  0.00    +0.000 A 
ATOM     14  C   UNL     1      -8.036  -3.700   6.096  0.00  0.00    +0.000 A 
ATOM     15  C   UNL     1      -8.217  -4.423   4.932  0.00  0.00    +0.000 A 
ATOM     16  C   UNL     1      -7.120  -4.838   4.200  0.00  0.00    +0.008 A 
ENDBRANCH   9  11
BRANCH   2  17
ATOM     17  N   UNL     1       0.328  -6.250   3.584  0.00  0.00    -0.304 N 
ATOM     18  C   UNL     1       1.529  -6.819   3.360  0.00  0.00    +0.210 C 
ATOM     19  O   UNL     1       2.515  -6.124   3.236  0.00  0.00    -0.276 OA
ATOM     20  C   UNL     1       1.646  -8.318   3.264  0.00  0.00    +0.109 C 
ATOM     21  H   UNL     1      -0.461  -6.805   3.684  0.00  0.00    +0.149 HD
ENDBRANCH   2  17
BRANCH   1  22
ATOM     22  O   UNL     1       0.050  -2.776   2.358  0.00  0.00    -0.462 OA
BRANCH  22  28
ATOM     23  C   UNL     1      -0.018   1.503   0.010  0.00  0.00    +0.044 C 
ATOM     24  C   UNL     1       0.002  -0.004   0.002  0.00  0.00    -0.047 A 
ATOM     25  C   UNL     1       0.006  -0.688  -1.200  0.00  0.00    +0.003 A 
ATOM     26  C   UNL     1       0.024  -2.071  -1.211  0.00  0.00    +0.004 A 
ATOM     27  C   UNL     1       0.039  -2.772  -0.020  0.00  0.00    +0.046 A 
ATOM     28  C   UNL     1       0.035  -2.088   1.186  0.00  0.00    +0.124 A 
ATOM     29  C   UNL     1       0.023  -0.700   1.195  0.00  0.00    +0.049 A 
ENDBRANCH  22  28
ENDBRANCH   1  22
BRANCH   3  30
ATOM     30  O   UNL     1      -0.920  -5.054   5.802  0.00  0.00    -0.358 OA
BRANCH  30  31
ATOM     31  C   UNL     1      -0.255  -4.260   6.787  0.00  0.00    +0.228 C 
ATOM     32  C   UNL     1      -1.280  -3.390   7.518  0.00  0.00    +0.050 C 
BRANCH  31  33
ATOM     33  C   UNL     1       0.435  -5.162   7.777  0.00  0.00    +0.384 C 
ATOM     34  O   UNL     1       1.139  -4.684   8.650  0.00  0.00    -0.243 OA
ATOM     35  O   UNL     1       0.290  -6.371   7.705  0.00  0.00    -0.243 OA
ENDBRANCH  31  33
ENDBRANCH  30  31
ENDBRANCH   3  30
TORSDOF 7
