REMARK  Name = ZINC35668378
REMARK  12 active torsions:
REMARK  status: ('A' for Active; 'I' for Inactive)
REMARK    1  A    between atoms: C_1  and  C_2
REMARK    2  A    between atoms: C_2  and  O_3
REMARK    3  A    between atoms: O_3  and  C_4
REMARK    4  A    between atoms: C_6  and  C_24
REMARK    5  A    between atoms: C_9  and  O_10
REMARK    6  A    between atoms: O_10  and  C_11
REMARK    7  A    between atoms: C_11  and  C_12
REMARK    8  A    between atoms: C_15  and  N_21
REMARK    9  A    between atoms: C_17  and  N_18
REMARK   10  A    between atoms: CA_25  and  C_26
REMARK   11  A    between atoms: CA_25  and  N_29
REMARK   12  A    between atoms: C_30  and  C_32
REMARK                            x       y       z     vdW  Elec       q    Type
REMARK                         _______ _______ _______ _____ _____    ______ ____
ROOT
ATOM      1  C   UNL     1       0.498  -1.773  -1.411  0.00  0.00    +0.162 A 
ATOM      2  C   UNL     1      -0.019  -2.639  -0.468  0.00  0.00    +0.057 A 
ATOM      3  C   UNL     1       0.253  -4.010  -0.559  0.00  0.00    -0.019 A 
ATOM      4  C   UNL     1       1.049  -4.494  -1.604  0.00  0.00    +0.012 A 
ATOM      5  C   UNL     1       1.561  -3.622  -2.539  0.00  0.00    +0.050 A 
ATOM      6  C   UNL     1       1.285  -2.263  -2.452  0.00  0.00    +0.162 A 
ENDROOT
BRANCH   3   7
ATOM      7  C   UNL     1      -0.294  -4.937   0.440  0.00  0.00    +0.038 C 
ATOM      8  CA  UNL     1      -0.744  -6.158   0.058  0.00  0.00    +0.123 C 
BRANCH   8   9
ATOM      9  N   UNL     1      -1.313  -7.022   1.002  0.00  0.00    -0.276 N 
ATOM     10  C   UNL     1      -1.865  -8.186   0.604  0.00  0.00    +0.248 C 
ATOM     11  O   UNL     1      -1.800  -8.522  -0.563  0.00  0.00    -0.270 OA
ATOM     12  H   UNL     1      -1.309  -6.784   1.942  0.00  0.00    +0.155 HD
BRANCH  10  13
ATOM     13  C   UNL     1      -2.549  -9.053   1.586  0.00  0.00    +0.037 A 
ATOM     14  C   UNL     1      -2.630  -8.668   2.925  0.00  0.00    +0.013 A 
ATOM     15  C   UNL     1      -3.270  -9.481   3.837  0.00  0.00    +0.001 A 
ATOM     16  C   UNL     1      -3.831 -10.678   3.426  0.00  0.00    +0.000 A 
ATOM     17  C   UNL     1      -3.754 -11.066   2.100  0.00  0.00    +0.001 A 
ATOM     18  C   UNL     1      -3.122 -10.259   1.178  0.00  0.00    +0.013 A 
ENDBRANCH  10  13
ENDBRANCH   8   9
BRANCH   8  19
ATOM     19  C   UNL     1      -0.636  -6.573  -1.342  0.00  0.00    +0.400 C 
ATOM     20  O   UNL     1       0.282  -7.303  -1.695  0.00  0.00    -0.239 OA
ATOM     21  OXT UNL     1      -1.463  -6.189  -2.160  0.00  0.00    -0.239 OA
ENDBRANCH   8  19
ENDBRANCH   3   7
BRANCH   1  22
ATOM     22  O   UNL     1       0.236  -0.441  -1.326  0.00  0.00    -0.489 OA
BRANCH  22  24
ATOM     23  C   UNL     1      -0.762   1.509  -0.305  0.00  0.00    +0.048 C 
ATOM     24  C   UNL     1      -0.578  -0.008  -0.234  0.00  0.00    +0.226 C 
ENDBRANCH  22  24
ENDBRANCH   1  22
BRANCH   6  25
ATOM     25  O   UNL     1       1.788  -1.409  -3.381  0.00  0.00    -0.484 OA
BRANCH  25  26
ATOM     26  C   UNL     1       2.586  -1.978  -4.421  0.00  0.00    +0.267 C 
BRANCH  26  27
ATOM     27  C   UNL     1       3.053  -0.887  -5.350  0.00  0.00    +0.020 A 
ATOM     28  C   UNL     1       2.693   0.426  -5.110  0.00  0.00    +0.011 A 
ATOM     29  C   UNL     1       3.121   1.427  -5.962  0.00  0.00    +0.033 A 
ATOM     30  C   UNL     1       3.909   1.114  -7.054  0.00  0.00    +0.128 A 
ATOM     31  C   UNL     1       4.269  -0.199  -7.294  0.00  0.00    +0.065 A 
ATOM     32  C   UNL     1       3.845  -1.199  -6.439  0.00  0.00    +0.135 A 
BRANCH  32  33
ATOM     33  N   UNL     1       4.235  -2.604  -6.692  0.00  0.00    +0.057 N 
ATOM     34  O   UNL     1       4.928  -2.877  -7.645  0.00  0.00    -0.126 OA
ATOM     35  O   UNL     1       3.861  -3.479  -5.947  0.00  0.00    -0.126 OA
ENDBRANCH  32  33
BRANCH  30  36
ATOM     36  N   UNL     1       4.366   2.186  -7.967  0.00  0.00    +0.056 N 
ATOM     37  O   UNL     1       4.051   3.334  -7.758  0.00  0.00    -0.126 OA
ATOM     38  O   UNL     1       5.055   1.913  -8.922  0.00  0.00    -0.126 OA
ENDBRANCH  30  36
ENDBRANCH  26  27
ENDBRANCH  25  26
ENDBRANCH   6  25
TORSDOF 11
