REMARK  Name = ZINC09504718
REMARK  10 active torsions:
REMARK  status: ('A' for Active; 'I' for Inactive)
REMARK    1  A    between atoms: C_1  and  N_61
REMARK    2  A    between atoms: C_2  and  N_61
REMARK    3  A    between atoms: C_3  and  C_4
REMARK    4  A    between atoms: C_3  and  N_61
REMARK    5  A    between atoms: C_4  and  N_5
REMARK    6  A    between atoms: C_9  and  O_15
REMARK    7  A    between atoms: O_15  and  C_16
REMARK    8  A    between atoms: C_17  and  C_19
REMARK    9  A    between atoms: N_22  and  S_25
REMARK   10  A    between atoms: S_25  and  C_28
REMARK                            x       y       z     vdW  Elec       q    Type
REMARK                         _______ _______ _______ _____ _____    ______ ____
ROOT
ATOM      1  N   UNL     1       1.183   3.522   0.383  0.00  0.00    -0.252 N 
ATOM      2  C   UNL     1       1.047   2.169   0.650  0.00  0.00    +0.168 A 
ATOM      3  N   UNL     1      -0.008   1.404   0.504  0.00  0.00    -0.221 NA
ATOM      4  C   UNL     1       0.002   0.087   0.807  0.00  0.00    +0.122 A 
ATOM      5  C   UNL     1      -1.061  -0.846   0.697  0.00  0.00    +0.146 A 
ATOM      6  C   UNL     1      -0.878  -2.161   1.053  0.00  0.00    +0.048 A 
ATOM      7  C   UNL     1       0.342  -2.620   1.528  0.00  0.00    +0.005 A 
ATOM      8  C   UNL     1       1.398  -1.736   1.647  0.00  0.00    +0.017 A 
ATOM      9  C   UNL     1       1.227  -0.419   1.294  0.00  0.00    +0.044 A 
ATOM     10  S   UNL     1       2.264   1.023   1.281  0.00  0.00    -0.052 S 
ATOM     11  C   UNL     1       0.108   4.249   0.019  0.00  0.00    +0.224 C 
ATOM     12  O   UNL     1       0.244   5.406  -0.318  0.00  0.00    -0.275 OA
ENDROOT
BRANCH  11  13
ATOM     13  C   UNL     1      -1.263   3.624   0.030  0.00  0.00    +0.078 C 
ATOM     14  C   UNL     1      -1.486   2.861  -1.277  0.00  0.00    +0.030 C 
ATOM     15  C   UNL     1      -2.867   2.198  -1.247  0.00  0.00    +0.110 C 
ATOM     16  N   UNL     1      -3.879   3.226  -0.968  0.00  0.00    -0.176 NA
ATOM     17  C   UNL     1      -3.712   4.078   0.217  0.00  0.00    +0.110 C 
ATOM     18  C   UNL     1      -2.322   4.720   0.171  0.00  0.00    +0.030 C 
BRANCH  16  19
ATOM     19  S   UNL     1      -5.183   3.420  -1.970  0.00  0.00    +0.067 S 
ATOM     20  O   UNL     1      -5.372   2.179  -2.636  0.00  0.00    -0.152 OA
ATOM     21  O   UNL     1      -6.204   4.032  -1.194  0.00  0.00    -0.152 OA
BRANCH  19  22
ATOM     22  C   UNL     1      -4.721   4.589  -3.205  0.00  0.00    +0.143 A 
ATOM     23  C   UNL     1      -4.141   4.373  -4.411  0.00  0.00    +0.036 A 
ATOM     24  C   UNL     1      -3.869   5.454  -5.228  0.00  0.00    +0.010 A 
ATOM     25  C   UNL     1      -4.181   6.700  -4.794  0.00  0.00    +0.047 A 
ATOM     26  S   UNL     1      -4.889   6.366  -3.190  0.00  0.00    -0.077 S 
ENDBRANCH  19  22
ENDBRANCH  16  19
ENDBRANCH  11  13
BRANCH   5  27
ATOM     27  O   UNL     1      -2.272  -0.435   0.236  0.00  0.00    -0.493 OA
ATOM     28  C   UNL     1      -3.301  -1.421   0.148  0.00  0.00    +0.277 C 
ENDBRANCH   5  27
BRANCH   1  29
ATOM     29  C   UNL     1       2.496   4.163   0.496  0.00  0.00    +0.097 C 
BRANCH  29  30
ATOM     30  C   UNL     1       3.219   4.087  -0.851  0.00  0.00    -0.060 C 
BRANCH  30  33
ATOM     31  C   UNL     1       5.411   3.978   0.172  0.00  0.00    -0.097 C 
ATOM     32  C   UNL     1       5.159   4.888  -2.057  0.00  0.00    -0.097 C 
ATOM     33  N   UNL     1       4.531   4.755  -0.726  0.00  0.00    +0.377 N 
ATOM     34  H   UNL     1       4.392   5.692  -0.328  0.00  0.00    -0.083 HD
ENDBRANCH  30  33
ENDBRANCH  29  30
ENDBRANCH   1  29
TORSDOF 7
