REMARK  Name = ZINC35915218
REMARK  7 active torsions:
REMARK  status: ('A' for Active; 'I' for Inactive)
REMARK    1  A    between atoms: C_1  and  C_2
REMARK    2  A    between atoms: C_2  and  C_3
REMARK    3  A    between atoms: C_6  and  C_9
REMARK    4  A    between atoms: C_13  and  C_27
REMARK    5  A    between atoms: N_19  and  C_20
REMARK    6  A    between atoms: C_20  and  C_21
REMARK    7  A    between atoms: N_32  and  C_35
REMARK                            x       y       z     vdW  Elec       q    Type
REMARK                         _______ _______ _______ _____ _____    ______ ____
ROOT
ATOM      1  C   UNL     1       2.825  -2.087   4.873  0.00  0.00    +0.108 C 
ATOM      2  C   UNL     1       3.134  -0.968   5.873  0.00  0.00    +0.028 C 
ATOM      3  C   UNL     1       3.542  -1.585   7.213  0.00  0.00    +0.016 C 
ATOM      4  C   UNL     1       2.385  -2.421   7.765  0.00  0.00    +0.093 C 
ATOM      5  C   UNL     1       2.068  -3.556   6.787  0.00  0.00    +0.122 C 
ATOM      6  N   UNL     1       1.817  -2.982   5.457  0.00  0.00    -0.278 N 
ATOM      7  C   UNL     1       0.682  -3.268   4.788  0.00  0.00    +0.303 C 
ATOM      8  O   UNL     1       0.530  -2.868   3.650  0.00  0.00    -0.253 OA
ATOM      9  N   UNL     1      -0.283  -3.998   5.381  0.00  0.00    -0.295 N 
ATOM     10  H   UNL     1      -0.132  -4.381   6.259  0.00  0.00    +0.151 HD
ENDROOT
BRANCH   4  11
ATOM     11  C   UNL     1       2.776  -3.001   9.100  0.00  0.00    +0.220 C 
ATOM     12  O   UNL     1       3.947  -3.178   9.364  0.00  0.00    -0.275 OA
ATOM     13  N   UNL     1       1.826  -3.322   9.999  0.00  0.00    -0.298 N 
ATOM     14  C   UNL     1       0.402  -3.223   9.651  0.00  0.00    +0.126 C 
ATOM     15  C   UNL     1      -0.261  -4.582   9.907  0.00  0.00    +0.124 C 
ATOM     16  N   UNL     1       0.108  -5.038  11.254  0.00  0.00    -0.325 N 
ATOM     17  C   UNL     1       1.532  -5.138  11.602  0.00  0.00    +0.124 C 
ATOM     18  C   UNL     1       2.195  -3.784  11.345  0.00  0.00    +0.126 C 
BRANCH  16  19
ATOM     19  C   UNL     1      -0.879  -5.372  12.188  0.00  0.00    +0.065 A 
ATOM     20  C   UNL     1      -1.350  -6.675  12.267  0.00  0.00    +0.026 A 
ATOM     21  C   UNL     1      -2.324  -7.002  13.190  0.00  0.00    +0.002 A 
ATOM     22  C   UNL     1      -2.831  -6.032  14.036  0.00  0.00    +0.003 A 
ATOM     23  C   UNL     1      -2.365  -4.732  13.961  0.00  0.00    +0.040 A 
ATOM     24  C   UNL     1      -1.386  -4.399  13.043  0.00  0.00    +0.144 A 
ATOM     25  F   UNL     1      -0.927  -3.131  12.973  0.00  0.00    -0.204 F 
ENDBRANCH  16  19
ENDBRANCH   4  11
BRANCH   1  29
ATOM     26  C   UNL     1       1.311  -0.397   1.253  0.00  0.00    -0.048 A 
ATOM     27  C   UNL     1       2.482  -1.131   1.236  0.00  0.00    +0.004 A 
ATOM     28  C   UNL     1       2.972  -1.678   2.408  0.00  0.00    +0.006 A 
ATOM     29  C   UNL     1       2.291  -1.490   3.596  0.00  0.00    -0.027 A 
ATOM     30  C   UNL     1       1.121  -0.755   3.613  0.00  0.00    +0.006 A 
ATOM     31  C   UNL     1       0.633  -0.205   2.442  0.00  0.00    +0.004 A 
BRANCH  26  33
ATOM     32  C   UNL     1       1.359   1.601  -0.215  0.00  0.00    +0.009 C 
ATOM     33  C   UNL     1       0.777   0.199  -0.024  0.00  0.00    +0.032 C 
ENDBRANCH  26  33
ENDBRANCH   1  29
BRANCH   9  34
ATOM     34  C   UNL     1      -1.561  -4.214   4.698  0.00  0.00    +0.141 C 
BRANCH  34  35
ATOM     35  C   UNL     1      -2.459  -5.056   5.567  0.00  0.00    -0.030 A 
ATOM     36  C   UNL     1      -2.429  -6.434   5.462  0.00  0.00    +0.005 A 
ATOM     37  C   UNL     1      -3.253  -7.206   6.260  0.00  0.00    +0.000 A 
ATOM     38  C   UNL     1      -4.107  -6.600   7.162  0.00  0.00    +0.000 A 
ATOM     39  C   UNL     1      -4.137  -5.222   7.268  0.00  0.00    +0.000 A 
ATOM     40  C   UNL     1      -3.310  -4.450   6.473  0.00  0.00    +0.005 A 
ENDBRANCH  34  35
ENDBRANCH   9  34
TORSDOF 6
