REMARK  Name = ZINC41286798
REMARK  8 active torsions:
REMARK  status: ('A' for Active; 'I' for Inactive)
REMARK    1  A    between atoms: C_1  and  C_2
REMARK    2  A    between atoms: C_4  and  O_25
REMARK    3  A    between atoms: C_11  and  C_12
REMARK    4  A    between atoms: N_14  and  C_23
REMARK    5  A    between atoms: C_18  and  O_21
REMARK    6  A    between atoms: O_21  and  C_22
REMARK    7  A    between atoms: O_25  and  C_26
REMARK    8  A    between atoms: C_26  and  C_28
REMARK                            x       y       z     vdW  Elec       q    Type
REMARK                         _______ _______ _______ _____ _____    ______ ____
ROOT
ATOM      1  C   UNL     1      -0.243   1.517  -0.030  0.00  0.00    +0.045 C 
ATOM      2  C   UNL     1      -0.113   0.015  -0.025  0.00  0.00    -0.033 A 
ATOM      3  C   UNL     1      -0.102  -0.675  -1.204  0.00  0.00    +0.050 A 
ATOM      4  C   UNL     1       0.018  -2.062  -1.203  0.00  0.00    +0.136 A 
ATOM      5  C   UNL     1       0.126  -2.759  -0.010  0.00  0.00    +0.093 A 
ATOM      6  C   UNL     1       0.116  -2.072   1.196  0.00  0.00    +0.143 A 
ATOM      7  C   UNL     1       0.001  -0.672   1.183  0.00  0.00    +0.071 A 
ATOM      8  C   UNL     1       0.027  -0.247   2.594  0.00  0.00    +0.232 C 
ATOM      9  O   UNL     1      -0.052   0.891   3.027  0.00  0.00    -0.283 OA
ATOM     10  C   UNL     1       0.165  -1.447   3.341  0.00  0.00    +0.176 C 
ATOM     11  C   UNL     1       0.233  -1.535   4.699  0.00  0.00    +0.060 C 
ATOM     12  O   UNL     1       0.204  -2.489   2.477  0.00  0.00    -0.451 OA
ENDROOT
BRANCH  11  13
ATOM     13  C   UNL     1       0.374  -2.841   5.340  0.00  0.00    +0.004 A 
ATOM     14  C   UNL     1       0.459  -4.065   4.712  0.00  0.00    +0.094 A 
ATOM     15  N   UNL     1       0.583  -5.043   5.643  0.00  0.00    -0.349 N 
ATOM     16  C   UNL     1       0.585  -4.504   6.915  0.00  0.00    +0.050 A 
ATOM     17  C   UNL     1       0.462  -3.112   6.788  0.00  0.00    +0.011 A 
ATOM     18  C   UNL     1       0.442  -2.305   7.922  0.00  0.00    +0.056 A 
ATOM     19  C   UNL     1       0.548  -2.882   9.174  0.00  0.00    +0.121 A 
ATOM     20  C   UNL     1       0.674  -4.262   9.299  0.00  0.00    +0.047 A 
ATOM     21  C   UNL     1       0.685  -5.069   8.182  0.00  0.00    +0.030 A 
ATOM     22  C   UNL     1       0.698  -6.472   5.341  0.00  0.00    +0.149 C 
BRANCH  19  23
ATOM     23  O   UNL     1       0.529  -2.100  10.286  0.00  0.00    -0.495 OA
ATOM     24  C   UNL     1       0.643  -2.761  11.547  0.00  0.00    +0.277 C 
ENDBRANCH  19  23
ENDBRANCH  11  13
BRANCH   4  25
ATOM     25  O   UNL     1       0.028  -2.738  -2.381  0.00  0.00    -0.422 OA
BRANCH  25  26
ATOM     26  C   UNL     1       1.100  -2.594  -3.184  0.00  0.00    +0.344 C 
ATOM     27  O   UNL     1       2.064  -1.961  -2.802  0.00  0.00    -0.245 OA
BRANCH  26  28
ATOM     28  C   UNL     1       1.103  -3.204  -4.528  0.00  0.00    +0.059 A 
ATOM     29  C   UNL     1      -0.006  -3.928  -4.972  0.00  0.00    +0.016 A 
ATOM     30  C   UNL     1       0.003  -4.496  -6.229  0.00  0.00    +0.016 A 
ATOM     31  C   UNL     1       1.110  -4.351  -7.049  0.00  0.00    +0.018 A 
ATOM     32  C   UNL     1       2.213  -3.635  -6.615  0.00  0.00    +0.016 A 
ATOM     33  C   UNL     1       2.213  -3.057  -5.363  0.00  0.00    +0.016 A 
ATOM     34 BR   UNL     1       1.114  -5.135  -8.770  0.00  0.00    -0.050 Br
ENDBRANCH  26  28
ENDBRANCH  25  26
ENDBRANCH   4  25
TORSDOF 5
