REMARK  Name = ZINC38546258
REMARK  7 active torsions:
REMARK  status: ('A' for Active; 'I' for Inactive)
REMARK    1  A    between atoms: C_1  and  C_2
REMARK    2  A    between atoms: C_4  and  C_15
REMARK    3  A    between atoms: C_5  and  N_7
REMARK    4  A    between atoms: C_8  and  C_10
REMARK    5  A    between atoms: C_15  and  C_17
REMARK    6  A    between atoms: C_15  and  N_24
REMARK    7  A    between atoms: C_27  and  C_30
REMARK                            x       y       z     vdW  Elec       q    Type
REMARK                         _______ _______ _______ _____ _____    ______ ____
ROOT
ATOM      1  C   UNL     1      -1.917  -3.223  -0.007  0.00  0.00    -0.004 C 
ENDROOT
BRANCH   1   2
ATOM      2  N   UNL     1      -3.141  -2.570   0.476  0.00  0.00    +0.387 N 
ATOM      3  C   UNL     1      -4.245  -3.537   0.467  0.00  0.00    -0.077 C 
ATOM      4  C   UNL     1      -5.540  -2.841   0.891  0.00  0.00    -0.015 C 
ATOM      5  C   UNL     1      -5.369  -2.273   2.303  0.00  0.00    -0.018 C 
ATOM      6  C   UNL     1      -4.168  -1.322   2.317  0.00  0.00    -0.015 C 
ATOM      7  C   UNL     1      -2.924  -2.074   1.840  0.00  0.00    -0.077 C 
ATOM      8  C   UNL     1      -6.632  -1.507   2.703  0.00  0.00    +0.007 C 
ATOM      9  H   UNL     1      -3.369  -1.796  -0.130  0.00  0.00    -0.080 HD
ENDBRANCH   1   2
BRANCH   1  10
ATOM     10  C   UNL     1      -2.138  -3.733  -1.408  0.00  0.00    -0.057 A 
ATOM     11  C   UNL     1      -2.846  -2.969  -2.317  0.00  0.00    +0.003 A 
ATOM     12  C   UNL     1      -3.048  -3.436  -3.602  0.00  0.00    +0.015 A 
ATOM     13  C   UNL     1      -2.542  -4.668  -3.978  0.00  0.00    +0.018 A 
ATOM     14  C   UNL     1      -1.834  -5.431  -3.068  0.00  0.00    +0.015 A 
ATOM     15  C   UNL     1      -1.627  -4.961  -1.785  0.00  0.00    +0.003 A 
ATOM     16 BR   UNL     1      -2.820  -5.307  -5.736  0.00  0.00    -0.050 Br
ENDBRANCH   1  10
BRANCH   1  20
ATOM     17  C   UNL     1      -0.018   1.503   0.010  0.00  0.00    +0.051 C 
ATOM     18  C   UNL     1       0.002  -0.004   0.002  0.00  0.00    -0.011 A 
ATOM     19  C   UNL     1      -1.040  -0.870   0.002  0.00  0.00    +0.015 A 
ATOM     20  C   UNL     1      -0.784  -2.229  -0.007  0.00  0.00    -0.028 A 
ATOM     21  C   UNL     1       0.511  -2.653  -0.015  0.00  0.00    +0.074 A 
ATOM     22  S   UNL     1       1.405  -1.108  -0.018  0.00  0.00    -0.078 S 
BRANCH  21  23
ATOM     23  N   UNL     1       1.010  -3.958  -0.024  0.00  0.00    -0.273 N 
ATOM     24  C   UNL     1       2.341  -4.170  -0.031  0.00  0.00    +0.284 C 
ATOM     25  O   UNL     1       3.108  -3.225  -0.029  0.00  0.00    -0.266 OA
ATOM     26  H   UNL     1       0.398  -4.710  -0.025  0.00  0.00    +0.156 HD
BRANCH  24  27
ATOM     27  C   UNL     1       2.864  -5.540  -0.040  0.00  0.00    +0.189 A 
ATOM     28  C   UNL     1       4.182  -5.895  -0.042  0.00  0.00    +0.054 A 
ATOM     29  C   UNL     1       4.222  -7.298  -0.052  0.00  0.00    +0.042 A 
ATOM     30  C   UNL     1       2.943  -7.732  -0.055  0.00  0.00    +0.196 A 
ATOM     31  O   UNL     1       2.127  -6.670  -0.043  0.00  0.00    -0.458 OA
ENDBRANCH  24  27
ENDBRANCH  21  23
ENDBRANCH   1  20
TORSDOF 5
