REMARK  Name = ZINC08533648
REMARK  10 active torsions:
REMARK  status: ('A' for Active; 'I' for Inactive)
REMARK    1  A    between atoms: C_1  and  C_2
REMARK    2  A    between atoms: C_2  and  C_3
REMARK    3  A    between atoms: C_2  and  C_4
REMARK    4  A    between atoms: C_7  and  C_10
REMARK    5  A    between atoms: C_10  and  N_53
REMARK    6  A    between atoms: C_11  and  N_53
REMARK    7  A    between atoms: C_12  and  C_14
REMARK    8  A    between atoms: C_12  and  C_15
REMARK    9  A    between atoms: C_12  and  N_53
REMARK   10  A    between atoms: N_17  and  C_18
REMARK                            x       y       z     vdW  Elec       q    Type
REMARK                         _______ _______ _______ _____ _____    ______ ____
ROOT
ATOM      1  C   UNL     1       0.069  -2.773   0.088  0.00  0.00    +0.203 C 
ATOM      2  O   UNL     1      -0.988  -2.179   0.101  0.00  0.00    -0.277 OA
ATOM      3  N   UNL     1       1.225  -2.088  -0.020  0.00  0.00    -0.287 N 
ATOM      4  H   UNL     1       2.065  -2.565  -0.108  0.00  0.00    +0.155 HD
ENDROOT
BRANCH   3   5
ATOM      5  C   UNL     1       1.213  -0.687  -0.007  0.00  0.00    +0.035 A 
ATOM      6  C   UNL     1       2.144   0.021  -0.759  0.00  0.00    +0.025 A 
ATOM      7  C   UNL     1       2.137   1.402  -0.750  0.00  0.00    +0.029 A 
ATOM      8  C   UNL     1       1.201   2.085   0.011  0.00  0.00    +0.067 A 
ATOM      9  C   UNL     1       0.266   1.376   0.768  0.00  0.00    +0.069 A 
ATOM     10  C   UNL     1       0.274  -0.010   0.756  0.00  0.00    +0.051 A 
ATOM     11  N   UNL     1      -0.528   2.320   1.415  0.00  0.00    -0.306 N 
ATOM     12  H   UNL     1      -1.267   2.126   2.013  0.00  0.00    +0.170 HD
ATOM     13  C   UNL     1      -0.096   3.547   1.069  0.00  0.00    +0.325 A 
ATOM     14  O   UNL     1      -0.575   4.595   1.461  0.00  0.00    -0.247 OA
ATOM     15  N   UNL     1       0.946   3.439   0.223  0.00  0.00    -0.306 N 
ATOM     16  H   UNL     1       1.436   4.178  -0.172  0.00  0.00    +0.170 HD
ENDBRANCH   3   5
BRANCH   1  17
ATOM     17  C   UNL     1       0.091  -4.276   0.194  0.00  0.00    +0.016 C 
ATOM     18  C   UNL     1       0.753  -4.865  -1.053  0.00  0.00    -0.004 C 
BRANCH  17  20
ATOM     19  C   UNL     1      -2.036  -4.526  -0.936  0.00  0.00    -0.095 C 
ATOM     20  N   UNL     1      -1.298  -4.765   0.322  0.00  0.00    +0.388 N 
ATOM     21  H   UNL     1      -1.762  -4.255   1.083  0.00  0.00    -0.081 HD
BRANCH  20  22
ATOM     22  C   UNL     1      -1.298  -6.208   0.642  0.00  0.00    -0.042 C 
BRANCH  22  26
ATOM     23  C   UNL     1      -5.283  -7.405   1.609  0.00  0.00    -0.045 A 
ATOM     24  C   UNL     1      -4.835  -7.483   0.304  0.00  0.00    +0.004 A 
ATOM     25  C   UNL     1      -3.546  -7.096  -0.009  0.00  0.00    +0.002 A 
ATOM     26  C   UNL     1      -2.704  -6.630   0.983  0.00  0.00    -0.064 A 
ATOM     27  C   UNL     1      -3.150  -6.557   2.289  0.00  0.00    +0.002 A 
ATOM     28  C   UNL     1      -4.441  -6.940   2.602  0.00  0.00    +0.004 A 
BRANCH  23  30
ATOM     29  C   UNL     1      -6.647  -8.971   2.965  0.00  0.00    +0.012 C 
ATOM     30  C   UNL     1      -6.689  -7.826   1.950  0.00  0.00    +0.013 C 
ATOM     31  C   UNL     1      -7.445  -6.640   2.551  0.00  0.00    +0.012 C 
ENDBRANCH  23  30
ENDBRANCH  22  26
ENDBRANCH  20  22
ENDBRANCH  17  20
ENDBRANCH   1  17
TORSDOF 6
