REMARK  Name = ZINC22277787
REMARK  8 active torsions:
REMARK  status: ('A' for Active; 'I' for Inactive)
REMARK    1  A    between atoms: C_1  and  C_2
REMARK    2  A    between atoms: C_5  and  S_8
REMARK    3  A    between atoms: S_8  and  N_11
REMARK    4  A    between atoms: N_11  and  C_12
REMARK    5  A    between atoms: N_11  and  C_23
REMARK    6  A    between atoms: C_12  and  C_13
REMARK    7  A    between atoms: N_15  and  C_16
REMARK    8  A    between atoms: C_28  and  C_29
REMARK                            x       y       z     vdW  Elec       q    Type
REMARK                         _______ _______ _______ _____ _____    ______ ____
ROOT
ATOM      1  N   UNL     1       3.678  -0.683   0.547  0.00  0.00    -0.194 N 
ENDROOT
BRANCH   1   2
ATOM      2  C   UNL     1       2.529   0.110   0.509  0.00  0.00    +0.056 A 
ATOM      3  C   UNL     1       2.636   1.482   0.319  0.00  0.00    +0.025 A 
ATOM      4  C   UNL     1       1.498   2.264   0.283  0.00  0.00    +0.003 A 
ATOM      5  C   UNL     1       0.253   1.683   0.435  0.00  0.00    +0.020 A 
ATOM      6  C   UNL     1       0.142   0.316   0.624  0.00  0.00    +0.046 A 
ATOM      7  C   UNL     1       1.277  -0.472   0.661  0.00  0.00    -0.010 A 
ATOM      8  C   UNL     1       1.157  -1.960   0.866  0.00  0.00    +0.047 C 
ATOM      9 CL   UNL     1      -1.424  -0.409   0.815  0.00  0.00    -0.083 Cl
ENDBRANCH   1   2
BRANCH   1  10
ATOM     10  S   UNL     1       4.399  -1.028   1.998  0.00  0.00    +0.075 S 
ATOM     11  O   UNL     1       5.788  -1.174   1.737  0.00  0.00    -0.150 OA
ATOM     12  O   UNL     1       3.894  -0.087   2.936  0.00  0.00    -0.150 OA
BRANCH  10  17
ATOM     13  C   UNL     1       2.394  -6.445   3.743  0.00  0.00    +0.044 C 
ATOM     14  C   UNL     1       2.895  -5.092   3.307  0.00  0.00    -0.050 A 
ATOM     15  C   UNL     1       3.943  -4.999   2.410  0.00  0.00    +0.005 A 
ATOM     16  C   UNL     1       4.402  -3.758   2.011  0.00  0.00    +0.029 A 
ATOM     17  C   UNL     1       3.813  -2.610   2.507  0.00  0.00    +0.109 A 
ATOM     18  C   UNL     1       2.768  -2.703   3.408  0.00  0.00    +0.029 A 
ATOM     19  C   UNL     1       2.306  -3.944   3.804  0.00  0.00    +0.005 A 
ENDBRANCH  10  17
ENDBRANCH   1  10
BRANCH   1  20
ATOM     20  C   UNL     1       4.247  -1.210  -0.696  0.00  0.00    +0.227 C 
BRANCH  20  21
ATOM     21  C   UNL     1       5.162  -0.179  -1.306  0.00  0.00    +0.236 C 
ATOM     22  O   UNL     1       5.404   0.847  -0.708  0.00  0.00    -0.274 OA
ATOM     23  N   UNL     1       5.710  -0.398  -2.518  0.00  0.00    -0.283 N 
ATOM     24  H   UNL     1       5.418  -1.283  -3.102  0.00  0.00    +0.155 HD
BRANCH  23  25
ATOM     25  C   UNL     1       6.653   0.500  -3.032  0.00  0.00    +0.052 A 
ATOM     26  C   UNL     1       7.496   1.191  -2.172  0.00  0.00    +0.025 A 
ATOM     27  C   UNL     1       8.430   2.072  -2.682  0.00  0.00    +0.002 A 
ATOM     28  C   UNL     1       8.518   2.275  -4.047  0.00  0.00    +0.002 A 
ATOM     29  C   UNL     1       7.676   1.593  -4.907  0.00  0.00    +0.022 A 
ATOM     30  C   UNL     1       6.744   0.705  -4.403  0.00  0.00    +0.062 A 
ATOM     31 CL   UNL     1       5.687  -0.151  -5.482  0.00  0.00    -0.082 Cl
ENDBRANCH  23  25
ENDBRANCH  20  21
ENDBRANCH   1  20
TORSDOF 6
