REMARK  Name = ZINC02135809
REMARK  9 active torsions:
REMARK  status: ('A' for Active; 'I' for Inactive)
REMARK    1  A    between atoms: C_1  and  C_2
REMARK    2  A    between atoms: C_2  and  C_3
REMARK    3  A    between atoms: C_3  and  C_4
REMARK    4  A    between atoms: C_4  and  N_53
REMARK    5  A    between atoms: C_5  and  N_53
REMARK    6  A    between atoms: C_6  and  C_7
REMARK    7  A    between atoms: C_6  and  N_53
REMARK    8  A    between atoms: C_8  and  O_30
REMARK    9  A    between atoms: C_17  and  C_18
REMARK                            x       y       z     vdW  Elec       q    Type
REMARK                         _______ _______ _______ _____ _____    ______ ____
ROOT
ATOM      1  C   UNL     1      -1.146   8.494   2.219  0.00  0.00    +0.020 A 
ATOM      2  C   UNL     1      -1.627   7.809   3.323  0.00  0.00    +0.122 A 
ATOM      3  C   UNL     1      -1.600   6.417   3.358  0.00  0.00    +0.046 A 
ATOM      4  C   UNL     1      -1.098   5.709   2.303  0.00  0.00    +0.016 A 
ATOM      5  C   UNL     1      -0.609   6.385   1.183  0.00  0.00    +0.026 A 
ATOM      6  C   UNL     1      -0.633   7.789   1.140  0.00  0.00    +0.144 A 
ATOM      7  O   UNL     1      -0.159   8.440   0.056  0.00  0.00    -0.422 OA
ATOM      8  C   UNL     1       0.343   7.785  -1.002  0.00  0.00    +0.338 A 
ATOM      9  O   UNL     1       0.756   8.425  -1.954  0.00  0.00    -0.245 OA
ATOM     10  C   UNL     1       0.410   6.384  -1.043  0.00  0.00    +0.101 A 
ATOM     11  C   UNL     1      -0.062   5.648   0.031  0.00  0.00    +0.006 A 
ENDROOT
BRANCH  11  12
ATOM     12  C   UNL     1      -0.013   4.173   0.024  0.00  0.00    +0.068 A 
ATOM     13  C   UNL     1       1.199   3.510   0.009  0.00  0.00    +0.027 A 
ATOM     14  C   UNL     1       1.200   2.091   0.002  0.00  0.00    +0.019 A 
ATOM     15  C   UNL     1       2.413   1.386  -0.013  0.00  0.00    +0.026 A 
ATOM     16  C   UNL     1       2.406   0.021  -0.020  0.00  0.00    +0.019 A 
ATOM     17  C   UNL     1       1.205  -0.677  -0.013  0.00  0.00    +0.019 A 
ATOM     18  C   UNL     1       0.002  -0.004   0.002  0.00  0.00    +0.048 A 
ATOM     19  C   UNL     1      -0.017   1.387   0.010  0.00  0.00    +0.139 A 
ATOM     20  O   UNL     1      -1.197   2.043   0.030  0.00  0.00    -0.422 OA
ATOM     21  C   UNL     1      -1.252   3.385   0.031  0.00  0.00    +0.345 A 
ATOM     22  O   UNL     1      -2.330   3.949   0.044  0.00  0.00    -0.245 OA
ATOM     23 BR   UNL     1       4.042  -0.927  -0.039  0.00  0.00    -0.050 Br
ENDBRANCH  11  12
BRANCH   2  24
ATOM     24  O   UNL     1      -2.128   8.499   4.379  0.00  0.00    -0.506 OA
ATOM     25  H   UNL     1      -3.078   8.675   4.319  0.00  0.00    +0.292 HD
ENDBRANCH   2  24
BRANCH   1  26
ATOM     26  C   UNL     1      -1.180  10.000   2.191  0.00  0.00    -0.036 C 
BRANCH  26  28
ATOM     27  C   UNL     1      -2.545  10.072   0.192  0.00  0.00    -0.096 C 
ATOM     28  N   UNL     1      -2.473  10.437   1.623  0.00  0.00    +0.381 N 
ATOM     29  H   UNL     1      -3.234   9.967   2.126  0.00  0.00    -0.082 HD
BRANCH  28  30
ATOM     30  C   UNL     1      -2.625  11.899   1.779  0.00  0.00    -0.079 C 
BRANCH  30  31
ATOM     31  C   UNL     1      -4.052  12.291   1.391  0.00  0.00    -0.019 C 
BRANCH  31  33
ATOM     32  C   UNL     1      -5.660  14.192   1.180  0.00  0.00    +0.004 C 
ATOM     33  C   UNL     1      -4.233  13.800   1.568  0.00  0.00    -0.005 C 
ENDBRANCH  31  33
ENDBRANCH  30  31
ENDBRANCH  28  30
ENDBRANCH  26  28
ENDBRANCH   1  26
TORSDOF 7
