REMARK  Name = ZINC11855839
REMARK  4 active torsions:
REMARK  status: ('A' for Active; 'I' for Inactive)
REMARK    1  A    between atoms: C_3  and  C_6
REMARK    2  A    between atoms: C_8  and  N_22
REMARK    3  A    between atoms: C_23  and  C_25
REMARK    4  A    between atoms: N_30  and  C_32
REMARK                            x       y       z     vdW  Elec       q    Type
REMARK                         _______ _______ _______ _____ _____    ______ ____
ROOT
ATOM      1  C   UNL     1       3.761  -0.681  -0.114  0.00  0.00    +0.102 A 
ATOM      2  C   UNL     1       4.477   0.534  -0.098  0.00  0.00    +0.074 A 
ATOM      3  C   UNL     1       3.575   1.548  -0.073  0.00  0.00    +0.132 A 
ATOM      4  N   UNL     1       2.327   0.993  -0.072  0.00  0.00    -0.185 N 
ATOM      5  N   UNL     1       2.474  -0.400  -0.092  0.00  0.00    -0.162 NA
ATOM      6  C   UNL     1       1.131   1.683  -0.049  0.00  0.00    +0.234 A 
ATOM      7  N   UNL     1      -0.039   0.991  -0.051  0.00  0.00    -0.291 N 
ATOM      8  H   UNL     1      -0.032   0.021  -0.068  0.00  0.00    +0.172 HD
ATOM      9  C   UNL     1      -1.211   1.661  -0.035  0.00  0.00    +0.256 A 
ATOM     10  O   UNL     1      -2.271   1.058  -0.042  0.00  0.00    -0.267 OA
ATOM     11  C   UNL     1      -1.187   3.069  -0.004  0.00  0.00    +0.038 A 
ATOM     12  C   UNL     1       0.016   3.709  -0.004  0.00  0.00    +0.053 A 
ATOM     13  N   UNL     1       1.146   2.997  -0.026  0.00  0.00    -0.217 NA
ATOM     14  C   UNL     1      -0.197   5.208   0.025  0.00  0.00    +0.056 C 
ATOM     15  C   UNL     1      -1.661   5.398   0.478  0.00  0.00    +0.011 C 
ATOM     16  C   UNL     1      -2.315   4.075   0.024  0.00  0.00    +0.043 C 
ENDROOT
BRANCH   1  19
ATOM     17  C   UNL     1       4.491  -4.395  -0.184  0.00  0.00    +0.008 A 
ATOM     18  C   UNL     1       3.723  -3.252  -0.158  0.00  0.00    +0.018 A 
ATOM     19  C   UNL     1       4.352  -2.035  -0.142  0.00  0.00    +0.039 A 
ATOM     20  S   UNL     1       6.073  -2.511  -0.172  0.00  0.00    -0.095 S 
ATOM     21  C   UNL     1       5.844  -4.282  -0.193  0.00  0.00    +0.046 A 
ENDBRANCH   1  19
BRANCH   3  22
ATOM     22  N   UNL     1       3.869   2.909  -0.051  0.00  0.00    -0.270 N 
ATOM     23  C   UNL     1       5.152   3.322  -0.055  0.00  0.00    +0.223 C 
ATOM     24  O   UNL     1       6.051   2.508  -0.077  0.00  0.00    -0.275 OA
ATOM     25  H   UNL     1       3.151   3.561  -0.033  0.00  0.00    +0.156 HD
BRANCH  23  26
ATOM     26  C   UNL     1       5.470   4.795  -0.031  0.00  0.00    +0.102 C 
ATOM     27  C   UNL     1       4.902   5.504  -1.282  0.00  0.00    +0.110 C 
ATOM     28  C   UNL     1       6.048   5.490  -2.270  0.00  0.00    +0.221 C 
ATOM     29  O   UNL     1       5.940   5.691  -3.461  0.00  0.00    -0.275 OA
ATOM     30  N   UNL     1       7.201   5.220  -1.635  0.00  0.00    -0.271 N 
ATOM     31  C   UNL     1       6.987   5.036  -0.195  0.00  0.00    +0.127 C 
BRANCH  30  32
ATOM     32  C   UNL     1       8.447   5.126  -2.267  0.00  0.00    +0.036 A 
ATOM     33  C   UNL     1       8.531   5.191  -3.652  0.00  0.00    +0.026 A 
ATOM     34  C   UNL     1       9.762   5.103  -4.273  0.00  0.00    +0.040 A 
ATOM     35  C   UNL     1      10.910   4.940  -3.517  0.00  0.00    +0.124 A 
ATOM     36  C   UNL     1      10.828   4.869  -2.136  0.00  0.00    +0.040 A 
ATOM     37  C   UNL     1       9.600   4.962  -1.511  0.00  0.00    +0.026 A 
ATOM     38  F   UNL     1      12.112   4.848  -4.127  0.00  0.00    -0.205 F 
ENDBRANCH  30  32
ENDBRANCH  23  26
ENDBRANCH   3  22
TORSDOF 4
