REMARK  Name = ZINC43012033
REMARK  9 active torsions:
REMARK  status: ('A' for Active; 'I' for Inactive)
REMARK    1  A    between atoms: C_1  and  C_2
REMARK    2  A    between atoms: C_6  and  C_8
REMARK    3  A    between atoms: C_11  and  S_22
REMARK    4  A    between atoms: N_12  and  C_13
REMARK    5  A    between atoms: C_19  and  C_21
REMARK    6  A    between atoms: S_22  and  C_23
REMARK    7  A    between atoms: C_23  and  C_24
REMARK    8  A    between atoms: C_24  and  S_25
REMARK    9  A    between atoms: S_25  and  C_28
REMARK                            x       y       z     vdW  Elec       q    Type
REMARK                         _______ _______ _______ _____ _____    ______ ____
ROOT
ATOM      1  C   UNL     1       0.172  -2.830   2.473  0.00  0.00    +0.165 A 
ATOM      2  N   UNL     1      -0.067  -2.340   3.666  0.00  0.00    -0.128 NA
ATOM      3  N   UNL     1      -0.128  -3.292   4.527  0.00  0.00    -0.122 NA
ATOM      4  C   UNL     1       0.070  -4.449   3.936  0.00  0.00    +0.192 A 
ATOM      5  N   UNL     1       0.263  -4.197   2.607  0.00  0.00    -0.299 N 
ENDROOT
BRANCH   1  11
ATOM      6  C   UNL     1      -0.401  -2.491  -2.473  0.00  0.00    +0.044 C 
ATOM      7  C   UNL     1       0.039  -1.892  -1.162  0.00  0.00    -0.050 A 
ATOM      8  C   UNL     1       0.577  -0.618  -1.131  0.00  0.00    +0.003 A 
ATOM      9  C   UNL     1       0.984  -0.061   0.069  0.00  0.00    +0.001 A 
ATOM     10  C   UNL     1       0.855  -0.774   1.243  0.00  0.00    +0.011 A 
ATOM     11  C   UNL     1       0.313  -2.060   1.218  0.00  0.00    +0.020 A 
ATOM     12  C   UNL     1      -0.100  -2.614   0.005  0.00  0.00    +0.015 A 
ENDBRANCH   1  11
BRANCH   5  13
ATOM     13  C   UNL     1       0.515  -5.176   1.548  0.00  0.00    +0.094 C 
ATOM     14  C   UNL     1       1.815  -5.925   1.845  0.00  0.00    +0.025 C 
ATOM     15  C   UNL     1       2.079  -6.948   0.738  0.00  0.00    +0.002 C 
ATOM     16  C   UNL     1       0.919  -7.944   0.677  0.00  0.00    +0.000 C 
ATOM     17  C   UNL     1      -0.381  -7.195   0.380  0.00  0.00    +0.005 C 
ATOM     18  C   UNL     1      -0.645  -6.172   1.486  0.00  0.00    +0.009 C 
ATOM     19  C   UNL     1      -1.945  -5.423   1.189  0.00  0.00    +0.009 C 
ENDBRANCH   5  13
BRANCH   4  20
ATOM     20  S   UNL     1       0.077  -6.032   4.710  0.00  0.00    -0.084 S 
BRANCH  20  21
ATOM     21  C   UNL     1      -0.244  -5.667   6.458  0.00  0.00    +0.100 C 
BRANCH  21  22
ATOM     22  C   UNL     1      -0.264  -6.972   7.256  0.00  0.00    +0.176 C 
BRANCH  22  23
ATOM     23  S   UNL     1      -0.586  -6.606   9.004  0.00  0.00    -0.033 S 
ATOM     24  O   UNL     1       0.511  -5.863   9.517  0.00  0.00    -0.175 OA
ATOM     25  O   UNL     1      -1.897  -6.071   9.117  0.00  0.00    -0.175 OA
ATOM     26  C   UNL     1      -0.570  -8.252   9.767  0.00  0.00    +0.194 C 
ENDBRANCH  22  23
ENDBRANCH  21  22
ENDBRANCH  20  21
ENDBRANCH   4  20
TORSDOF 6
