REMARK  Name = ZINC12468152
REMARK  8 active torsions:
REMARK  status: ('A' for Active; 'I' for Inactive)
REMARK    1  A    between atoms: C_1  and  C_2
REMARK    2  A    between atoms: C_3  and  C_8
REMARK    3  A    between atoms: N_5  and  C_7
REMARK    4  A    between atoms: C_8  and  N_9
REMARK    5  A    between atoms: N_9  and  C_10
REMARK    6  A    between atoms: C_11  and  C_13
REMARK    7  A    between atoms: C_18  and  C_29
REMARK    8  A    between atoms: C_21  and  C_24
REMARK                            x       y       z     vdW  Elec       q    Type
REMARK                         _______ _______ _______ _____ _____    ______ ____
ROOT
ATOM      1  C   UNL     1       2.723   2.034  -3.538  0.00  0.00    +0.167 A 
ATOM      2  C   UNL     1       3.072   3.403  -3.481  0.00  0.00    +0.112 A 
ATOM      3  C   UNL     1       4.214   3.561  -4.180  0.00  0.00    +0.137 A 
ATOM      4  N   UNL     1       4.588   2.340  -4.667  0.00  0.00    -0.237 N 
ATOM      5  N   UNL     1       3.643   1.404  -4.248  0.00  0.00    -0.163 NA
ATOM      6  C   UNL     1       5.790   2.121  -5.475  0.00  0.00    +0.215 C 
ATOM      7  C   UNL     1       6.750   3.298  -5.267  0.00  0.00    +0.063 C 
ATOM      8  C   UNL     1       6.001   4.622  -5.457  0.00  0.00    +0.111 C 
ATOM      9  N   UNL     1       4.955   4.723  -4.420  0.00  0.00    -0.321 N 
ATOM     10 CL   UNL     1       2.190   4.653  -2.661  0.00  0.00    -0.078 Cl
ATOM     11  H   UNL     1       4.792   5.546  -3.934  0.00  0.00    +0.148 HD
ENDROOT
BRANCH   8  12
ATOM     12  C   UNL     1       6.965   5.772  -5.323  0.00  0.00    +0.010 A 
ATOM     13  C   UNL     1       7.559   6.506  -6.296  0.00  0.00    +0.013 A 
ATOM     14  C   UNL     1       8.418   7.527  -5.935  0.00  0.00    +0.008 A 
ATOM     15  C   UNL     1       8.641   7.765  -4.620  0.00  0.00    +0.045 A 
ATOM     16  S   UNL     1       7.615   6.528  -3.842  0.00  0.00    -0.100 S 
ENDBRANCH   8  12
BRANCH   1  19
ATOM     17  N   UNL     1       1.389   0.075  -2.928  0.00  0.00    -0.295 N 
ATOM     18  C   UNL     1       2.444  -0.772  -3.489  0.00  0.00    +0.132 C 
ATOM     19  C   UNL     1       1.540   1.415  -2.908  0.00  0.00    +0.268 C 
ATOM     20  O   UNL     1       0.702   2.112  -2.370  0.00  0.00    -0.268 OA
BRANCH  17  21
ATOM     21  C   UNL     1       0.170  -0.533  -2.390  0.00  0.00    +0.146 C 
BRANCH  21  24
ATOM     22  C   UNL     1      -0.066   1.557  -0.019  0.00  0.00    +0.068 C 
ATOM     23  C   UNL     1       0.257   0.092   0.122  0.00  0.00    +0.065 A 
ATOM     24  C   UNL     1       0.361  -0.830  -0.925  0.00  0.00    +0.010 A 
ATOM     25  C   UNL     1       0.664  -2.035  -0.389  0.00  0.00    +0.113 A 
ATOM     26  N   UNL     1       0.748  -1.881   0.949  0.00  0.00    -0.274 N 
ATOM     27  N   UNL     1       0.493  -0.536   1.245  0.00  0.00    -0.176 NA
ATOM     28  C   UNL     1       1.056  -2.934   1.919  0.00  0.00    +0.172 C 
ENDBRANCH  21  24
ENDBRANCH  17  21
ENDBRANCH   1  19
BRANCH   6  29
ATOM     29  C   UNL     1       6.470   0.820  -5.041  0.00  0.00    +0.412 C 
ATOM     30  F   UNL     1       5.587  -0.250  -5.221  0.00  0.00    -0.168 F 
ATOM     31  F   UNL     1       7.617   0.613  -5.814  0.00  0.00    -0.168 F 
ATOM     32  F   UNL     1       6.826   0.908  -3.691  0.00  0.00    -0.168 F 
ENDBRANCH   6  29
TORSDOF 5
