REMARK  Name = ZINC11785936
REMARK  9 active torsions:
REMARK  status: ('A' for Active; 'I' for Inactive)
REMARK    1  A    between atoms: C_1  and  C_2
REMARK    2  A    between atoms: C_5  and  C_8
REMARK    3  A    between atoms: C_8  and  N_71
REMARK    4  A    between atoms: C_10  and  S_30
REMARK    5  A    between atoms: C_13  and  C_15
REMARK    6  A    between atoms: N_20  and  C_23
REMARK    7  A    between atoms: S_30  and  C_31
REMARK    8  A    between atoms: C_33  and  C_38
REMARK    9  A    between atoms: C_35  and  C_37
REMARK                            x       y       z     vdW  Elec       q    Type
REMARK                         _______ _______ _______ _____ _____    ______ ____
ROOT
ATOM      1  C   UNL     1       4.468   5.371   2.276  0.00  0.00    -0.063 C 
ATOM      2  C   UNL     1       4.061   5.448   0.790  0.00  0.00    +0.037 C 
ATOM      3  C   UNL     1       3.563   4.010   0.488  0.00  0.00    +0.006 C 
ATOM      4  C   UNL     1       2.885   3.626   1.828  0.00  0.00    +0.021 C 
ATOM      5  N   UNL     1       3.748   4.223   2.862  0.00  0.00    +0.391 N 
ATOM      6  H   UNL     1       4.428   3.524   3.183  0.00  0.00    -0.080 HD
ENDROOT
BRANCH   4   7
ATOM      7  C   UNL     1       2.850   2.128   1.988  0.00  0.00    +0.202 C 
ATOM      8  O   UNL     1       3.449   1.602   2.901  0.00  0.00    -0.277 OA
ATOM      9  N   UNL     1       2.154   1.374   1.115  0.00  0.00    -0.300 N 
ATOM     10  C   UNL     1       1.421   1.992  -0.001  0.00  0.00    +0.126 C 
ATOM     11  C   UNL     1      -0.018   1.465   0.010  0.00  0.00    +0.124 C 
ATOM     12  N   UNL     1       0.002  -0.004   0.002  0.00  0.00    -0.325 N 
ATOM     13  C   UNL     1       0.640  -0.535   1.214  0.00  0.00    +0.124 C 
ATOM     14  C   UNL     1       2.106  -0.090   1.252  0.00  0.00    +0.126 C 
BRANCH  12  15
ATOM     15  C   UNL     1      -1.288  -0.522  -0.153  0.00  0.00    +0.065 A 
ATOM     16  C   UNL     1      -2.271  -0.234   0.784  0.00  0.00    +0.026 A 
ATOM     17  C   UNL     1      -3.545  -0.744   0.625  0.00  0.00    +0.002 A 
ATOM     18  C   UNL     1      -3.841  -1.548  -0.460  0.00  0.00    +0.003 A 
ATOM     19  C   UNL     1      -2.864  -1.842  -1.393  0.00  0.00    +0.040 A 
ATOM     20  C   UNL     1      -1.587  -1.332  -1.244  0.00  0.00    +0.144 A 
ATOM     21  F   UNL     1      -0.632  -1.619  -2.155  0.00  0.00    -0.204 F 
ENDBRANCH  12  15
ENDBRANCH   4   7
BRANCH   5  22
ATOM     22  C   UNL     1       2.930   4.670   4.021  0.00  0.00    -0.042 C 
BRANCH  22  27
ATOM     23  C   UNL     1       6.426   6.149   8.377  0.00  0.00    +0.044 C 
ATOM     24  C   UNL     1       5.514   5.764   7.242  0.00  0.00    -0.050 A 
ATOM     25  C   UNL     1       5.125   6.713   6.315  0.00  0.00    +0.003 A 
ATOM     26  C   UNL     1       4.288   6.359   5.273  0.00  0.00    +0.002 A 
ATOM     27  C   UNL     1       3.842   5.056   5.157  0.00  0.00    -0.064 A 
ATOM     28  C   UNL     1       4.226   4.108   6.087  0.00  0.00    +0.002 A 
ATOM     29  C   UNL     1       5.066   4.461   7.127  0.00  0.00    +0.003 A 
ENDBRANCH  22  27
ENDBRANCH   5  22
BRANCH   2  30
ATOM     30  S   UNL     1       5.488   5.861  -0.244  0.00  0.00    -0.085 S 
BRANCH  30  31
ATOM     31  C   UNL     1       5.714   7.549   0.207  0.00  0.00    +0.189 A 
ATOM     32  N   UNL     1       4.894   8.098   1.092  0.00  0.00    -0.227 NA
ATOM     33  C   UNL     1       5.040   9.361   1.456  0.00  0.00    +0.043 A 
ATOM     34  C   UNL     1       6.058  10.115   0.892  0.00  0.00    +0.046 A 
ATOM     35  C   UNL     1       6.894   9.511  -0.034  0.00  0.00    +0.043 A 
ATOM     36  N   UNL     1       6.697   8.242  -0.350  0.00  0.00    -0.227 NA
ATOM     37  C   UNL     1       8.014  10.291  -0.672  0.00  0.00    +0.066 C 
ATOM     38  C   UNL     1       4.106   9.976   2.467  0.00  0.00    +0.066 C 
ENDBRANCH  30  31
ENDBRANCH   2  30
TORSDOF 6
