REMARK  Name = ZINC62997975
REMARK  7 active torsions:
REMARK  status: ('A' for Active; 'I' for Inactive)
REMARK    1  A    between atoms: C_1  and  C_2
REMARK    2  A    between atoms: C_2  and  N_3
REMARK    3  A    between atoms: C_7  and  O_8
REMARK    4  A    between atoms: O_8  and  C_9
REMARK    5  A    between atoms: C_11  and  C_17
REMARK    6  A    between atoms: C_12  and  N_16
REMARK    7  A    between atoms: C_14  and  C_15
REMARK                            x       y       z     vdW  Elec       q    Type
REMARK                         _______ _______ _______ _____ _____    ______ ____
ROOT
ATOM      1  C   UNL     1      -1.498  -0.804   4.033  0.00  0.00    +0.135 A 
ATOM      2  C   UNL     1      -0.561  -1.266   4.946  0.00  0.00    +0.051 A 
ATOM      3  C   UNL     1      -0.954  -1.617   6.222  0.00  0.00    -0.026 A 
ATOM      4  C   UNL     1      -2.288  -1.508   6.591  0.00  0.00    +0.028 A 
ATOM      5  C   UNL     1      -3.226  -1.046   5.678  0.00  0.00    +0.030 A 
ATOM      6  C   UNL     1      -2.830  -0.690   4.403  0.00  0.00    -0.006 A 
ATOM      7  C   UNL     1      -3.846  -0.183   3.413  0.00  0.00    +0.047 C 
ATOM      8  C   UNL     1       0.064  -2.119   7.213  0.00  0.00    +0.046 C 
ENDROOT
BRANCH   4   9
ATOM      9  N   UNL     1      -2.688  -1.865   7.884  0.00  0.00    -0.358 N 
ATOM     10  H   UNL     1      -2.033  -2.188   8.522  0.00  0.00    +0.142 HD
ATOM     11  H   UNL     1      -3.620  -1.789   8.142  0.00  0.00    +0.142 HD
ENDBRANCH   4   9
BRANCH   1  12
ATOM     12  O   UNL     1      -1.110  -0.459   2.776  0.00  0.00    -0.424 OA
BRANCH  12  17
ATOM     13  N   UNL     1       0.776  -0.220   1.286  0.00  0.00    -0.301 N 
ATOM     14  C   UNL     1       2.140  -0.247   1.456  0.00  0.00    +0.110 A 
ATOM     15  C   UNL     1       2.366  -0.465   2.763  0.00  0.00    +0.134 A 
ATOM     16  N   UNL     1       1.180  -0.570   3.385  0.00  0.00    -0.203 NA
ATOM     17  C   UNL     1       0.217  -0.419   2.509  0.00  0.00    +0.304 A 
BRANCH  13  19
ATOM     18  C   UNL     1      -0.295   1.470  -0.121  0.00  0.00    +0.027 C 
ATOM     19  C   UNL     1       0.060  -0.011   0.025  0.00  0.00    +0.123 C 
ENDBRANCH  13  19
ENDBRANCH  12  17
ENDBRANCH   1  12
TORSDOF 4
