REMARK  Name = ZINC12440641
REMARK  6 active torsions:
REMARK  status: ('A' for Active; 'I' for Inactive)
REMARK    1  A    between atoms: C_1  and  C_2
REMARK    2  A    between atoms: C_2  and  C_3
REMARK    3  A    between atoms: C_2  and  N_4
REMARK    4  A    between atoms: C_5  and  C_7
REMARK    5  A    between atoms: N_10  and  C_13
REMARK    6  A    between atoms: C_19  and  C_21
REMARK                            x       y       z     vdW  Elec       q    Type
REMARK                         _______ _______ _______ _____ _____    ______ ____
ROOT
ATOM      1  C   UNL     1      -5.245  -5.572   1.536  0.00  0.00    -0.066 C 
ATOM      2  C   UNL     1      -6.227  -5.433   2.701  0.00  0.00    +0.004 C 
ATOM      3  C   UNL     1      -7.647  -5.720   2.204  0.00  0.00    +0.106 C 
ATOM      4  N   UNL     1      -7.664  -7.038   1.556  0.00  0.00    -0.297 N 
ATOM      5  C   UNL     1      -6.699  -7.309   0.482  0.00  0.00    +0.106 C 
ATOM      6  C   UNL     1      -5.289  -7.005   0.998  0.00  0.00    +0.004 C 
ATOM      7  C   UNL     1      -8.548  -7.981   1.938  0.00  0.00    +0.253 C 
ATOM      8  O   UNL     1      -9.262  -7.789   2.906  0.00  0.00    -0.269 OA
ENDROOT
BRANCH   7   9
ATOM      9  C   UNL     1      -8.651  -9.236   1.190  0.00  0.00    +0.075 A 
ATOM     10  C   UNL     1      -9.162 -10.454   1.595  0.00  0.00    +0.024 A 
ATOM     11  C   UNL     1      -9.133 -11.492   0.668  0.00  0.00    -0.036 A 
ATOM     12  C   UNL     1      -8.600 -11.203  -0.548  0.00  0.00    -0.006 A 
ATOM     13  S   UNL     1      -8.155  -9.591  -0.485  0.00  0.00    -0.088 S 
ATOM     14  C   UNL     1      -8.437 -12.123  -1.722  0.00  0.00    +0.043 C 
ATOM     15  C   UNL     1      -9.530 -13.198  -1.684  0.00  0.00    +0.005 C 
ATOM     16  C   UNL     1      -9.020 -14.382  -0.869  0.00  0.00    +0.001 C 
ATOM     17  C   UNL     1      -8.706 -13.954   0.562  0.00  0.00    +0.005 C 
ATOM     18  C   UNL     1      -9.678 -12.872   1.020  0.00  0.00    +0.036 C 
ENDBRANCH   7   9
BRANCH   1  22
ATOM     19  C   UNL     1      -1.415  -3.754   1.962  0.00  0.00    +0.071 C 
ATOM     20  C   UNL     1      -2.453  -3.594   3.077  0.00  0.00    -0.006 C 
ATOM     21  C   UNL     1      -3.845  -3.892   2.516  0.00  0.00    -0.078 C 
ATOM     22  N   UNL     1      -3.886  -5.266   2.001  0.00  0.00    +0.382 N 
ATOM     23  C   UNL     1      -2.944  -5.407   0.884  0.00  0.00    -0.078 C 
ATOM     24  C   UNL     1      -1.517  -5.168   1.381  0.00  0.00    -0.006 C 
ATOM     25  H   UNL     1      -3.632  -5.907   2.737  0.00  0.00    -0.081 HD
BRANCH  19  27
ATOM     26  N   UNL     1       0.287  -2.359   3.091  0.00  0.00    -0.313 N 
ATOM     27  C   UNL     1      -0.034  -3.539   2.525  0.00  0.00    +0.216 C 
ATOM     28  O   UNL     1       0.789  -4.428   2.468  0.00  0.00    -0.276 OA
ATOM     29  H   UNL     1      -0.371  -1.648   3.136  0.00  0.00    +0.149 HD
BRANCH  26  31
ATOM     30  C   UNL     1       1.953  -0.654   3.640  0.00  0.00    +0.027 C 
ATOM     31  C   UNL     1       1.630  -2.150   3.638  0.00  0.00    +0.067 C 
ATOM     32  C   UNL     1       1.686  -2.685   5.070  0.00  0.00    +0.027 C 
ENDBRANCH  26  31
ENDBRANCH  19  27
ENDBRANCH   1  22
TORSDOF 4
