REMARK  Name = ZINC32682850
REMARK  8 active torsions:
REMARK  status: ('A' for Active; 'I' for Inactive)
REMARK    1  A    between atoms: C_10  and  C_12
REMARK    2  A    between atoms: C_12  and  S_13
REMARK    3  A    between atoms: S_13  and  C_14
REMARK    4  A    between atoms: C_19  and  C_20
REMARK    5  A    between atoms: N_22  and  C_23
REMARK    6  A    between atoms: C_23  and  C_24
REMARK    7  A    between atoms: C_24  and  C_26
REMARK    8  A    between atoms: C_24  and  N_31
REMARK                            x       y       z     vdW  Elec       q    Type
REMARK                         _______ _______ _______ _____ _____    ______ ____
ROOT
ATOM      1  C   UNL     1       6.912  -2.905  -1.264  0.00  0.00    +0.020 A 
ATOM      2  C   UNL     1       6.160  -4.062  -1.431  0.00  0.00    +0.015 A 
ATOM      3  C   UNL     1       6.753  -5.298  -1.282  0.00  0.00    +0.001 A 
ATOM      4  C   UNL     1       8.097  -5.398  -0.954  0.00  0.00    +0.001 A 
ATOM      5  C   UNL     1       8.857  -4.262  -0.779  0.00  0.00    +0.014 A 
ATOM      6  C   UNL     1       8.273  -3.002  -0.932  0.00  0.00    +0.050 A 
ENDROOT
BRANCH   6   7
ATOM      7  C   UNL     1       9.079  -1.783  -0.745  0.00  0.00    +0.245 C 
ATOM      8  O   UNL     1       8.567  -0.688  -0.878  0.00  0.00    -0.270 OA
ATOM      9  N   UNL     1      10.385  -1.881  -0.426  0.00  0.00    -0.312 N 
ATOM     10  H   UNL     1      10.849  -2.872  -0.305  0.00  0.00    +0.149 HD
BRANCH   9  11
ATOM     11  C   UNL     1      11.187  -0.670  -0.240  0.00  0.00    +0.097 C 
BRANCH  11  12
ATOM     12  C   UNL     1      12.649  -1.057  -0.003  0.00  0.00    +0.016 C 
BRANCH  12  13
ATOM     13  N   UNL     1      12.728  -2.008   1.114  0.00  0.00    +0.387 N 
ATOM     14  C   UNL     1      12.167  -1.427   2.340  0.00  0.00    -0.078 C 
ATOM     15  C   UNL     1      12.133  -2.490   3.441  0.00  0.00    -0.019 C 
ATOM     16  C   UNL     1      13.555  -2.997   3.697  0.00  0.00    -0.004 C 
ATOM     17  C   UNL     1      14.134  -3.553   2.393  0.00  0.00    -0.019 C 
ATOM     18  C   UNL     1      14.110  -2.458   1.323  0.00  0.00    -0.078 C 
ATOM     19  H   UNL     1      12.124  -2.889   0.853  0.00  0.00    -0.081 HD
ENDBRANCH  12  13
BRANCH  12  20
ATOM     20  C   UNL     1      13.207  -1.696  -1.248  0.00  0.00    +0.093 A 
ATOM     21  C   UNL     1      13.975  -1.086  -2.169  0.00  0.00    +0.043 A 
ATOM     22  C   UNL     1      14.272  -2.051  -3.159  0.00  0.00    +0.041 A 
ATOM     23  C   UNL     1      13.662  -3.191  -2.787  0.00  0.00    +0.195 A 
ATOM     24  O   UNL     1      13.018  -2.970  -1.629  0.00  0.00    -0.469 OA
ENDBRANCH  12  20
ENDBRANCH  11  12
ENDBRANCH   9  11
ENDBRANCH   6   7
BRANCH   1  25
ATOM     25  S   UNL     1       6.159  -1.324  -1.461  0.00  0.00    -0.115 S 
BRANCH  25  26
ATOM     26  C   UNL     1       4.435  -1.707  -1.877  0.00  0.00    +0.170 C 
BRANCH  26  36
ATOM     27  C   UNL     1      -0.203  -3.693  -2.993  0.00  0.00    +0.000 A 
ATOM     28  C   UNL     1       1.110  -3.984  -2.670  0.00  0.00    +0.002 A 
ATOM     29  C   UNL     1       2.014  -2.965  -2.458  0.00  0.00    +0.024 A 
ATOM     30  C   UNL     1       1.612  -1.633  -2.567  0.00  0.00    +0.039 A 
ATOM     31  C   UNL     1       0.294  -1.352  -2.890  0.00  0.00    -0.024 A 
ATOM     32  C   UNL     1      -0.608  -2.377  -3.103  0.00  0.00    +0.005 A 
ATOM     33  C   UNL     1       0.121   0.149  -2.945  0.00  0.00    +0.056 C 
ATOM     34  C   UNL     1       1.512   0.711  -2.610  0.00  0.00    +0.118 C 
ATOM     35  N   UNL     1       2.360  -0.464  -2.393  0.00  0.00    -0.270 N 
ATOM     36  C   UNL     1       3.669  -0.425  -2.075  0.00  0.00    +0.230 C 
ATOM     37  O   UNL     1       4.230   0.643  -1.947  0.00  0.00    -0.274 OA
ENDBRANCH  26  36
ENDBRANCH  25  26
ENDBRANCH   1  25
TORSDOF 8
