REMARK  Name = ZINC39667746
REMARK  12 active torsions:
REMARK  status: ('A' for Active; 'I' for Inactive)
REMARK    1  A    between atoms: C_1  and  C_2
REMARK    2  A    between atoms: C_2  and  N_3
REMARK    3  A    between atoms: C_8  and  C_16
REMARK    4  A    between atoms: N_18  and  C_19
REMARK    5  A    between atoms: C_19  and  C_21
REMARK    6  A    between atoms: C_19  and  C_22
REMARK    7  A    between atoms: C_25  and  O_31
REMARK    8  A    between atoms: C_26  and  O_28
REMARK    9  A    between atoms: O_28  and  C_29
REMARK   10  A    between atoms: C_29  and  C_30
REMARK   11  A    between atoms: O_31  and  C_32
REMARK   12  A    between atoms: C_32  and  C_33
REMARK                            x       y       z     vdW  Elec       q    Type
REMARK                         _______ _______ _______ _____ _____    ______ ____
ROOT
ATOM      1  C   UNL     1      -0.026  -4.516   2.463  0.00  0.00    +0.246 C 
ATOM      2  O   UNL     1       0.200  -5.292   1.556  0.00  0.00    -0.270 OA
ATOM      3  N   UNL     1      -1.276  -4.400   2.956  0.00  0.00    -0.305 N 
ATOM      4  H   UNL     1      -1.456  -3.781   3.680  0.00  0.00    +0.150 HD
ENDROOT
BRANCH   1  10
ATOM      5  N   UNL     1       0.713  -0.491   1.192  0.00  0.00    -0.298 NA
ATOM      6  C   UNL     1       2.141  -0.141   1.133  0.00  0.00    +0.091 C 
ATOM      7  C   UNL     1       2.745  -0.325   2.525  0.00  0.00    +0.071 C 
ATOM      8  C   UNL     1       2.399  -1.694   3.060  0.00  0.00    +0.048 A 
ATOM      9  C   UNL     1       1.367  -2.442   2.506  0.00  0.00    +0.001 A 
ATOM     10  C   UNL     1       1.070  -3.698   3.027  0.00  0.00    +0.052 A 
ATOM     11  C   UNL     1       1.846  -4.172   4.113  0.00  0.00    +0.013 A 
ATOM     12  C   UNL     1       1.611  -5.425   4.692  0.00  0.00    +0.011 A 
ATOM     13  C   UNL     1       2.384  -5.842   5.734  0.00  0.00    +0.001 A 
ATOM     14  C   UNL     1       3.406  -5.037   6.232  0.00  0.00    +0.002 A 
ATOM     15  C   UNL     1       3.661  -3.813   5.694  0.00  0.00    +0.028 A 
ATOM     16  C   UNL     1       2.884  -3.349   4.617  0.00  0.00    +0.072 A 
ATOM     17  N   UNL     1       3.109  -2.154   4.069  0.00  0.00    -0.251 NA
ATOM     18  C   UNL     1       0.551  -1.940   1.345  0.00  0.00    +0.122 C 
BRANCH   5  20
ATOM     19  C   UNL     1      -0.019   1.526   0.010  0.00  0.00    +0.020 C 
ATOM     20  C   UNL     1       0.002  -0.004   0.002  0.00  0.00    +0.081 C 
ENDBRANCH   5  20
ENDBRANCH   1  10
BRANCH   3  21
ATOM     21  C   UNL     1      -2.361  -5.210   2.397  0.00  0.00    +0.101 C 
ATOM     22  C   UNL     1      -2.939  -4.508   1.166  0.00  0.00    +0.033 C 
BRANCH  21  23
ATOM     23  C   UNL     1      -3.443  -5.381   3.431  0.00  0.00    -0.024 A 
ATOM     24  C   UNL     1      -3.800  -4.318   4.240  0.00  0.00    +0.009 A 
ATOM     25  C   UNL     1      -4.792  -4.471   5.190  0.00  0.00    +0.050 A 
ATOM     26  C   UNL     1      -5.432  -5.691   5.334  0.00  0.00    +0.162 A 
ATOM     27  C   UNL     1      -5.074  -6.762   4.520  0.00  0.00    +0.162 A 
ATOM     28  C   UNL     1      -4.082  -6.600   3.566  0.00  0.00    +0.055 A 
BRANCH  27  29
ATOM     29  O   UNL     1      -5.699  -7.962   4.657  0.00  0.00    -0.489 OA
BRANCH  29  30
ATOM     30  C   UNL     1      -5.279  -9.015   3.787  0.00  0.00    +0.226 C 
ATOM     31  C   UNL     1      -6.089 -10.277   4.087  0.00  0.00    +0.048 C 
ENDBRANCH  29  30
ENDBRANCH  27  29
BRANCH  26  32
ATOM     32  O   UNL     1      -6.408  -5.843   6.269  0.00  0.00    -0.489 OA
BRANCH  32  33
ATOM     33  C   UNL     1      -6.723  -4.702   7.069  0.00  0.00    +0.226 C 
ATOM     34  C   UNL     1      -7.835  -5.063   8.056  0.00  0.00    +0.048 C 
ENDBRANCH  32  33
ENDBRANCH  26  32
ENDBRANCH  21  23
ENDBRANCH   3  21
TORSDOF 8
