REMARK  Name = ZINC32581134
REMARK  13 active torsions:
REMARK  status: ('A' for Active; 'I' for Inactive)
REMARK    1  A    between atoms: C_1  and  C_2
REMARK    2  A    between atoms: C_2  and  O_3
REMARK    3  A    between atoms: O_3  and  C_4
REMARK    4  A    between atoms: C_6  and  C_12
REMARK    5  A    between atoms: C_9  and  O_10
REMARK    6  A    between atoms: N_13  and  N_14
REMARK    7  A    between atoms: C_15  and  C_17
REMARK    8  A    between atoms: C_17  and  N_28
REMARK    9  A    between atoms: C_18  and  C_19
REMARK   10  A    between atoms: C_22  and  N_25
REMARK   11  A    between atoms: N_25  and  C_26
REMARK   12  A    between atoms: N_25  and  C_27
REMARK   13  A    between atoms: C_29  and  C_31
REMARK                            x       y       z     vdW  Elec       q    Type
REMARK                         _______ _______ _______ _____ _____    ______ ____
ROOT
ATOM      1  C   UNL     1      -1.128  -2.231  -0.179  0.00  0.00    +0.098 C 
ATOM      2  C   UNL     1      -2.353  -2.809  -0.178  0.00  0.00    +0.036 C 
ENDROOT
BRANCH   2   3
ATOM      3  C   UNL     1      -3.559  -1.976  -0.270  0.00  0.00    -0.023 A 
ATOM      4  C   UNL     1      -3.535  -0.654   0.191  0.00  0.00    +0.010 A 
ATOM      5  C   UNL     1      -4.666   0.125   0.097  0.00  0.00    +0.023 A 
ATOM      6  C   UNL     1      -5.835  -0.403  -0.444  0.00  0.00    +0.029 A 
ATOM      7  C   UNL     1      -5.864  -1.718  -0.897  0.00  0.00    +0.023 A 
ATOM      8  C   UNL     1      -4.737  -2.503  -0.813  0.00  0.00    +0.010 A 
BRANCH   6   9
ATOM      9  N   UNL     1      -6.978   0.388  -0.531  0.00  0.00    -0.336 N 
ATOM     10  C   UNL     1      -8.241  -0.198  -0.988  0.00  0.00    +0.129 C 
ATOM     11  C   UNL     1      -6.918   1.805  -0.167  0.00  0.00    +0.129 C 
ENDBRANCH   6   9
ENDBRANCH   2   3
BRANCH   1  13
ATOM     12  N   UNL     1       1.295  -2.491  -0.079  0.00  0.00    -0.202 N 
ATOM     13  C   UNL     1       0.073  -3.056  -0.006  0.00  0.00    +0.277 C 
ATOM     14  O   UNL     1      -0.033  -4.251   0.202  0.00  0.00    -0.267 OA
ATOM     15  H   UNL     1       1.392  -1.399  -0.175  0.00  0.00    +0.178 HD
BRANCH  12  17
ATOM     16  C   UNL     1       3.619  -2.750  -0.102  0.00  0.00    +0.138 C 
ATOM     17  N   UNL     1       2.442  -3.294  -0.032  0.00  0.00    -0.187 NA
BRANCH  16  20
ATOM     18  C   UNL     1       7.222  -3.808  -0.080  0.00  0.00    +0.164 A 
ATOM     19  C   UNL     1       6.093  -3.012  -0.133  0.00  0.00    +0.059 A 
ATOM     20  C   UNL     1       4.826  -3.595  -0.052  0.00  0.00    -0.000 A 
ATOM     21  C   UNL     1       4.705  -4.982   0.070  0.00  0.00    +0.033 A 
ATOM     22  C   UNL     1       5.836  -5.771   0.116  0.00  0.00    +0.087 A 
ATOM     23  C   UNL     1       7.095  -5.190   0.042  0.00  0.00    +0.177 A 
ATOM     24 CL   UNL     1       5.685  -7.494   0.267  0.00  0.00    -0.080 Cl
BRANCH  23  25
ATOM     25  O   UNL     1       8.206  -5.971   0.088  0.00  0.00    -0.502 OA
ATOM     26  H   UNL     1       8.108  -7.063   0.184  0.00  0.00    +0.292 HD
ENDBRANCH  23  25
BRANCH  18  27
ATOM     27  O   UNL     1       8.456  -3.243  -0.152  0.00  0.00    -0.489 OA
BRANCH  27  29
ATOM     28  C   UNL     1       9.973  -1.371  -0.343  0.00  0.00    +0.048 C 
ATOM     29  C   UNL     1       8.512  -1.820  -0.276  0.00  0.00    +0.226 C 
ENDBRANCH  27  29
ENDBRANCH  18  27
ENDBRANCH  16  20
ENDBRANCH  12  17
ENDBRANCH   1  13
BRANCH   1  30
ATOM     30  N   UNL     1      -1.008  -0.847  -0.344  0.00  0.00    -0.277 N 
ATOM     31  C   UNL     1      -0.407  -0.104   0.606  0.00  0.00    +0.248 C 
ATOM     32  O   UNL     1      -0.054  -0.620   1.649  0.00  0.00    -0.270 OA
ATOM     33  H   UNL     1      -1.404  -0.365  -1.250  0.00  0.00    +0.155 HD
BRANCH  31  34
ATOM     34  C   UNL     1      -0.177   1.339   0.381  0.00  0.00    +0.037 A 
ATOM     35  C   UNL     1      -0.575   1.934  -0.817  0.00  0.00    +0.013 A 
ATOM     36  C   UNL     1      -0.362   3.282  -1.018  0.00  0.00    +0.001 A 
ATOM     37  C   UNL     1       0.255   4.042  -0.040  0.00  0.00    +0.000 A 
ATOM     38  C   UNL     1       0.658   3.457   1.147  0.00  0.00    +0.001 A 
ATOM     39  C   UNL     1       0.445   2.111   1.364  0.00  0.00    +0.013 A 
ENDBRANCH  31  34
ENDBRANCH   1  30
TORSDOF 10
