REMARK  Name = ZINC35703196
REMARK  13 active torsions:
REMARK  status: ('A' for Active; 'I' for Inactive)
REMARK    1  A    between atoms: C_1  and  C_2
REMARK    2  A    between atoms: C_2  and  C_3
REMARK    3  A    between atoms: C_2  and  C_4
REMARK    4  A    between atoms: C_2  and  C_5
REMARK    5  A    between atoms: C_5  and  C_6
REMARK    6  A    between atoms: C_6  and  C_7
REMARK    7  A    between atoms: C_6  and  C_8
REMARK    8  A    between atoms: C_6  and  N_9
REMARK    9  A    between atoms: N_9  and  C_10
REMARK   10  A    between atoms: C_11  and  C_19
REMARK   11  A    between atoms: C_22  and  O_25
REMARK   12  A    between atoms: O_25  and  S_26
REMARK   13  A    between atoms: S_26  and  C_29
REMARK                            x       y       z     vdW  Elec       q    Type
REMARK                         _______ _______ _______ _____ _____    ______ ____
ROOT
ATOM      1  C   UNL     1       6.365   0.352  -3.679  0.00  0.00    +0.129 A 
ATOM      2  C   UNL     1       7.014   0.399  -4.895  0.00  0.00    +0.087 A 
ATOM      3  N   UNL     1       8.207   0.993  -4.708  0.00  0.00    -0.338 N 
ATOM      4  C   UNL     1       8.336   1.321  -3.433  0.00  0.00    +0.117 A 
ATOM      5  N   UNL     1       7.197   0.937  -2.764  0.00  0.00    -0.289 N 
ATOM      6  C   UNL     1       7.072   1.167  -1.420  0.00  0.00    +0.094 A 
ATOM      7  C   UNL     1       8.060   1.776  -0.734  0.00  0.00    +0.018 A 
ATOM      8  C   UNL     1       9.235   2.183  -1.391  0.00  0.00    +0.005 A 
ATOM      9  C   UNL     1       9.378   1.955  -2.723  0.00  0.00    +0.045 A 
ATOM     10  H   UNL     1       8.867   1.156  -5.400  0.00  0.00    +0.167 HD
ENDROOT
BRANCH   2  11
ATOM     11  C   UNL     1       6.490  -0.116  -6.182  0.00  0.00    +0.002 A 
ATOM     12  C   UNL     1       5.876  -1.367  -6.236  0.00  0.00    +0.014 A 
ATOM     13  C   UNL     1       5.388  -1.842  -7.436  0.00  0.00    +0.049 A 
ATOM     14  C   UNL     1       5.508  -1.077  -8.588  0.00  0.00    +0.157 A 
ATOM     15  C   UNL     1       6.119   0.168  -8.537  0.00  0.00    +0.049 A 
ATOM     16  C   UNL     1       6.604   0.652  -7.340  0.00  0.00    +0.014 A 
BRANCH  14  17
ATOM     17  O   UNL     1       5.027  -1.549  -9.768  0.00  0.00    -0.342 OA
BRANCH  17  18
ATOM     18  S   UNL     1       3.578  -1.172 -10.041  0.00  0.00    +0.152 S 
ATOM     19  O   UNL     1       3.176  -1.907 -11.189  0.00  0.00    -0.131 OA
ATOM     20  O   UNL     1       2.893  -1.266  -8.799  0.00  0.00    -0.131 OA
BRANCH  18  21
ATOM     21  C   UNL     1       3.560   0.529 -10.499  0.00  0.00    +0.136 A 
ATOM     22  C   UNL     1       3.275   1.484  -9.572  0.00  0.00    +0.031 A 
ATOM     23  C   UNL     1       3.255   2.834  -9.916  0.00  0.00    +0.003 A 
ATOM     24  C   UNL     1       3.521   3.237 -11.189  0.00  0.00    +0.008 A 
ATOM     25  C   UNL     1       3.819   2.280 -12.173  0.00  0.00    -0.016 A 
ATOM     26  C   UNL     1       3.845   0.907 -11.822  0.00  0.00    +0.010 A 
ATOM     27  C   UNL     1       4.149  -0.050 -12.805  0.00  0.00    +0.010 A 
ATOM     28  C   UNL     1       4.420   0.353 -14.076  0.00  0.00    +0.001 A 
ATOM     29  C   UNL     1       4.401   1.704 -14.420  0.00  0.00    +0.001 A 
ATOM     30  C   UNL     1       4.098   2.658 -13.498  0.00  0.00    +0.008 A 
ENDBRANCH  18  21
ENDBRANCH  17  18
ENDBRANCH  14  17
ENDBRANCH   2  11
BRANCH   1  31
ATOM     31  N   UNL     1       5.100  -0.183  -3.431  0.00  0.00    -0.323 N 
ATOM     32  H   UNL     1       4.592  -0.582  -4.154  0.00  0.00    +0.148 HD
BRANCH  31  33
ATOM     33  C   UNL     1       4.541  -0.144  -2.078  0.00  0.00    +0.028 C 
ATOM     34  C   UNL     1       4.457   1.308  -1.603  0.00  0.00    +0.031 C 
ATOM     35  C   UNL     1       5.440  -0.940  -1.130  0.00  0.00    +0.031 C 
BRANCH  33  36
ATOM     36  C   UNL     1       3.140  -0.759  -2.087  0.00  0.00    +0.031 C 
BRANCH  36  38
ATOM     37  C   UNL     1       2.751  -1.262  -4.503  0.00  0.00    +0.010 C 
ATOM     38  C   UNL     1       2.398  -0.319  -3.351  0.00  0.00    -0.036 C 
ATOM     39  C   UNL     1       2.813   1.108  -3.716  0.00  0.00    +0.010 C 
ATOM     40  C   UNL     1       0.890  -0.363  -3.099  0.00  0.00    +0.010 C 
ENDBRANCH  36  38
ENDBRANCH  33  36
ENDBRANCH  31  33
ENDBRANCH   1  31
TORSDOF 8
