REMARK  Name = ZINC12317702
REMARK  8 active torsions:
REMARK  status: ('A' for Active; 'I' for Inactive)
REMARK    1  A    between atoms: C_1  and  C_2
REMARK    2  A    between atoms: C_2  and  N_3
REMARK    3  A    between atoms: C_7  and  C_8
REMARK    4  A    between atoms: C_8  and  N_9
REMARK    5  A    between atoms: C_10  and  C_12
REMARK    6  A    between atoms: C_12  and  C_13
REMARK    7  A    between atoms: C_13  and  C_15
REMARK    8  A    between atoms: C_13  and  C_21
REMARK                            x       y       z     vdW  Elec       q    Type
REMARK                         _______ _______ _______ _____ _____    ______ ____
ROOT
ATOM      1  C   UNL     1       0.002  -0.004   0.002  0.00  0.00    +0.058 C 
ENDROOT
BRANCH   1   2
ATOM      2  C   UNL     1      -0.817  -0.511  -1.157  0.00  0.00    -0.036 A 
ATOM      3  C   UNL     1      -2.184  -0.667  -1.019  0.00  0.00    +0.008 A 
ATOM      4  C   UNL     1      -2.940  -1.128  -2.081  0.00  0.00    +0.050 A 
ATOM      5  C   UNL     1      -2.328  -1.444  -3.283  0.00  0.00    +0.166 A 
ATOM      6  C   UNL     1      -0.950  -1.291  -3.420  0.00  0.00    +0.167 A 
ATOM      7  C   UNL     1      -0.199  -0.825  -2.353  0.00  0.00    +0.053 A 
ATOM      8  O   UNL     1      -0.593  -1.665  -4.683  0.00  0.00    -0.453 OA
ATOM      9  C   UNL     1      -1.815  -1.659  -5.446  0.00  0.00    +0.466 C 
ATOM     10  O   UNL     1      -2.834  -1.913  -4.461  0.00  0.00    -0.453 OA
ENDBRANCH   1   2
BRANCH   1  11
ATOM     11  C   UNL     1      -0.344   1.438   0.269  0.00  0.00    -0.040 A 
ATOM     12  C   UNL     1      -1.596   1.770   0.752  0.00  0.00    +0.004 A 
ATOM     13  C   UNL     1      -1.913   3.093   1.001  0.00  0.00    +0.000 A 
ATOM     14  C   UNL     1      -0.980   4.084   0.758  0.00  0.00    +0.000 A 
ATOM     15  C   UNL     1       0.270   3.752   0.271  0.00  0.00    +0.000 A 
ATOM     16  C   UNL     1       0.588   2.429   0.026  0.00  0.00    +0.004 A 
ENDBRANCH   1  11
BRANCH   1  17
ATOM     17  C   UNL     1      -0.302  -0.841   1.246  0.00  0.00    +0.108 C 
BRANCH  17  19
ATOM     18  N   UNL     1       0.515  -1.018   3.574  0.00  0.00    -0.308 N 
ATOM     19  C   UNL     1       0.605  -0.414   2.372  0.00  0.00    +0.214 C 
ATOM     20  O   UNL     1       1.415   0.471   2.196  0.00  0.00    -0.276 OA
ATOM     21  H   UNL     1      -0.133  -1.726   3.715  0.00  0.00    +0.149 HD
BRANCH  18  22
ATOM     22  C   UNL     1       1.397  -0.603   4.669  0.00  0.00    +0.178 C 
BRANCH  22  27
ATOM     23  N   UNL     1       1.683  -2.600   6.217  0.00  0.00    -0.333 N 
ATOM     24  C   UNL     1       1.132  -3.017   7.399  0.00  0.00    +0.107 A 
ATOM     25  C   UNL     1       0.229  -2.084   7.758  0.00  0.00    +0.130 A 
ATOM     26  N   UNL     1       0.232  -1.123   6.823  0.00  0.00    -0.239 NA
ATOM     27  C   UNL     1       1.097  -1.427   5.894  0.00  0.00    +0.127 A 
BRANCH  23  29
ATOM     28  C   UNL     1       4.092  -2.739   5.817  0.00  0.00    +0.027 C 
ATOM     29  C   UNL     1       2.716  -3.297   5.447  0.00  0.00    +0.119 C 
ENDBRANCH  23  29
ENDBRANCH  22  27
ENDBRANCH  18  22
ENDBRANCH  17  19
ENDBRANCH   1  17
TORSDOF 7
