REMARK  Name = ZINC15479248
REMARK  12 active torsions:
REMARK  status: ('A' for Active; 'I' for Inactive)
REMARK    1  A    between atoms: C_1  and  C_2
REMARK    2  A    between atoms: C_2  and  N_60
REMARK    3  A    between atoms: C_3  and  C_4
REMARK    4  A    between atoms: C_3  and  N_60
REMARK    5  A    between atoms: N_6  and  C_7
REMARK    6  A    between atoms: C_12  and  C_13
REMARK    7  A    between atoms: C_17  and  C_18
REMARK    8  A    between atoms: C_17  and  N_60
REMARK    9  A    between atoms: N_20  and  C_21
REMARK   10  A    between atoms: C_21  and  C_23
REMARK   11  A    between atoms: C_21  and  C_30
REMARK   12  A    between atoms: C_26  and  C_29
REMARK                            x       y       z     vdW  Elec       q    Type
REMARK                         _______ _______ _______ _____ _____    ______ ____
ROOT
ATOM      1  N   UNL     1       0.503   0.768  -0.572  0.00  0.00    +0.391 N 
ATOM      2  H   UNL     1       1.232   0.201  -0.125  0.00  0.00    -0.080 HD
ENDROOT
BRANCH   1   4
ATOM      3  C   UNL     1      -0.169   1.880  -2.676  0.00  0.00    -0.017 C 
ATOM      4  C   UNL     1       0.920   1.082  -1.955  0.00  0.00    -0.081 C 
ENDBRANCH   1   4
BRANCH   1   5
ATOM      5  C   UNL     1       0.327   2.018   0.198  0.00  0.00    +0.020 C 
BRANCH   5   6
ATOM      6  C   UNL     1       1.686   2.582   0.521  0.00  0.00    +0.201 C 
ATOM      7  O   UNL     1       2.687   1.996   0.165  0.00  0.00    -0.278 OA
ATOM      8  N   UNL     1       1.791   3.737   1.207  0.00  0.00    -0.287 N 
ATOM      9  H   UNL     1       0.996   4.162   1.567  0.00  0.00    +0.155 HD
BRANCH   8  10
ATOM     10  C   UNL     1       3.046   4.325   1.402  0.00  0.00    +0.045 A 
ATOM     11  C   UNL     1       4.114   3.967   0.590  0.00  0.00    +0.024 A 
ATOM     12  C   UNL     1       5.351   4.553   0.781  0.00  0.00    +0.002 A 
ATOM     13  C   UNL     1       5.527   5.486   1.786  0.00  0.00    +0.001 A 
ATOM     14  C   UNL     1       4.467   5.840   2.599  0.00  0.00    +0.014 A 
ATOM     15  C   UNL     1       3.227   5.262   2.410  0.00  0.00    +0.076 A 
BRANCH  15  16
ATOM     16  C   UNL     1       2.071   5.648   3.297  0.00  0.00    +0.419 C 
ATOM     17  F   UNL     1       2.497   6.600   4.229  0.00  0.00    -0.166 F 
ATOM     18  F   UNL     1       1.043   6.186   2.517  0.00  0.00    -0.166 F 
ATOM     19  F   UNL     1       1.602   4.515   3.970  0.00  0.00    -0.166 F 
ENDBRANCH  15  16
ENDBRANCH   8  10
ENDBRANCH   5   6
ENDBRANCH   1   5
BRANCH   1  20
ATOM     20  C   UNL     1      -0.761   0.002  -0.587  0.00  0.00    +0.019 C 
BRANCH  20  21
ATOM     21  C   UNL     1      -0.499  -1.357  -1.183  0.00  0.00    +0.197 C 
ATOM     22  O   UNL     1       0.614  -1.646  -1.568  0.00  0.00    -0.278 OA
ATOM     23  N   UNL     1      -1.502  -2.251  -1.288  0.00  0.00    -0.306 N 
ATOM     24  H   UNL     1      -2.392  -2.020  -0.981  0.00  0.00    +0.150 HD
BRANCH  23  25
ATOM     25  C   UNL     1      -1.246  -3.573  -1.868  0.00  0.00    +0.140 C 
BRANCH  25  26
ATOM     26  C   UNL     1      -2.261  -4.556  -1.343  0.00  0.00    -0.022 A 
ATOM     27  C   UNL     1      -3.580  -4.171  -1.188  0.00  0.00    +0.006 A 
ATOM     28  C   UNL     1      -4.512  -5.074  -0.712  0.00  0.00    +0.004 A 
ATOM     29  C   UNL     1      -4.123  -6.359  -0.381  0.00  0.00    -0.050 A 
ATOM     30  C   UNL     1      -2.803  -6.741  -0.530  0.00  0.00    +0.004 A 
ATOM     31  C   UNL     1      -1.872  -5.840  -1.012  0.00  0.00    +0.006 A 
ATOM     32  C   UNL     1      -5.138  -7.341   0.143  0.00  0.00    +0.044 C 
ENDBRANCH  25  26
BRANCH  25  33
ATOM     33  C   UNL     1      -1.354  -3.492  -3.369  0.00  0.00    +0.014 A 
ATOM     34  C   UNL     1      -0.582  -4.085  -4.312  0.00  0.00    +0.013 A 
ATOM     35  C   UNL     1      -0.871  -3.869  -5.647  0.00  0.00    +0.008 A 
ATOM     36  C   UNL     1      -1.912  -3.064  -5.972  0.00  0.00    +0.045 A 
ATOM     37  S   UNL     1      -2.526  -2.587  -4.365  0.00  0.00    -0.099 S 
ENDBRANCH  25  33
ENDBRANCH  23  25
ENDBRANCH  20  21
ENDBRANCH   1  20
TORSDOF 10
