REMARK  Name = ZINC27528435
REMARK  6 active torsions:
REMARK  status: ('A' for Active; 'I' for Inactive)
REMARK    1  A    between atoms: C_1  and  C_2
REMARK    2  A    between atoms: C_4  and  C_28
REMARK    3  A    between atoms: N_6  and  C_7
REMARK    4  A    between atoms: C_7  and  C_8
REMARK    5  A    between atoms: N_10  and  N_11
REMARK    6  A    between atoms: C_21  and  C_22
REMARK                            x       y       z     vdW  Elec       q    Type
REMARK                         _______ _______ _______ _____ _____    ______ ____
ROOT
ATOM      1  N   UNL     1      -0.016   1.349   0.009  0.00  0.00    -0.209 N 
ATOM      2  C   UNL     1       0.002  -0.004   0.002  0.00  0.00    +0.279 A 
ATOM      3  O   UNL     1      -1.029  -0.650   0.008  0.00  0.00    -0.265 OA
ATOM      4  C   UNL     1       1.317  -0.663  -0.014  0.00  0.00    +0.066 A 
ATOM      5  C   UNL     1       1.446  -2.050  -0.023  0.00  0.00    +0.015 A 
ATOM      6  C   UNL     1       2.702  -2.615  -0.039  0.00  0.00    +0.001 A 
ATOM      7  C   UNL     1       3.836  -1.814  -0.045  0.00  0.00    +0.002 A 
ATOM      8  C   UNL     1       3.731  -0.442  -0.036  0.00  0.00    +0.028 A 
ATOM      9  C   UNL     1       2.468   0.155  -0.021  0.00  0.00    +0.078 A 
ATOM     10  N   UNL     1       2.318   1.503  -0.012  0.00  0.00    -0.232 NA
ATOM     11  C   UNL     1       1.143   2.057   0.002  0.00  0.00    +0.134 A 
ENDROOT
BRANCH  11  12
ATOM     12  C   UNL     1       1.063   3.562   0.011  0.00  0.00    +0.057 C 
ATOM     13  C   UNL     1       0.897   4.071  -1.422  0.00  0.00    +0.011 C 
ATOM     14  C   UNL     1       0.815   5.599  -1.414  0.00  0.00    +0.001 C 
ATOM     15  C   UNL     1       2.099   6.175  -0.813  0.00  0.00    +0.000 C 
ATOM     16  C   UNL     1       2.265   5.665   0.620  0.00  0.00    +0.001 C 
ATOM     17  C   UNL     1       2.347   4.138   0.611  0.00  0.00    +0.011 C 
ENDBRANCH  11  12
BRANCH   1  20
ATOM     18  C   UNL     1      -1.973   2.082   1.150  0.00  0.00    +0.253 C 
ATOM     19  O   UNL     1      -1.569   1.545   2.160  0.00  0.00    -0.272 OA
ATOM     20  N   UNL     1      -1.243   2.027   0.019  0.00  0.00    -0.217 N 
ATOM     21  H   UNL     1      -1.609   2.514  -0.897  0.00  0.00    +0.176 HD
BRANCH  18  22
ATOM     22  C   UNL     1      -3.292   2.811   1.160  0.00  0.00    +0.241 C 
BRANCH  22  28
ATOM     23  C   UNL     1      -2.837   4.839   3.461  0.00  0.00    +0.066 C 
ATOM     24  C   UNL     1      -3.697   3.603   3.507  0.00  0.00    +0.051 A 
ATOM     25  C   UNL     1      -4.418   3.171   4.568  0.00  0.00    +0.070 A 
ATOM     26  C   UNL     1      -5.069   1.990   4.194  0.00  0.00    +0.179 A 
ATOM     27  N   UNL     1      -4.756   1.727   2.951  0.00  0.00    -0.165 NA
ATOM     28  N   UNL     1      -3.886   2.727   2.497  0.00  0.00    -0.258 N 
ATOM     29 BR   UNL     1      -4.524   4.013   6.258  0.00  0.00    -0.046 Br
BRANCH  26  30
ATOM     30  C   UNL     1      -5.981   1.169   5.068  0.00  0.00    +0.437 C 
ATOM     31  F   UNL     1      -7.298   1.618   4.922  0.00  0.00    -0.164 F 
ATOM     32  F   UNL     1      -5.903  -0.176   4.690  0.00  0.00    -0.164 F 
ATOM     33  F   UNL     1      -5.589   1.301   6.404  0.00  0.00    -0.164 F 
ENDBRANCH  26  30
ENDBRANCH  22  28
ENDBRANCH  18  22
ENDBRANCH   1  20
TORSDOF 5
