REMARK  Name = ZINC39984784
REMARK  4 active torsions:
REMARK  status: ('A' for Active; 'I' for Inactive)
REMARK    1  A    between atoms: C_1  and  C_2
REMARK    2  A    between atoms: C_7  and  N_8
REMARK    3  A    between atoms: N_8  and  C_9
REMARK    4  A    between atoms: C_14  and  C_15
REMARK                            x       y       z     vdW  Elec       q    Type
REMARK                         _______ _______ _______ _____ _____    ______ ____
ROOT
ATOM      1  C   UNL     1       0.036  -0.700   3.604  0.00  0.00    +0.175 C 
ATOM      2  N   UNL     1      -0.049  -2.009   3.779  0.00  0.00    -0.152 NA
ATOM      3  C   UNL     1      -0.176  -2.556   4.967  0.00  0.00    +0.276 C 
ATOM      4  O   UNL     1      -0.253  -3.764   5.117  0.00  0.00    -0.267 OA
ATOM      5  C   UNL     1      -0.222  -1.615   6.121  0.00  0.00    +0.079 C 
ATOM      6  C   UNL     1      -0.347  -1.875   7.468  0.00  0.00    +0.026 C 
ATOM      7  S   UNL     1      -0.060  -0.053   5.266  0.00  0.00    -0.050 S 
ENDROOT
BRANCH   6   8
ATOM      8  C   UNL     1      -0.256  -3.190   7.938  0.00  0.00    -0.018 C 
ATOM      9  C   UNL     1      -0.242  -3.611   9.265  0.00  0.00    +0.003 A 
ATOM     10  C   UNL     1      -0.311  -2.912  10.490  0.00  0.00    +0.010 A 
ATOM     11  C   UNL     1      -0.275  -3.598  11.660  0.00  0.00    +0.001 A 
ATOM     12  C   UNL     1      -0.171  -4.993  11.690  0.00  0.00    +0.002 A 
ATOM     13  C   UNL     1      -0.101  -5.730  10.558  0.00  0.00    +0.026 A 
ATOM     14  C   UNL     1      -0.133  -5.083   9.290  0.00  0.00    +0.043 A 
ATOM     15  N   UNL     1      -0.081  -5.560   8.069  0.00  0.00    -0.380 N 
ATOM     16  C   UNL     1      -0.157  -4.453   7.111  0.00  0.00    +0.149 C 
ATOM     17  H   UNL     1      -0.007  -6.499   7.837  0.00  0.00    +0.160 HD
ENDBRANCH   6   8
BRANCH   1  18
ATOM     18  N   UNL     1       0.170  -0.009   2.432  0.00  0.00    -0.192 NA
BRANCH  18  25
ATOM     19  C   UNL     1       1.458   1.101   0.150  0.00  0.00    +0.046 C 
ATOM     20  C   UNL     1       0.645  -0.166   0.070  0.00  0.00    -0.027 A 
ATOM     21  C   UNL     1       0.513  -0.828  -1.135  0.00  0.00    +0.005 A 
ATOM     22  C   UNL     1      -0.233  -1.990  -1.209  0.00  0.00    +0.000 A 
ATOM     23  C   UNL     1      -0.849  -2.493  -0.078  0.00  0.00    +0.002 A 
ATOM     24  C   UNL     1      -0.720  -1.837   1.130  0.00  0.00    +0.025 A 
ATOM     25  C   UNL     1       0.033  -0.672   1.209  0.00  0.00    +0.059 A 
ENDBRANCH  18  25
ENDBRANCH   1  18
TORSDOF 3
