REMARK  Name = ZINC67497257
REMARK  8 active torsions:
REMARK  status: ('A' for Active; 'I' for Inactive)
REMARK    1  A    between atoms: C_1  and  C_2
REMARK    2  A    between atoms: C_6  and  C_7
REMARK    3  A    between atoms: C_11  and  N_13
REMARK    4  A    between atoms: C_14  and  C_16
REMARK    5  A    between atoms: N_18  and  C_19
REMARK    6  A    between atoms: C_19  and  C_20
REMARK    7  A    between atoms: N_26  and  C_27
REMARK    8  A    between atoms: N_26  and  C_28
REMARK                            x       y       z     vdW  Elec       q    Type
REMARK                         _______ _______ _______ _____ _____    ______ ____
ROOT
ATOM      1  N   UNL     1       0.260  -1.453   6.297  0.00  0.00    -0.278 N 
ATOM      2  C   UNL     1       0.009  -0.902   7.501  0.00  0.00    +0.303 C 
ATOM      3  O   UNL     1      -0.105   0.302   7.606  0.00  0.00    -0.265 OA
ATOM      4  H   UNL     1       0.421  -2.406   6.224  0.00  0.00    +0.155 HD
ENDROOT
BRANCH   1   9
ATOM      5  C   UNL     1       0.805   1.440   4.082  0.00  0.00    -0.009 A 
ATOM      6  C   UNL     1       0.332   0.930   2.871  0.00  0.00    +0.009 A 
ATOM      7  C   UNL     1      -0.158  -0.358   2.809  0.00  0.00    +0.002 A 
ATOM      8  C   UNL     1      -0.182  -1.149   3.943  0.00  0.00    +0.023 A 
ATOM      9  C   UNL     1       0.287  -0.650   5.153  0.00  0.00    +0.034 A 
ATOM     10  C   UNL     1       0.787   0.642   5.224  0.00  0.00    +0.032 A 
BRANCH   5  16
ATOM     11  C   UNL     1       0.127   3.539   6.220  0.00  0.00    +0.045 C 
ATOM     12  C   UNL     1       1.068   3.799   5.072  0.00  0.00    -0.036 A 
ATOM     13  C   UNL     1       1.686   5.022   4.933  0.00  0.00    +0.011 A 
ATOM     14  C   UNL     1       2.528   5.223   3.888  0.00  0.00    +0.046 A 
ATOM     15  S   UNL     1       2.469   3.648   3.051  0.00  0.00    -0.096 S 
ATOM     16  C   UNL     1       1.330   2.821   4.150  0.00  0.00    +0.022 A 
ENDBRANCH   5  16
ENDBRANCH   1   9
BRANCH   2  17
ATOM     17  C   UNL     1      -0.129  -1.772   8.707  0.00  0.00    +0.300 C 
ATOM     18  O   UNL     1      -0.015  -2.976   8.602  0.00  0.00    -0.265 OA
ATOM     19  N   UNL     1      -0.380  -1.221   9.911  0.00  0.00    -0.303 N 
ATOM     20  H   UNL     1      -0.471  -0.259   9.994  0.00  0.00    +0.149 HD
BRANCH  19  21
ATOM     21  C   UNL     1      -0.515  -2.075  11.093  0.00  0.00    +0.141 C 
BRANCH  21  22
ATOM     22  C   UNL     1      -0.791  -1.219  12.302  0.00  0.00    -0.014 A 
ATOM     23  C   UNL     1       0.258  -0.722  13.064  0.00  0.00    +0.010 A 
ATOM     24  C   UNL     1      -0.039   0.059  14.166  0.00  0.00    +0.042 A 
ATOM     25  C   UNL     1      -1.371   0.320  14.472  0.00  0.00    +0.098 A 
ATOM     26  N   UNL     1      -2.343  -0.172  13.721  0.00  0.00    -0.349 N 
ATOM     27  C   UNL     1      -2.090  -0.916  12.661  0.00  0.00    +0.089 A 
ATOM     28  N   UNL     1      -1.683   1.104  15.577  0.00  0.00    -0.323 N 
ATOM     29  C   UNL     1      -0.612   1.651  16.413  0.00  0.00    +0.130 C 
ATOM     30  C   UNL     1      -3.083   1.382  15.905  0.00  0.00    +0.130 C 
ATOM     31  H   UNL     1      -3.265   0.022  13.953  0.00  0.00    +0.167 HD
ENDBRANCH  21  22
ENDBRANCH  19  21
ENDBRANCH   2  17
TORSDOF 5
