REMARK  Name = ZINC12866893
REMARK  16 active torsions:
REMARK  status: ('A' for Active; 'I' for Inactive)
REMARK    1  A    between atoms: C_1  and  C_2
REMARK    2  A    between atoms: C_2  and  C_3
REMARK    3  A    between atoms: C_3  and  C_5
REMARK    4  A    between atoms: C_3  and  C_6
REMARK    5  A    between atoms: C_6  and  C_8
REMARK    6  A    between atoms: C_6  and  N_26
REMARK    7  A    between atoms: C_13  and  C_16
REMARK    8  A    between atoms: N_18  and  CA_19
REMARK    9  A    between atoms: CA_19  and  CB_21
REMARK   10  A    between atoms: CA_19  and  C_24
REMARK   11  A    between atoms: CB_21  and  CG_22
REMARK   12  A    between atoms: C_27  and  O_29
REMARK   13  A    between atoms: O_29  and  C_30
REMARK   14  A    between atoms: C_30  and  C_31
REMARK   15  A    between atoms: C_30  and  C_32
REMARK   16  A    between atoms: C_30  and  C_33
REMARK                            x       y       z     vdW  Elec       q    Type
REMARK                         _______ _______ _______ _____ _____    ______ ____
ROOT
ATOM      1  C   UNK A   0      -5.352  -3.860  -5.386  0.00  0.00    +0.236 C 
ATOM      2  O   UNK A   0      -5.560  -5.051  -5.478  0.00  0.00    -0.274 OA
ATOM      3  N   UNK A   0      -4.633  -3.379  -4.352  0.00  0.00    -0.300 N 
ATOM      4  C   UNK A   0      -4.200  -4.267  -3.265  0.00  0.00    +0.108 C 
ATOM      5  C   UNK A   0      -4.658  -3.671  -1.930  0.00  0.00    +0.032 C 
ATOM      6  C   UNK A   0      -4.142  -2.235  -1.812  0.00  0.00    +0.078 C 
ATOM      7  C   UNK A   0      -4.726  -1.387  -2.945  0.00  0.00    +0.032 C 
ATOM      8  C   UNK A   0      -4.268  -1.957  -4.291  0.00  0.00    +0.108 C 
ENDROOT
BRANCH   6   9
ATOM      9  C   UNK A   0      -4.562  -1.658  -0.485  0.00  0.00    +0.217 C 
ATOM     10  O   UNK A   0      -5.210  -2.329   0.290  0.00  0.00    -0.275 OA
ATOM     11  N   ASP A   1      -4.218  -0.396  -0.160  0.00  0.00    -0.302 N 
ATOM     12  H   ASP A   1      -3.699   0.140  -0.780  0.00  0.00    +0.150 HD
BRANCH  11  13
ATOM     13  CA  ASP A   1      -4.626   0.165   1.130  0.00  0.00    +0.197 C 
BRANCH  13  14
ATOM     14  C   ASP A   1      -6.019   0.729   1.014  0.00  0.00    +0.376 C 
ATOM     15  O   ASP A   1      -6.610   0.668  -0.038  0.00  0.00    -0.244 OA
ATOM     16  OXT ASP A   1      -6.603   1.299   2.080  0.00  0.00    -0.244 OA
ENDBRANCH  13  14
BRANCH  13  17
ATOM     17  CB  ASP A   1      -3.657   1.279   1.532  0.00  0.00    +0.159 C 
BRANCH  17  18
ATOM     18  CG  ASP A   1      -2.288   0.693   1.767  0.00  0.00    +0.358 C 
ATOM     19  OD1 ASP A   1      -2.107  -0.493   1.628  0.00  0.00    -0.246 OA
ATOM     20  OD2 ASP A   1      -1.270   1.490   2.126  0.00  0.00    -0.246 OA
ENDBRANCH  17  18
ENDBRANCH  13  17
ENDBRANCH  11  13
ENDBRANCH   6   9
BRANCH   1  21
ATOM     21  C   UNK A   0      -5.897  -2.917  -6.428  0.00  0.00    +0.165 C 
BRANCH  21  22
ATOM     22  N   UNK A   0      -5.745  -3.516  -7.756  0.00  0.00    -0.270 N 
ATOM     23  C   UNK A   0      -5.645  -2.727  -8.844  0.00  0.00    +0.401 C 
ATOM     24  O   UNK A   0      -5.590  -1.520  -8.716  0.00  0.00    -0.226 OA
ATOM     25  H   UNK A   0      -5.715  -4.481  -7.852  0.00  0.00    +0.153 HD
BRANCH  23  26
ATOM     26  O   UNK A   0      -5.606  -3.276 -10.073  0.00  0.00    -0.445 OA
BRANCH  26  27
ATOM     27  C   UNK A   0      -5.499  -2.365 -11.199  0.00  0.00    +0.107 C 
ATOM     28  C   UNK A   0      -4.211  -1.549 -11.073  0.00  0.00    +0.055 C 
ATOM     29  C   UNK A   0      -5.469  -3.167 -12.502  0.00  0.00    +0.055 C 
ATOM     30  C   UNK A   0      -6.702  -1.421 -11.208  0.00  0.00    +0.055 C 
ENDBRANCH  26  27
ENDBRANCH  23  26
ENDBRANCH  21  22
BRANCH  21  31
ATOM     31  C   UNK A   0      -7.379  -2.655  -6.154  0.00  0.00    +0.015 C 
ATOM     32  C   UNK A   0      -8.121  -3.989  -6.044  0.00  0.00    +0.010 C 
BRANCH  31  34
ATOM     33  C   UNK A   0      -6.973  -0.465  -5.022  0.00  0.00    +0.004 C 
ATOM     34  C   UNK A   0      -7.526  -1.880  -4.843  0.00  0.00    +0.002 C 
ENDBRANCH  31  34
ENDBRANCH  21  31
ENDBRANCH   1  21
TORSDOF 11
