REMARK  Name = ZINC38899152
REMARK  11 active torsions:
REMARK  status: ('A' for Active; 'I' for Inactive)
REMARK    1  A    between atoms: C_1  and  C_2
REMARK    2  A    between atoms: C_9  and  C_14
REMARK    3  A    between atoms: C_14  and  N_15
REMARK    4  A    between atoms: N_15  and  C_16
REMARK    5  A    between atoms: C_19  and  O_22
REMARK    6  A    between atoms: O_22  and  C_23
REMARK    7  A    between atoms: C_24  and  C_26
REMARK    8  A    between atoms: C_29  and  C_32
REMARK    9  A    between atoms: C_32  and  C_33
REMARK   10  A    between atoms: C_32  and  C_34
REMARK   11  A    between atoms: C_32  and  C_35
REMARK                            x       y       z     vdW  Elec       q    Type
REMARK                         _______ _______ _______ _____ _____    ______ ____
ROOT
ATOM      1  N   UNL     1      -1.714  -6.632   3.242  0.00  0.00    -0.266 N 
ATOM      2  C   UNL     1      -1.624  -7.091   1.978  0.00  0.00    +0.251 C 
ATOM      3  O   UNL     1      -0.961  -8.081   1.738  0.00  0.00    -0.270 OA
ENDROOT
BRANCH   1   4
ATOM      4  C   UNL     1      -1.194  -7.387   4.301  0.00  0.00    +0.037 A 
ATOM      5  C   UNL     1      -1.453  -7.014   5.613  0.00  0.00    +0.027 A 
ATOM      6  C   UNL     1      -0.939  -7.759   6.656  0.00  0.00    +0.047 A 
ATOM      7  C   UNL     1      -0.165  -8.880   6.393  0.00  0.00    +0.120 A 
ATOM      8  C   UNL     1       0.095  -9.252   5.082  0.00  0.00    +0.047 A 
ATOM      9  C   UNL     1      -0.423  -8.512   4.038  0.00  0.00    +0.027 A 
BRANCH   7  10
ATOM     10  O   UNL     1       0.341  -9.613   7.421  0.00  0.00    -0.495 OA
ATOM     11  C   UNL     1       1.130 -10.754   7.077  0.00  0.00    +0.277 C 
ENDBRANCH   7  10
ENDBRANCH   1   4
BRANCH   2  12
ATOM     12  C   UNL     1      -2.331  -6.392   0.885  0.00  0.00    +0.037 A 
ATOM     13  C   UNL     1      -2.335  -4.997   0.833  0.00  0.00    +0.013 A 
ATOM     14  C   UNL     1      -2.997  -4.350  -0.190  0.00  0.00    +0.005 A 
ATOM     15  C   UNL     1      -3.657  -5.080  -1.162  0.00  0.00    -0.042 A 
ATOM     16  C   UNL     1      -3.657  -6.463  -1.116  0.00  0.00    +0.005 A 
ATOM     17  C   UNL     1      -2.994  -7.123  -0.102  0.00  0.00    +0.013 A 
BRANCH  15  18
ATOM     18  C   UNL     1      -4.379  -4.367  -2.276  0.00  0.00    -0.013 C 
ATOM     19  C   UNL     1      -3.384  -3.513  -3.064  0.00  0.00    +0.015 C 
ATOM     20  C   UNL     1      -5.019  -5.396  -3.210  0.00  0.00    +0.015 C 
ATOM     21  C   UNL     1      -5.466  -3.467  -1.685  0.00  0.00    +0.015 C 
ENDBRANCH  15  18
ENDBRANCH   2  12
BRANCH   1  22
ATOM     22  C   UNL     1      -2.357  -5.343   3.509  0.00  0.00    +0.131 C 
BRANCH  22  31
ATOM     23  C   UNL     1      -2.800   1.665   4.811  0.00  0.00    +0.044 C 
ATOM     24  C   UNL     1      -2.096   0.431   4.309  0.00  0.00    -0.050 A 
ATOM     25  C   UNL     1      -1.073   0.564   3.369  0.00  0.00    +0.005 A 
ATOM     26  C   UNL     1      -0.393  -0.502   2.871  0.00  0.00    +0.024 A 
ATOM     27  C   UNL     1      -0.702  -1.808   3.294  0.00  0.00    +0.040 A 
ATOM     28  N   UNL     1      -0.028  -2.846   2.800  0.00  0.00    -0.284 N 
ATOM     29  C   UNL     1      -0.267  -4.097   3.153  0.00  0.00    +0.226 C 
ATOM     30  O   UNL     1       0.382  -5.004   2.667  0.00  0.00    -0.275 OA
ATOM     31  C   UNL     1      -1.350  -4.397   4.165  0.00  0.00    +0.116 C 
ATOM     32  C   UNL     1      -2.119  -3.220   4.732  0.00  0.00    -0.003 C 
ATOM     33  C   UNL     1      -1.778  -1.977   4.287  0.00  0.00    -0.007 A 
ATOM     34  C   UNL     1      -2.466  -0.786   4.785  0.00  0.00    +0.012 A 
ATOM     35  H   UNL     1       0.671  -2.675   2.149  0.00  0.00    +0.155 HD
ENDBRANCH  22  31
ENDBRANCH   1  22
TORSDOF 6
