REMARK  Name = ZINC08685258
REMARK  7 active torsions:
REMARK  status: ('A' for Active; 'I' for Inactive)
REMARK    1  A    between atoms: C_3  and  C_6
REMARK    2  A    between atoms: C_6  and  C_8
REMARK    3  A    between atoms: C_6  and  N_20
REMARK    4  A    between atoms: C_8  and  N_9
REMARK    5  A    between atoms: N_9  and  S_10
REMARK    6  A    between atoms: S_10  and  C_13
REMARK    7  A    between atoms: N_23  and  C_26
REMARK                            x       y       z     vdW  Elec       q    Type
REMARK                         _______ _______ _______ _____ _____    ______ ____
ROOT
ATOM      1  C   UNL     1       3.567   0.862  -0.087  0.00  0.00    +0.015 C 
ENDROOT
BRANCH   1   2
ATOM      2  N   UNL     1       3.709  -0.174   0.945  0.00  0.00    +0.389 N 
ATOM      3  C   UNL     1       3.045  -1.404   0.496  0.00  0.00    -0.059 C 
ATOM      4  C   UNL     1       3.291  -2.519   1.518  0.00  0.00    +0.086 C 
ATOM      5  N   UNL     1       2.857  -2.042   2.841  0.00  0.00    -0.333 N 
ATOM      6  C   UNL     1       3.349  -0.734   3.302  0.00  0.00    +0.086 C 
ATOM      7  C   UNL     1       3.100   0.296   2.195  0.00  0.00    -0.059 C 
ATOM      8  H   UNL     1       4.689  -0.361   1.099  0.00  0.00    -0.081 HD
BRANCH   5   9
ATOM      9  C   UNL     1       2.002  -2.810   3.637  0.00  0.00    +0.030 A 
ATOM     10  C   UNL     1       1.659  -4.098   3.247  0.00  0.00    +0.026 A 
ATOM     11  C   UNL     1       0.815  -4.855   4.035  0.00  0.00    +0.040 A 
ATOM     12  C   UNL     1       0.311  -4.332   5.214  0.00  0.00    +0.124 A 
ATOM     13  C   UNL     1       0.652  -3.048   5.605  0.00  0.00    +0.040 A 
ATOM     14  C   UNL     1       1.500  -2.289   4.822  0.00  0.00    +0.026 A 
ATOM     15  F   UNL     1      -0.515  -5.074   5.984  0.00  0.00    -0.205 F 
ENDBRANCH   5   9
ENDBRANCH   1   2
BRANCH   1  18
ATOM     16  C   UNL     1       0.195   2.296  -0.480  0.00  0.00    +0.041 A 
ATOM     17  C   UNL     1       1.591   2.442  -0.311  0.00  0.00    +0.043 A 
ATOM     18  C   UNL     1       2.109   1.201  -0.259  0.00  0.00    +0.093 A 
ATOM     19  O   UNL     1       1.106   0.317  -0.388  0.00  0.00    -0.469 OA
ATOM     20  C   UNL     1      -0.057   0.975  -0.522  0.00  0.00    +0.195 A 
ENDBRANCH   1  18
BRANCH   1  21
ATOM     21  C   UNL     1       4.129   0.343  -1.412  0.00  0.00    +0.098 C 
BRANCH  21  22
ATOM     22  N   UNL     1       5.517  -0.084  -1.219  0.00  0.00    -0.191 NA
ATOM     23  H   UNL     1       6.010   0.206  -0.435  0.00  0.00    +0.148 HD
BRANCH  22  24
ATOM     24  S   UNL     1       6.246  -1.062  -2.339  0.00  0.00    +0.058 S 
ATOM     25  O   UNL     1       7.577  -1.274  -1.889  0.00  0.00    -0.153 OA
ATOM     26  O   UNL     1       5.346  -2.134  -2.589  0.00  0.00    -0.153 OA
BRANCH  24  27
ATOM     27  C   UNL     1       6.362  -0.142  -3.837  0.00  0.00    +0.105 A 
ATOM     28  C   UNL     1       5.333  -0.190  -4.759  0.00  0.00    +0.031 A 
ATOM     29  C   UNL     1       5.423   0.532  -5.934  0.00  0.00    +0.040 A 
ATOM     30  C   UNL     1       6.544   1.303  -6.188  0.00  0.00    +0.124 A 
ATOM     31  C   UNL     1       7.574   1.350  -5.265  0.00  0.00    +0.040 A 
ATOM     32  C   UNL     1       7.480   0.632  -4.088  0.00  0.00    +0.031 A 
ATOM     33  F   UNL     1       6.633   2.008  -7.337  0.00  0.00    -0.205 F 
ENDBRANCH  24  27
ENDBRANCH  22  24
ENDBRANCH  21  22
ENDBRANCH   1  21
TORSDOF 7
