REMARK  Name = ZINC55494665
REMARK  7 active torsions:
REMARK  status: ('A' for Active; 'I' for Inactive)
REMARK    1  A    between atoms: C_1  and  C_2
REMARK    2  A    between atoms: C_2  and  C_3
REMARK    3  A    between atoms: C_10  and  C_14
REMARK    4  A    between atoms: C_16  and  O_22
REMARK    5  A    between atoms: C_17  and  O_21
REMARK    6  A    between atoms: O_22  and  C_23
REMARK    7  A    between atoms: C_23  and  C_24
REMARK                            x       y       z     vdW  Elec       q    Type
REMARK                         _______ _______ _______ _____ _____    ______ ____
ROOT
ATOM      1  C   UNL     1      -1.412  -0.526   0.013  0.00  0.00    -0.008 A 
ATOM      2  C   UNL     1      -2.200  -0.813  -1.035  0.00  0.00    +0.026 A 
ATOM      3  C   UNL     1      -3.543  -1.310  -0.797  0.00  0.00    +0.072 A 
ATOM      4  C   UNL     1      -4.553  -1.680  -1.742  0.00  0.00    +0.260 A 
ATOM      5  O   UNL     1      -4.339  -1.597  -2.939  0.00  0.00    -0.267 OA
ATOM      6  N   UNL     1      -5.742  -2.121  -1.291  0.00  0.00    -0.306 N 
ATOM      7  H   UNL     1      -6.430  -2.373  -1.927  0.00  0.00    +0.170 HD
ATOM      8  C   UNL     1      -5.998  -2.221   0.049  0.00  0.00    +0.142 A 
ATOM      9  N   UNL     1      -5.087  -1.886   0.938  0.00  0.00    -0.222 NA
ATOM     10  C   UNL     1      -3.895  -1.444   0.560  0.00  0.00    +0.116 A 
ATOM     11  S   UNL     1      -2.435  -0.916   1.420  0.00  0.00    -0.073 S 
ENDROOT
BRANCH   8  12
ATOM     12  C   UNL     1      -7.315  -2.709   0.504  0.00  0.00    +0.022 A 
ATOM     13  C   UNL     1      -7.590  -2.810   1.871  0.00  0.00    +0.061 A 
ATOM     14  C   UNL     1      -8.823  -3.268   2.292  0.00  0.00    +0.164 A 
ATOM     15  C   UNL     1      -9.790  -3.628   1.355  0.00  0.00    +0.177 A 
ATOM     16  C   UNL     1      -9.518  -3.529  -0.002  0.00  0.00    +0.087 A 
ATOM     17  C   UNL     1      -8.290  -3.067  -0.430  0.00  0.00    +0.035 A 
ATOM     18 CL   UNL     1     -10.726  -3.979  -1.164  0.00  0.00    -0.080 Cl
BRANCH  15  19
ATOM     19  O   UNL     1     -11.003  -4.079   1.772  0.00  0.00    -0.502 OA
ATOM     20  H   UNL     1     -11.662  -3.381   1.892  0.00  0.00    +0.292 HD
ENDBRANCH  15  19
BRANCH  14  21
ATOM     21  O   UNL     1      -9.094  -3.368   3.621  0.00  0.00    -0.489 OA
BRANCH  21  22
ATOM     22  C   UNL     1      -8.056  -2.982   4.525  0.00  0.00    +0.226 C 
ATOM     23  C   UNL     1      -8.542  -3.161   5.965  0.00  0.00    +0.048 C 
ENDBRANCH  21  22
ENDBRANCH  14  21
ENDBRANCH   8  12
BRANCH   1  25
ATOM     24  C   UNL     1      -0.019   1.526   0.010  0.00  0.00    +0.009 C 
ATOM     25  C   UNL     1       0.002  -0.004   0.002  0.00  0.00    +0.039 C 
ENDBRANCH   1  25
TORSDOF 5
