REMARK  Name = ZINC22003755
REMARK  7 active torsions:
REMARK  status: ('A' for Active; 'I' for Inactive)
REMARK    1  A    between atoms: C_4  and  C_7
REMARK    2  A    between atoms: C_7  and  N_8
REMARK    3  A    between atoms: C_9  and  C_30
REMARK    4  A    between atoms: N_11  and  C_14
REMARK    5  A    between atoms: C_14  and  N_15
REMARK    6  A    between atoms: C_18  and  N_21
REMARK    7  A    between atoms: C_22  and  C_24
REMARK                            x       y       z     vdW  Elec       q    Type
REMARK                         _______ _______ _______ _____ _____    ______ ____
ROOT
ATOM      1  N   UNL     1       6.961  10.698   4.078  0.00  0.00    -0.299 N 
ATOM      2  C   UNL     1       7.573   9.483   4.314  0.00  0.00    +0.165 A 
ATOM      3  N   UNL     1       7.191   8.641   3.395  0.00  0.00    -0.152 NA
ATOM      4  N   UNL     1       6.309   9.309   2.534  0.00  0.00    -0.257 N 
ATOM      5  C   UNL     1       6.191  10.577   2.978  0.00  0.00    +0.177 A 
ATOM      6  S   UNL     1       5.234  11.810   2.274  0.00  0.00    -0.011 S 
ENDROOT
BRANCH   2   7
ATOM      7  C   UNL     1       8.506   9.186   5.424  0.00  0.00    +0.037 A 
ATOM      8  C   UNL     1       8.323   9.770   6.682  0.00  0.00    +0.014 A 
ATOM      9  C   UNL     1       9.223   9.460   7.686  0.00  0.00    +0.020 A 
ATOM     10  C   UNL     1      10.265   8.591   7.417  0.00  0.00    +0.111 A 
ATOM     11  N   UNL     1      10.412   8.055   6.221  0.00  0.00    -0.263 NA
ATOM     12  C   UNL     1       9.578   8.315   5.235  0.00  0.00    +0.122 A 
ENDBRANCH   2   7
BRANCH   1  13
ATOM     13  C   UNL     1       7.124  11.912   4.883  0.00  0.00    +0.161 C 
BRANCH  13  17
ATOM     14  C   UNL     1      10.611  14.017   3.595  0.00  0.00    +0.000 A 
ATOM     15  C   UNL     1       9.386  14.288   3.014  0.00  0.00    +0.000 A 
ATOM     16  C   UNL     1       8.258  13.606   3.431  0.00  0.00    +0.005 A 
ATOM     17  C   UNL     1       8.354  12.654   4.428  0.00  0.00    -0.028 A 
ATOM     18  C   UNL     1       9.578  12.387   5.013  0.00  0.00    +0.005 A 
ATOM     19  C   UNL     1      10.707  13.065   4.592  0.00  0.00    +0.000 A 
ENDBRANCH  13  17
ENDBRANCH   1  13
BRANCH   4  20
ATOM     20  C   UNL     1       5.643   8.736   1.362  0.00  0.00    +0.072 C 
BRANCH  20  21
ATOM     21  N   UNL     1       4.353   8.161   1.765  0.00  0.00    +0.393 N 
ATOM     22  C   UNL     1       3.552   7.791   0.591  0.00  0.00    -0.074 C 
ATOM     23  C   UNL     1       2.163   7.333   1.042  0.00  0.00    +0.004 C 
ATOM     24  C   UNL     1       2.308   6.134   1.984  0.00  0.00    +0.070 C 
ATOM     25  C   UNL     1       3.185   6.532   3.173  0.00  0.00    +0.004 C 
ATOM     26  C   UNL     1       4.545   7.013   2.660  0.00  0.00    -0.074 C 
ATOM     27  H   UNL     1       3.796   8.931   2.321  0.00  0.00    -0.079 HD
BRANCH  24  28
ATOM     28  N   UNL     1       0.985   5.728   2.465  0.00  0.00    -0.309 N 
ATOM     29  C   UNL     1       0.775   4.460   2.870  0.00  0.00    +0.244 C 
ATOM     30  O   UNL     1       1.684   3.653   2.835  0.00  0.00    -0.270 OA
ATOM     31  H   UNL     1       0.163   6.458   2.497  0.00  0.00    +0.149 HD
BRANCH  29  32
ATOM     32  C   UNL     1      -0.559   4.050   3.356  0.00  0.00    +0.037 A 
ATOM     33  C   UNL     1      -0.779   2.737   3.776  0.00  0.00    +0.013 A 
ATOM     34  C   UNL     1      -2.027   2.361   4.228  0.00  0.00    +0.001 A 
ATOM     35  C   UNL     1      -3.061   3.280   4.262  0.00  0.00    +0.000 A 
ATOM     36  C   UNL     1      -2.847   4.585   3.853  0.00  0.00    +0.001 A 
ATOM     37  C   UNL     1      -1.604   4.974   3.398  0.00  0.00    +0.013 A 
ENDBRANCH  29  32
ENDBRANCH  24  28
ENDBRANCH  20  21
ENDBRANCH   4  20
TORSDOF 7
