REMARK  Name = ZINC16952327
REMARK  15 active torsions:
REMARK  status: ('A' for Active; 'I' for Inactive)
REMARK    1  A    between atoms: C_3  and  O_39
REMARK    2  A    between atoms: C_4  and  O_38
REMARK    3  A    between atoms: C_6  and  C_7
REMARK    4  A    between atoms: C_7  and  C_8
REMARK    5  A    between atoms: C_8  and  C_9
REMARK    6  A    between atoms: C_9  and  C_11
REMARK    7  A    between atoms: C_9  and  O_37
REMARK    8  A    between atoms: C_11  and  C_12
REMARK    9  A    between atoms: C_12  and  O_14
REMARK   10  A    between atoms: O_14  and  C_15
REMARK   11  A    between atoms: C_19  and  O_36
REMARK   12  A    between atoms: C_21  and  O_35
REMARK   13  A    between atoms: C_25  and  C_27
REMARK   14  A    between atoms: C_30  and  O_34
REMARK   15  A    between atoms: C_31  and  O_33
REMARK                            x       y       z     vdW  Elec       q    Type
REMARK                         _______ _______ _______ _____ _____    ______ ____
ROOT
ATOM      1  C   UNL     1      -1.345  -3.355   2.816  0.00  0.00    +0.226 C 
ATOM      2  C   UNL     1      -1.308  -4.025   4.191  0.00  0.00    +0.091 C 
ATOM      3  C   UNL     1      -0.143  -4.981   4.260  0.00  0.00    +0.039 A 
ATOM      4  C   UNL     1      -0.134  -5.952   5.255  0.00  0.00    +0.127 A 
ATOM      5  C   UNL     1       0.924  -6.840   5.354  0.00  0.00    +0.091 A 
ATOM      6  C   UNL     1       1.978  -6.762   4.456  0.00  0.00    +0.124 A 
ATOM      7  C   UNL     1       1.968  -5.796   3.463  0.00  0.00    +0.091 A 
ATOM      8  C   UNL     1       0.906  -4.904   3.362  0.00  0.00    +0.132 A 
ATOM      9  O   UNL     1       0.934  -3.975   2.372  0.00  0.00    -0.480 OA
ATOM     10  C   UNL     1       0.065  -2.848   2.489  0.00  0.00    +0.244 C 
ENDROOT
BRANCH  10  11
ATOM     11  C   UNL     1       0.042  -2.087   1.188  0.00  0.00    -0.000 A 
ATOM     12  C   UNL     1       0.040  -2.773  -0.012  0.00  0.00    +0.011 A 
ATOM     13  C   UNL     1       0.019  -2.080  -1.208  0.00  0.00    +0.049 A 
ATOM     14  C   UNL     1      -0.006  -0.695  -1.206  0.00  0.00    +0.158 A 
ATOM     15  C   UNL     1       0.002  -0.004   0.002  0.00  0.00    +0.159 A 
ATOM     16  C   UNL     1       0.023  -0.705   1.197  0.00  0.00    +0.056 A 
BRANCH  15  17
ATOM     17  O   UNL     1      -0.016   1.356   0.009  0.00  0.00    -0.503 OA
ATOM     18  H   UNL     1       0.862   1.761   0.003  0.00  0.00    +0.292 HD
ENDBRANCH  15  17
BRANCH  14  19
ATOM     19  O   UNL     1      -0.032  -0.012  -2.381  0.00  0.00    -0.503 OA
ATOM     20  H   UNL     1       0.844   0.198  -2.734  0.00  0.00    +0.292 HD
ENDBRANCH  14  19
ENDBRANCH  10  11
BRANCH   6  21
ATOM     21  O   UNL     1       3.018  -7.631   4.550  0.00  0.00    -0.507 OA
ATOM     22  H   UNL     1       3.738  -7.323   5.117  0.00  0.00    +0.292 HD
ENDBRANCH   6  21
BRANCH   4  23
ATOM     23  O   UNL     1      -1.167  -6.028   6.136  0.00  0.00    -0.506 OA
ATOM     24  H   UNL     1      -1.046  -5.492   6.931  0.00  0.00    +0.292 HD
ENDBRANCH   4  23
BRANCH   1  25
ATOM     25  O   UNL     1      -2.274  -2.240   2.839  0.00  0.00    -0.457 OA
BRANCH  25  26
ATOM     26  C   UNL     1      -3.546  -2.498   2.494  0.00  0.00    +0.310 C 
ATOM     27  O   UNL     1      -3.871  -3.619   2.183  0.00  0.00    -0.251 OA
BRANCH  26  28
ATOM     28  C   UNL     1      -4.566  -1.389   2.495  0.00  0.00    +0.151 C 
BRANCH  28  29
ATOM     29  C   UNL     1      -5.925  -1.947   2.067  0.00  0.00    +0.125 C 
BRANCH  29  30
ATOM     30  O   UNL     1      -6.384  -2.885   3.042  0.00  0.00    -0.391 OA
ATOM     31  H   UNL     1      -6.496  -2.509   3.927  0.00  0.00    +0.210 HD
ENDBRANCH  29  30
BRANCH  29  32
ATOM     32  C   UNL     1      -6.932  -0.801   1.947  0.00  0.00    +0.036 C 
BRANCH  32  33
ATOM     33  C   UNL     1      -8.255  -1.340   1.399  0.00  0.00    +0.038 C 
BRANCH  33  39
ATOM     34  C   UNL     1     -10.080   0.088   2.343  0.00  0.00    +0.007 A 
ATOM     35  C   UNL     1     -10.988   1.126   2.241  0.00  0.00    +0.049 A 
ATOM     36  C   UNL     1     -11.072   1.861   1.070  0.00  0.00    +0.158 A 
ATOM     37  C   UNL     1     -10.237   1.556  -0.001  0.00  0.00    +0.158 A 
ATOM     38  C   UNL     1      -9.325   0.518   0.110  0.00  0.00    +0.052 A 
ATOM     39  C   UNL     1      -9.247  -0.212   1.281  0.00  0.00    -0.044 A 
BRANCH  37  40
ATOM     40  O   UNL     1     -10.315   2.274  -1.153  0.00  0.00    -0.503 OA
ATOM     41  H   UNL     1     -10.943   1.918  -1.796  0.00  0.00    +0.292 HD
ENDBRANCH  37  40
BRANCH  36  42
ATOM     42  O   UNL     1     -11.969   2.878   0.966  0.00  0.00    -0.503 OA
ATOM     43  H   UNL     1     -12.832   2.608   0.626  0.00  0.00    +0.292 HD
ENDBRANCH  36  42
ENDBRANCH  33  39
ENDBRANCH  32  33
ENDBRANCH  29  32
ENDBRANCH  28  29
ENDBRANCH  26  28
ENDBRANCH  25  26
ENDBRANCH   1  25
TORSDOF 15
