REMARK  Name = ZINC21230229
REMARK  11 active torsions:
REMARK  status: ('A' for Active; 'I' for Inactive)
REMARK    1  A    between atoms: C_1  and  C_2
REMARK    2  A    between atoms: C_2  and  O_3
REMARK    3  A    between atoms: O_3  and  C_4
REMARK    4  A    between atoms: C_6  and  C_13
REMARK    5  A    between atoms: C_9  and  O_10
REMARK    6  A    between atoms: O_10  and  C_11
REMARK    7  A    between atoms: C_24  and  C_27
REMARK    8  A    between atoms: C_30  and  C_33
REMARK    9  A    between atoms: C_33  and  C_34
REMARK   10  A    between atoms: C_33  and  C_35
REMARK   11  A    between atoms: C_33  and  C_36
REMARK                            x       y       z     vdW  Elec       q    Type
REMARK                         _______ _______ _______ _____ _____    ______ ____
ROOT
ATOM      1  C   UNL     1       2.776  -0.825   3.681  0.00  0.00    +0.063 C 
ATOM      2  C   UNL     1       3.886  -0.073   4.417  0.00  0.00    +0.109 C 
ATOM      3  C   UNL     1       3.558  -0.023   5.887  0.00  0.00    +0.218 C 
ATOM      4  O   UNL     1       3.880   0.943   6.546  0.00  0.00    -0.275 OA
ATOM      5  N   UNL     1       2.909  -1.046   6.470  0.00  0.00    -0.289 N 
ATOM      6  C   UNL     1       2.554  -2.162   5.755  0.00  0.00    +0.018 C 
ATOM      7  C   UNL     1       2.478  -2.115   4.408  0.00  0.00    +0.020 C 
ATOM      8  C   UNL     1       2.125  -3.248   3.656  0.00  0.00    +0.162 C 
ATOM      9  O   UNL     1       2.056  -3.165   2.446  0.00  0.00    -0.292 OA
ATOM     10  C   UNL     1       1.830  -4.563   4.327  0.00  0.00    +0.088 C 
ATOM     11  C   UNL     1       2.620  -4.641   5.637  0.00  0.00    +0.032 C 
ATOM     12  C   UNL     1       2.249  -3.435   6.503  0.00  0.00    +0.059 C 
ATOM     13  H   UNL     1       2.652  -0.998   7.538  0.00  0.00    +0.155 HD
ENDROOT
BRANCH   1  16
ATOM     14  C   UNL     1      -0.148   1.182   2.380  0.00  0.00    +0.163 A 
ATOM     15  C   UNL     1       0.993   0.398   2.422  0.00  0.00    +0.053 A 
ATOM     16  C   UNL     1       1.534   0.027   3.639  0.00  0.00    -0.035 A 
ATOM     17  C   UNL     1       0.939   0.438   4.817  0.00  0.00    +0.023 A 
ATOM     18  C   UNL     1      -0.201   1.221   4.783  0.00  0.00    +0.063 A 
ATOM     19  C   UNL     1      -0.745   1.600   3.566  0.00  0.00    +0.175 A 
ATOM     20 BR   UNL     1      -1.012   1.780   6.397  0.00  0.00    -0.046 Br
BRANCH  19  21
ATOM     21  O   UNL     1      -1.862   2.374   3.530  0.00  0.00    -0.490 OA
ATOM     22  C   UNL     1      -3.121   1.697   3.517  0.00  0.00    +0.277 C 
ENDBRANCH  19  21
BRANCH  14  23
ATOM     23  O   UNL     1      -0.682   1.547   1.184  0.00  0.00    -0.489 OA
BRANCH  23  25
ATOM     24  C   UNL     1      -0.753   1.593  -1.232  0.00  0.00    +0.048 C 
ATOM     25  C   UNL     1      -0.013   1.086   0.008  0.00  0.00    +0.226 C 
ENDBRANCH  23  25
ENDBRANCH  14  23
ENDBRANCH   1  16
BRANCH  11  26
ATOM     26  C   UNL     1       2.272  -5.914   6.367  0.00  0.00    -0.043 A 
ATOM     27  C   UNL     1       0.965  -6.159   6.744  0.00  0.00    +0.004 A 
ATOM     28  C   UNL     1       0.645  -7.328   7.408  0.00  0.00    +0.004 A 
ATOM     29  C   UNL     1       1.634  -8.247   7.705  0.00  0.00    -0.042 A 
ATOM     30  C   UNL     1       2.942  -7.999   7.333  0.00  0.00    +0.004 A 
ATOM     31  C   UNL     1       3.261  -6.832   6.663  0.00  0.00    +0.004 A 
BRANCH  29  32
ATOM     32  C   UNL     1       1.286  -9.520   8.433  0.00  0.00    -0.013 C 
ATOM     33  C   UNL     1       2.063  -9.582   9.750  0.00  0.00    +0.015 C 
ATOM     34  C   UNL     1      -0.215  -9.546   8.725  0.00  0.00    +0.015 C 
ATOM     35  C   UNL     1       1.658 -10.723   7.564  0.00  0.00    +0.015 C 
ENDBRANCH  29  32
ENDBRANCH  11  26
TORSDOF 6
