REMARK  Name = ZINC03344230
REMARK  10 active torsions:
REMARK  status: ('A' for Active; 'I' for Inactive)
REMARK    1  A    between atoms: C_1  and  C_2
REMARK    2  A    between atoms: C_2  and  C_4
REMARK    3  A    between atoms: C_2  and  S_17
REMARK    4  A    between atoms: C_4  and  C_6
REMARK    5  A    between atoms: C_7  and  N_16
REMARK    6  A    between atoms: N_8  and  C_15
REMARK    7  A    between atoms: N_11  and  C_14
REMARK    8  A    between atoms: S_17  and  C_18
REMARK    9  A    between atoms: C_21  and  C_29
REMARK   10  A    between atoms: N_22  and  C_23
REMARK                            x       y       z     vdW  Elec       q    Type
REMARK                         _______ _______ _______ _____ _____    ______ ____
ROOT
ATOM      1  C   UNL     1      -0.043   1.062   0.030  0.00  0.00    +0.028 C 
ATOM      2  C   UNL     1      -0.743   1.579   1.288  0.00  0.00    +0.122 C 
ENDROOT
BRANCH   2   3
ATOM      3  C   UNL     1      -0.750   3.086   1.276  0.00  0.00    +0.185 C 
ATOM      4  O   UNL     1       0.119   3.702   1.859  0.00  0.00    -0.291 OA
BRANCH   3   5
ATOM      5  C   UNL     1      -1.767   3.782   0.588  0.00  0.00    +0.121 A 
ATOM      6  C   UNL     1      -1.868   5.182   0.666  0.00  0.00    +0.116 A 
ATOM      7  N   UNL     1      -2.870   5.810  -0.018  0.00  0.00    -0.284 N 
ATOM      8  C   UNL     1      -3.751   5.118  -0.757  0.00  0.00    +0.333 A 
ATOM      9  O   UNL     1      -4.624   5.725  -1.347  0.00  0.00    -0.246 OA
ATOM     10  N   UNL     1      -3.704   3.781  -0.868  0.00  0.00    -0.263 N 
ATOM     11  C   UNL     1      -2.749   3.067  -0.237  0.00  0.00    +0.269 A 
ATOM     12  O   UNL     1      -2.706   1.855  -0.345  0.00  0.00    -0.267 OA
ATOM     13  C   UNL     1      -4.699   3.089  -1.692  0.00  0.00    +0.157 C 
ATOM     14  C   UNL     1      -2.983   7.269   0.056  0.00  0.00    +0.155 C 
BRANCH   6  15
ATOM     15  N   UNL     1      -0.984   5.899   1.410  0.00  0.00    -0.344 N 
ATOM     16  H   UNL     1      -0.812   6.829   1.196  0.00  0.00    +0.144 HD
ATOM     17  H   UNL     1      -0.525   5.479   2.155  0.00  0.00    +0.144 HD
ENDBRANCH   6  15
ENDBRANCH   3   5
ENDBRANCH   2   3
BRANCH   2  18
ATOM     18  S   UNL     1       0.139   0.991   2.755  0.00  0.00    -0.075 S 
BRANCH  18  19
ATOM     19  C   UNL     1      -0.131  -0.743   2.600  0.00  0.00    +0.197 A 
ATOM     20  N   UNL     1      -0.802  -1.345   1.644  0.00  0.00    -0.122 NA
ATOM     21  N   UNL     1      -0.804  -2.615   1.835  0.00  0.00    -0.127 NA
ATOM     22  C   UNL     1      -0.133  -2.908   2.927  0.00  0.00    +0.176 A 
ATOM     23  N   UNL     1       0.325  -1.716   3.450  0.00  0.00    -0.270 N 
BRANCH  23  24
ATOM     24  C   UNL     1       1.093  -1.537   4.609  0.00  0.00    +0.051 A 
ATOM     25  C   UNL     1       2.384  -2.043   4.673  0.00  0.00    +0.026 A 
ATOM     26  C   UNL     1       3.140  -1.861   5.814  0.00  0.00    +0.002 A 
ATOM     27  C   UNL     1       2.608  -1.184   6.896  0.00  0.00    +0.000 A 
ATOM     28  C   UNL     1       1.320  -0.684   6.838  0.00  0.00    +0.002 A 
ATOM     29  C   UNL     1       0.561  -0.858   5.697  0.00  0.00    +0.026 A 
ENDBRANCH  23  24
BRANCH  22  30
ATOM     30  C   UNL     1       0.092  -4.251   3.484  0.00  0.00    +0.057 A 
ATOM     31  C   UNL     1      -0.082  -5.474   2.887  0.00  0.00    +0.019 A 
ATOM     32  C   UNL     1       0.198  -6.610   3.614  0.00  0.00    +0.008 A 
ATOM     33  C   UNL     1       0.635  -6.486   4.894  0.00  0.00    +0.046 A 
ATOM     34  S   UNL     1       0.671  -4.714   5.108  0.00  0.00    -0.094 S 
ENDBRANCH  22  30
ENDBRANCH  18  19
ENDBRANCH   2  18
TORSDOF 7
