REMARK  Name = ZINC22282411
REMARK  5 active torsions:
REMARK  status: ('A' for Active; 'I' for Inactive)
REMARK    1  A    between atoms: C_1  and  C_2
REMARK    2  A    between atoms: C_2  and  C_29
REMARK    3  A    between atoms: N_5  and  C_9
REMARK    4  A    between atoms: C_9  and  C_10
REMARK    5  A    between atoms: C_23  and  C_25
REMARK                            x       y       z     vdW  Elec       q    Type
REMARK                         _______ _______ _______ _____ _____    ______ ____
ROOT
ATOM      1  C   UNL     1       4.405   2.174   0.986  0.00  0.00    +0.238 C 
ATOM      2  O   UNL     1       5.441   2.803   0.929  0.00  0.00    -0.273 OA
ATOM      3  N   UNL     1       3.589   2.121  -0.086  0.00  0.00    -0.256 N 
ATOM      4  C   UNL     1       2.390   1.397  -0.034  0.00  0.00    +0.058 A 
ATOM      5  C   UNL     1       2.400   0.012  -0.037  0.00  0.00    +0.025 A 
ATOM      6  C   UNL     1       1.206  -0.685  -0.016  0.00  0.00    +0.002 A 
ATOM      7  C   UNL     1       0.002  -0.004   0.002  0.00  0.00    +0.002 A 
ATOM      8  C   UNL     1      -0.017   1.379   0.010  0.00  0.00    +0.025 A 
ATOM      9  C   UNL     1       1.175   2.084   0.002  0.00  0.00    +0.055 A 
ATOM     10  N   UNL     1       1.182   3.482   0.062  0.00  0.00    -0.284 N 
ATOM     11  C   UNL     1       1.938   4.200  -0.796  0.00  0.00    +0.219 C 
ATOM     12  O   UNL     1       2.002   5.406  -0.680  0.00  0.00    -0.275 OA
ATOM     13  C   UNL     1       2.702   3.513  -1.897  0.00  0.00    +0.128 C 
ATOM     14  C   UNL     1       3.939   2.819  -1.324  0.00  0.00    +0.194 C 
ATOM     15  H   UNL     1       0.568   4.003   0.812  0.00  0.00    +0.155 HD
ENDROOT
BRANCH  14  16
ATOM     16  C   UNL     1       4.473   1.810  -2.343  0.00  0.00    +0.409 C 
ATOM     17  F   UNL     1       3.490   0.852  -2.609  0.00  0.00    -0.169 F 
ATOM     18  F   UNL     1       4.808   2.476  -3.527  0.00  0.00    -0.169 F 
ATOM     19  F   UNL     1       5.610   1.181  -1.824  0.00  0.00    -0.169 F 
ENDBRANCH  14  16
BRANCH   1  20
ATOM     20  C   UNL     1       4.032   1.451   2.254  0.00  0.00    +0.214 C 
BRANCH  20  25
ATOM     21  C   UNL     1       5.972   2.284   6.450  0.00  0.00    +0.047 C 
ATOM     22  C   UNL     1       6.332   2.494   4.977  0.00  0.00    +0.138 C 
ATOM     23  C   UNL     1       5.079   2.680   4.144  0.00  0.00    +0.251 C 
ATOM     24  O   UNL     1       4.253   3.561   4.250  0.00  0.00    -0.272 OA
ATOM     25  N   UNL     1       5.074   1.661   3.261  0.00  0.00    -0.215 N 
ATOM     26  C   UNL     1       6.135   0.863   3.423  0.00  0.00    +0.310 C 
ATOM     27  O   UNL     1       6.347  -0.125   2.747  0.00  0.00    -0.252 OA
ATOM     28  N   UNL     1       6.944   1.278   4.415  0.00  0.00    -0.281 N 
ATOM     29  H   UNL     1       7.889   0.895   4.829  0.00  0.00    +0.152 HD
BRANCH  22  30
ATOM     30  C   UNL     1       7.254   3.674   4.818  0.00  0.00    +0.022 A 
ATOM     31  C   UNL     1       8.533   3.491   4.326  0.00  0.00    +0.047 A 
ATOM     32  C   UNL     1       9.380   4.576   4.177  0.00  0.00    +0.124 A 
ATOM     33  C   UNL     1       8.948   5.844   4.529  0.00  0.00    +0.041 A 
ATOM     34  C   UNL     1       7.672   6.027   5.025  0.00  0.00    +0.041 A 
ATOM     35  C   UNL     1       6.824   4.942   5.171  0.00  0.00    +0.129 A 
ATOM     36  F   UNL     1       5.576   5.121   5.657  0.00  0.00    -0.205 F 
ATOM     37  F   UNL     1      10.628   4.397   3.693  0.00  0.00    -0.205 F 
ENDBRANCH  22  30
ENDBRANCH  20  25
ENDBRANCH   1  20
TORSDOF 4
