REMARK  Name = ZINC36345029
REMARK  6 active torsions:
REMARK  status: ('A' for Active; 'I' for Inactive)
REMARK    1  A    between atoms: C_4  and  C_7
REMARK    2  A    between atoms: C_7  and  C_8
REMARK    3  A    between atoms: N_11  and  C_14
REMARK    4  A    between atoms: C_14  and  C_15
REMARK    5  A    between atoms: C_18  and  C_29
REMARK    6  A    between atoms: C_21  and  C_23
REMARK                            x       y       z     vdW  Elec       q    Type
REMARK                         _______ _______ _______ _____ _____    ______ ____
ROOT
ATOM      1  C   UNL     1       8.114  -1.595   4.666  0.00  0.00    +0.219 C 
ATOM      2  O   UNL     1       8.554  -1.915   3.582  0.00  0.00    -0.276 OA
ATOM      3  N   UNL     1       8.808  -1.876   5.786  0.00  0.00    -0.187 N 
ATOM      4  C   UNL     1      10.110  -2.560   5.837  0.00  0.00    +0.137 C 
ATOM      5  C   UNL     1      10.432  -2.614   7.343  0.00  0.00    +0.087 C 
ATOM      6  C   UNL     1       9.246  -1.938   7.993  0.00  0.00    +0.069 C 
ATOM      7  N   UNL     1       8.414  -1.562   7.085  0.00  0.00    -0.181 NA
ENDROOT
BRANCH   4   8
ATOM      8  C   UNL     1      10.002  -3.949   5.263  0.00  0.00    -0.025 A 
ATOM      9  C   UNL     1       8.874  -4.711   5.505  0.00  0.00    +0.007 A 
ATOM     10  C   UNL     1       8.774  -5.985   4.979  0.00  0.00    +0.020 A 
ATOM     11  C   UNL     1       9.805  -6.499   4.212  0.00  0.00    +0.041 A 
ATOM     12  C   UNL     1      10.934  -5.737   3.971  0.00  0.00    +0.020 A 
ATOM     13  C   UNL     1      11.030  -4.460   4.492  0.00  0.00    +0.007 A 
ATOM     14 CL   UNL     1       9.680  -8.100   3.552  0.00  0.00    -0.084 Cl
ENDBRANCH   4   8
BRANCH   6  15
ATOM     15  C   UNL     1       9.071  -1.736   9.444  0.00  0.00    -0.002 A 
ATOM     16  C   UNL     1      10.050  -2.179  10.337  0.00  0.00    +0.010 A 
ATOM     17  C   UNL     1       9.880  -1.986  11.692  0.00  0.00    +0.001 A 
ATOM     18  C   UNL     1       8.743  -1.357  12.168  0.00  0.00    +0.000 A 
ATOM     19  C   UNL     1       7.769  -0.916  11.289  0.00  0.00    +0.001 A 
ATOM     20  C   UNL     1       7.929  -1.096   9.931  0.00  0.00    +0.010 A 
ENDBRANCH   6  15
BRANCH   1  21
ATOM     21  C   UNL     1       6.789  -0.881   4.760  0.00  0.00    +0.021 C 
BRANCH  21  25
ATOM     22  C   UNL     1       4.171  -0.963   1.399  0.00  0.00    -0.010 C 
ATOM     23  C   UNL     1       4.474   0.372   2.086  0.00  0.00    -0.015 C 
ATOM     24  C   UNL     1       5.009   0.105   3.494  0.00  0.00    -0.078 C 
ATOM     25  N   UNL     1       6.237  -0.694   3.412  0.00  0.00    +0.385 N 
ATOM     26  C   UNL     1       5.941  -2.004   2.819  0.00  0.00    -0.078 C 
ATOM     27  C   UNL     1       5.442  -1.818   1.385  0.00  0.00    -0.015 C 
ATOM     28  H   UNL     1       6.913  -0.211   2.838  0.00  0.00    -0.081 HD
BRANCH  22  29
ATOM     29  C   UNL     1       3.711  -0.707  -0.038  0.00  0.00    +0.038 C 
BRANCH  29  33
ATOM     30  C   UNL     1      -0.017   1.378   0.010  0.00  0.00    +0.000 A 
ATOM     31  C   UNL     1       1.171   2.086   0.002  0.00  0.00    +0.000 A 
ATOM     32  C   UNL     1       2.377   1.411  -0.013  0.00  0.00    +0.003 A 
ATOM     33  C   UNL     1       2.396   0.029  -0.020  0.00  0.00    -0.047 A 
ATOM     34  C   UNL     1       1.208  -0.679  -0.012  0.00  0.00    +0.003 A 
ATOM     35  C   UNL     1       0.002  -0.004   0.002  0.00  0.00    +0.000 A 
ENDBRANCH  29  33
ENDBRANCH  22  29
ENDBRANCH  21  25
ENDBRANCH   1  21
TORSDOF 6
