REMARK  Name = ZINC36644809
REMARK  7 active torsions:
REMARK  status: ('A' for Active; 'I' for Inactive)
REMARK    1  A    between atoms: C_1  and  N_2
REMARK    2  A    between atoms: N_2  and  C_3
REMARK    3  A    between atoms: N_2  and  C_4
REMARK    4  A    between atoms: C_4  and  C_5
REMARK    5  A    between atoms: C_5  and  C_6
REMARK    6  A    between atoms: C_6  and  N_7
REMARK    7  A    between atoms: C_18  and  C_20
REMARK                            x       y       z     vdW  Elec       q    Type
REMARK                         _______ _______ _______ _____ _____    ______ ____
ROOT
ATOM      1  N   UNL     1      -2.787  -4.025  -0.238  0.00  0.00    -0.244 N 
ATOM      2  C   UNL     1      -2.620  -4.816   0.885  0.00  0.00    +0.168 A 
ATOM      3  N   UNL     1      -2.484  -4.448   2.138  0.00  0.00    -0.224 NA
ATOM      4  C   UNL     1      -2.329  -5.337   3.143  0.00  0.00    +0.080 A 
ATOM      5  C   UNL     1      -2.172  -5.076   4.524  0.00  0.00    +0.030 A 
ATOM      6  C   UNL     1      -2.024  -6.103   5.419  0.00  0.00    +0.017 A 
ATOM      7  C   UNL     1      -2.021  -7.428   5.007  0.00  0.00    +0.019 A 
ATOM      8  C   UNL     1      -2.171  -7.721   3.663  0.00  0.00    +0.032 A 
ATOM      9  C   UNL     1      -2.321  -6.698   2.760  0.00  0.00    +0.042 A 
ATOM     10  S   UNL     1      -2.544  -6.598   1.000  0.00  0.00    -0.052 S 
ATOM     11 BR   UNL     1      -1.813  -8.820   6.270  0.00  0.00    -0.050 Br
ATOM     12  C   UNL     1      -2.917  -4.597  -1.452  0.00  0.00    +0.288 C 
ATOM     13  O   UNL     1      -2.985  -5.808  -1.549  0.00  0.00    -0.266 OA
ENDROOT
BRANCH  12  14
ATOM     14  C   UNL     1      -2.976  -3.761  -2.653  0.00  0.00    +0.191 A 
ATOM     15  C   UNL     1      -3.216  -4.199  -3.925  0.00  0.00    +0.056 A 
ATOM     16  C   UNL     1      -3.183  -3.068  -4.754  0.00  0.00    +0.058 A 
ATOM     17  C   UNL     1      -2.926  -2.001  -3.963  0.00  0.00    +0.171 A 
ATOM     18  O   UNL     1      -2.808  -2.422  -2.697  0.00  0.00    -0.444 OA
ATOM     19 BR   UNL     1      -2.769  -0.209  -4.546  0.00  0.00    -0.008 Br
ENDBRANCH  12  14
BRANCH   1  20
ATOM     20  C   UNL     1      -2.822  -2.566  -0.109  0.00  0.00    +0.114 C 
BRANCH  20  21
ATOM     21  C   UNL     1      -1.414  -2.002  -0.314  0.00  0.00    +0.001 C 
BRANCH  21  22
ATOM     22  C   UNL     1      -1.451  -0.478  -0.178  0.00  0.00    -0.078 C 
BRANCH  22  24
ATOM     23  C   UNL     1      -0.154   1.531  -0.364  0.00  0.00    -0.097 C 
ATOM     24  N   UNL     1      -0.100   0.063  -0.375  0.00  0.00    +0.376 N 
ATOM     25  C   UNL     1       0.777  -0.402   0.708  0.00  0.00    -0.097 C 
ATOM     26  H   UNL     1       0.264  -0.253  -1.262  0.00  0.00    -0.083 HD
ENDBRANCH  22  24
ENDBRANCH  21  22
ENDBRANCH  20  21
ENDBRANCH   1  20
TORSDOF 5
