REMARK  Name = ZINC09848949
REMARK  10 active torsions:
REMARK  status: ('A' for Active; 'I' for Inactive)
REMARK    1  A    between atoms: C_1  and  C_2
REMARK    2  A    between atoms: C_5  and  N_8
REMARK    3  A    between atoms: C_9  and  C_11
REMARK    4  A    between atoms: C_11  and  N_12
REMARK    5  A    between atoms: N_12  and  C_13
REMARK    6  A    between atoms: C_14  and  C_16
REMARK    7  A    between atoms: C_16  and  O_17
REMARK    8  A    between atoms: O_17  and  C_18
REMARK    9  A    between atoms: C_18  and  C_20
REMARK   10  A    between atoms: C_24  and  N_26
REMARK                            x       y       z     vdW  Elec       q    Type
REMARK                         _______ _______ _______ _____ _____    ______ ____
ROOT
ATOM      1  N   UNL     1       3.416   2.296  -0.311  0.00  0.00    -0.293 N 
ATOM      2  C   UNL     1       3.916   3.092   0.813  0.00  0.00    +0.132 C 
ATOM      3  C   UNL     1       3.848   2.553  -1.562  0.00  0.00    +0.253 C 
ATOM      4  O   UNL     1       3.434   1.894  -2.493  0.00  0.00    -0.272 OA
ENDROOT
BRANCH   1   5
ATOM      5  C   UNL     1       2.448   1.223  -0.076  0.00  0.00    +0.203 C 
BRANCH   5   7
ATOM      6  N   UNL     1      -0.011   0.966   0.007  0.00  0.00    -0.284 N 
ATOM      7  C   UNL     1       1.050   1.777  -0.174  0.00  0.00    +0.235 C 
ATOM      8  O   UNL     1       0.879   2.953  -0.417  0.00  0.00    -0.274 OA
ATOM      9  H   UNL     1       0.122   0.012   0.124  0.00  0.00    +0.155 HD
BRANCH   6  14
ATOM     10  C   UNL     1      -5.256   3.126   0.068  0.00  0.00    +0.044 C 
ATOM     11  C   UNL     1      -3.863   2.552   0.052  0.00  0.00    -0.050 A 
ATOM     12  C   UNL     1      -3.645   1.284  -0.456  0.00  0.00    +0.005 A 
ATOM     13  C   UNL     1      -2.369   0.756  -0.472  0.00  0.00    +0.023 A 
ATOM     14  C   UNL     1      -1.305   1.499   0.022  0.00  0.00    +0.033 A 
ATOM     15  C   UNL     1      -1.528   2.769   0.536  0.00  0.00    +0.023 A 
ATOM     16  C   UNL     1      -2.806   3.294   0.544  0.00  0.00    +0.005 A 
ENDBRANCH   6  14
ENDBRANCH   5   7
ENDBRANCH   1   5
BRANCH   3  17
ATOM     17  C   UNL     1       4.844   3.657  -1.804  0.00  0.00    +0.328 C 
BRANCH  17  18
ATOM     18  O   UNL     1       5.148   3.733  -3.222  0.00  0.00    -0.452 OA
BRANCH  18  19
ATOM     19  C   UNL     1       6.029   4.676  -3.609  0.00  0.00    +0.340 C 
ATOM     20  O   UNL     1       6.530   5.414  -2.785  0.00  0.00    -0.245 OA
BRANCH  19  21
ATOM     21  C   UNL     1       6.386   4.811  -5.036  0.00  0.00    +0.061 A 
ATOM     22  C   UNL     1       5.816   3.960  -5.985  0.00  0.00    +0.016 A 
ATOM     23  C   UNL     1       6.149   4.095  -7.316  0.00  0.00    +0.018 A 
ATOM     24  C   UNL     1       7.056   5.065  -7.711  0.00  0.00    +0.048 A 
ATOM     25  C   UNL     1       7.628   5.909  -6.774  0.00  0.00    +0.141 A 
ATOM     26  C   UNL     1       7.298   5.788  -5.440  0.00  0.00    +0.048 A 
ATOM     27 BR   UNL     1       7.513   5.239  -9.538  0.00  0.00    -0.048 Br
BRANCH  25  28
ATOM     28  N   UNL     1       8.595   6.944  -7.205  0.00  0.00    +0.058 N 
ATOM     29  O   UNL     1       9.099   7.687  -6.382  0.00  0.00    -0.126 OA
ATOM     30  O   UNL     1       8.887   7.052  -8.382  0.00  0.00    -0.126 OA
ENDBRANCH  25  28
ENDBRANCH  19  21
ENDBRANCH  18  19
ENDBRANCH  17  18
ENDBRANCH   3  17
TORSDOF 8
