REMARK  Name = ZINC35855614
REMARK  5 active torsions:
REMARK  status: ('A' for Active; 'I' for Inactive)
REMARK    1  A    between atoms: C_1  and  O_2
REMARK    2  A    between atoms: O_2  and  C_3
REMARK    3  A    between atoms: C_10  and  C_26
REMARK    4  A    between atoms: C_12  and  C_20
REMARK    5  A    between atoms: C_26  and  C_28
REMARK                            x       y       z     vdW  Elec       q    Type
REMARK                         _______ _______ _______ _____ _____    ______ ____
ROOT
ATOM      1  C   UNL     1       0.738  -0.542  -1.207  0.00  0.00    +0.121 A 
ATOM      2  C   UNL     1       1.368   0.181  -2.210  0.00  0.00    +0.047 A 
ATOM      3  C   UNL     1       1.997  -0.472  -3.249  0.00  0.00    +0.027 A 
ATOM      4  C   UNL     1       2.006  -1.864  -3.300  0.00  0.00    +0.039 A 
ATOM      5  C   UNL     1       1.372  -2.580  -2.290  0.00  0.00    +0.007 A 
ATOM      6  C   UNL     1       0.748  -1.929  -1.250  0.00  0.00    +0.053 A 
ATOM      7  C   UNL     1       1.557  -4.035  -2.632  0.00  0.00    +0.138 C 
ATOM      8  C   UNL     1       2.316  -4.766  -1.521  0.00  0.00    +0.103 C 
ATOM      9  C   UNL     1       1.236  -5.619  -0.815  0.00  0.00    +0.050 C 
ATOM     10  C   UNL     1       0.197  -5.852  -1.921  0.00  0.00    +0.077 C 
ATOM     11  N   UNL     1       0.255  -4.697  -2.823  0.00  0.00    -0.271 NA
ATOM     12  C   UNL     1      -0.814  -3.689  -2.535  0.00  0.00    +0.155 C 
ATOM     13  S   UNL     1      -2.207  -4.803  -2.060  0.00  0.00    -0.144 S 
ATOM     14  C   UNL     1      -1.189  -6.139  -1.326  0.00  0.00    +0.090 C 
ATOM     15  C   UNL     1       2.349  -4.029  -3.914  0.00  0.00    +0.243 C 
ATOM     16  O   UNL     1       2.719  -5.001  -4.539  0.00  0.00    -0.273 OA
ATOM     17  N   UNL     1       2.567  -2.740  -4.233  0.00  0.00    -0.283 N 
ATOM     18  H   UNL     1       3.056  -2.452  -5.020  0.00  0.00    +0.155 HD
ENDROOT
BRANCH   9  19
ATOM     19  C   UNL     1       1.816  -6.926  -0.341  0.00  0.00    -0.042 A 
ATOM     20  C   UNL     1       2.375  -7.805  -1.250  0.00  0.00    +0.004 A 
ATOM     21  C   UNL     1       2.907  -9.004  -0.815  0.00  0.00    +0.000 A 
ATOM     22  C   UNL     1       2.881  -9.325   0.530  0.00  0.00    +0.000 A 
ATOM     23  C   UNL     1       2.323  -8.445   1.439  0.00  0.00    +0.000 A 
ATOM     24  C   UNL     1       1.795  -7.244   1.005  0.00  0.00    +0.004 A 
ENDBRANCH   9  19
BRANCH   1  26
ATOM     25  C   UNL     1       0.149   1.534  -0.208  0.00  0.00    +0.277 C 
ATOM     26  O   UNL     1       0.119   0.106  -0.184  0.00  0.00    -0.495 OA
ENDBRANCH   1  26
BRANCH   8  27
ATOM     27  C   UNL     1       2.923  -3.777  -0.559  0.00  0.00    +0.170 C 
ATOM     28  O   UNL     1       2.314  -3.450   0.438  0.00  0.00    -0.292 OA
BRANCH  27  29
ATOM     29  C   UNL     1       4.250  -3.210  -0.829  0.00  0.00    +0.021 A 
ATOM     30  C   UNL     1       4.952  -3.581  -1.982  0.00  0.00    +0.015 A 
ATOM     31  C   UNL     1       6.195  -3.047  -2.232  0.00  0.00    +0.050 A 
ATOM     32  C   UNL     1       6.759  -2.140  -1.344  0.00  0.00    +0.166 A 
ATOM     33  C   UNL     1       6.066  -1.765  -0.192  0.00  0.00    +0.167 A 
ATOM     34  C   UNL     1       4.816  -2.291   0.064  0.00  0.00    +0.061 A 
ATOM     35  O   UNL     1       6.830  -0.873   0.505  0.00  0.00    -0.453 OA
ATOM     36  C   UNL     1       8.163  -1.018  -0.019  0.00  0.00    +0.466 C 
ATOM     37  O   UNL     1       7.953  -1.482  -1.366  0.00  0.00    -0.453 OA
ENDBRANCH  27  29
ENDBRANCH   8  27
TORSDOF 4
