REMARK  Name = ZINC39221599
REMARK  11 active torsions:
REMARK  status: ('A' for Active; 'I' for Inactive)
REMARK    1  A    between atoms: C_1  and  C_2
REMARK    2  A    between atoms: C_2  and  C_3
REMARK    3  A    between atoms: C_3  and  C_4
REMARK    4  A    between atoms: C_4  and  N_5
REMARK    5  A    between atoms: C_14  and  C_16
REMARK    6  A    between atoms: C_16  and  O_18
REMARK    7  A    between atoms: O_18  and  C_19
REMARK    8  A    between atoms: C_19  and  C_20
REMARK    9  A    between atoms: N_22  and  C_23
REMARK   10  A    between atoms: C_26  and  N_33
REMARK   11  A    between atoms: C_28  and  C_29
REMARK                            x       y       z     vdW  Elec       q    Type
REMARK                         _______ _______ _______ _____ _____    ______ ____
ROOT
ATOM      1  O   UNL     1      -0.988  -3.093  -5.719  0.00  0.00    -0.451 OA
ENDROOT
BRANCH   1   2
ATOM      2  C   UNL     1       0.331  -3.350  -5.822  0.00  0.00    +0.360 C 
ATOM      3  O   UNL     1       0.792  -3.748  -6.873  0.00  0.00    -0.243 OA
BRANCH   2  13
ATOM      4  N   UNL     1       1.422  -2.522  -2.465  0.00  0.00    -0.228 N 
ATOM      5  C   UNL     1       2.753  -2.731  -2.402  0.00  0.00    +0.275 A 
ATOM      6  O   UNL     1       3.368  -2.525  -1.372  0.00  0.00    -0.266 OA
ATOM      7  C   UNL     1       3.444  -3.214  -3.606  0.00  0.00    +0.050 A 
ATOM      8  C   UNL     1       4.813  -3.461  -3.644  0.00  0.00    +0.014 A 
ATOM      9  C   UNL     1       5.386  -3.913  -4.814  0.00  0.00    +0.001 A 
ATOM     10  C   UNL     1       4.612  -4.123  -5.947  0.00  0.00    +0.001 A 
ATOM     11  C   UNL     1       3.254  -3.884  -5.930  0.00  0.00    +0.011 A 
ATOM     12  C   UNL     1       2.656  -3.429  -4.760  0.00  0.00    +0.021 A 
ATOM     13  C   UNL     1       1.215  -3.150  -4.658  0.00  0.00    +0.176 A 
ATOM     14  N   UNL     1       0.724  -2.726  -3.518  0.00  0.00    -0.161 NA
BRANCH   4  15
ATOM     15  C   UNL     1       0.738  -2.040  -1.263  0.00  0.00    +0.147 C 
BRANCH  15  16
ATOM     16  C   UNL     1       0.729  -0.510  -1.260  0.00  0.00    +0.023 C 
BRANCH  16  18
ATOM     17  C   UNL     1       0.004   1.523  -0.001  0.00  0.00    +0.004 C 
ATOM     18  C   UNL     1       0.014  -0.007  -0.004  0.00  0.00    -0.002 C 
ENDBRANCH  16  18
ENDBRANCH  15  16
ENDBRANCH   4  15
ENDBRANCH   2  13
ENDBRANCH   1   2
BRANCH   1  19
ATOM     19  C   UNL     1      -1.784  -3.309  -6.886  0.00  0.00    +0.328 C 
BRANCH  19  20
ATOM     20  C   UNL     1      -3.221  -2.971  -6.583  0.00  0.00    +0.255 C 
ATOM     21  O   UNL     1      -3.533  -2.583  -5.477  0.00  0.00    -0.272 OA
ATOM     22  N   UNL     1      -4.160  -3.100  -7.542  0.00  0.00    -0.282 N 
ATOM     23  H   UNL     1      -3.900  -3.333  -8.447  0.00  0.00    +0.155 HD
BRANCH  22  24
ATOM     24  C   UNL     1      -5.509  -2.897  -7.231  0.00  0.00    +0.045 A 
ATOM     25  C   UNL     1      -5.957  -3.075  -5.929  0.00  0.00    +0.026 A 
ATOM     26  C   UNL     1      -7.290  -2.875  -5.625  0.00  0.00    +0.034 A 
ATOM     27  C   UNL     1      -8.177  -2.497  -6.617  0.00  0.00    +0.127 A 
ATOM     28  C   UNL     1      -7.734  -2.320  -7.915  0.00  0.00    +0.047 A 
ATOM     29  C   UNL     1      -6.401  -2.513  -8.223  0.00  0.00    +0.078 A 
BRANCH  29  30
ATOM     30  C   UNL     1      -5.918  -2.312  -9.636  0.00  0.00    +0.419 C 
ATOM     31  F   UNL     1      -6.992  -1.930 -10.447  0.00  0.00    -0.166 F 
ATOM     32  F   UNL     1      -4.939  -1.313  -9.657  0.00  0.00    -0.166 F 
ATOM     33  F   UNL     1      -5.373  -3.508 -10.117  0.00  0.00    -0.166 F 
ENDBRANCH  29  30
BRANCH  27  34
ATOM     34  N   UNL     1      -9.604  -2.284  -6.288  0.00  0.00    +0.056 N 
ATOM     35  O   UNL     1      -9.993  -2.439  -5.154  0.00  0.00    -0.126 OA
ATOM     36  O   UNL     1     -10.381  -1.954  -7.154  0.00  0.00    -0.126 OA
ENDBRANCH  27  34
ENDBRANCH  22  24
ENDBRANCH  19  20
ENDBRANCH   1  19
TORSDOF 10
