REMARK  Name = ZINC44942570
REMARK  5 active torsions:
REMARK  status: ('A' for Active; 'I' for Inactive)
REMARK    1  A    between atoms: C_5  and  C_7
REMARK    2  A    between atoms: C_7  and  C_8
REMARK    3  A    between atoms: C_8  and  N_9
REMARK    4  A    between atoms: C_10  and  C_12
REMARK    5  A    between atoms: C_18  and  C_20
REMARK                            x       y       z     vdW  Elec       q    Type
REMARK                         _______ _______ _______ _____ _____    ______ ____
ROOT
ATOM      1  C   UNL     1       1.556  -6.327   2.543  0.00  0.00    +0.087 C 
ATOM      2  C   UNL     1       2.731  -6.838   1.708  0.00  0.00    +0.013 C 
ATOM      3  C   UNL     1       2.724  -8.368   1.700  0.00  0.00    +0.001 C 
ATOM      4  C   UNL     1       2.854  -8.885   3.134  0.00  0.00    +0.001 C 
ATOM      5  C   UNL     1       1.680  -8.374   3.970  0.00  0.00    +0.013 C 
ATOM      6  C   UNL     1       1.687  -6.844   3.977  0.00  0.00    +0.087 C 
ENDROOT
BRANCH   6   7
ATOM      7  C   UNL     1       2.980  -6.350   4.573  0.00  0.00    +0.219 C 
ATOM      8  O   UNL     1       3.964  -6.235   3.875  0.00  0.00    -0.275 OA
ATOM      9  N   UNL     1       3.042  -6.036   5.883  0.00  0.00    -0.298 N 
ATOM     10  C   UNL     1       1.896  -6.290   6.768  0.00  0.00    +0.126 C 
ATOM     11  C   UNL     1       2.367  -7.155   7.943  0.00  0.00    +0.125 C 
ATOM     12  N   UNL     1       3.582  -6.553   8.512  0.00  0.00    -0.314 N 
ATOM     13  C   UNL     1       4.727  -6.300   7.627  0.00  0.00    +0.125 C 
ATOM     14  C   UNL     1       4.259  -5.441   6.452  0.00  0.00    +0.126 C 
ATOM     15  C   UNL     1       3.646  -6.230   9.862  0.00  0.00    +0.099 A 
ATOM     16  C   UNL     1       2.599  -6.587  10.707  0.00  0.00    +0.042 A 
ATOM     17  C   UNL     1       2.676  -6.258  12.048  0.00  0.00    +0.005 A 
ATOM     18  C   UNL     1       3.801  -5.582  12.502  0.00  0.00    +0.018 A 
ATOM     19  C   UNL     1       4.802  -5.259  11.608  0.00  0.00    +0.084 A 
ATOM     20  N   UNL     1       4.705  -5.590  10.334  0.00  0.00    -0.350 N 
ATOM     21  H   UNL     1       5.424  -5.355   9.727  0.00  0.00    +0.166 HD
ENDBRANCH   6   7
BRANCH   1  23
ATOM     22  N   UNL     1       1.458  -4.140   1.391  0.00  0.00    -0.315 N 
ATOM     23  C   UNL     1       1.562  -4.820   2.550  0.00  0.00    +0.217 C 
ATOM     24  O   UNL     1       1.662  -4.218   3.599  0.00  0.00    -0.275 OA
ATOM     25  H   UNL     1       1.378  -4.621   0.553  0.00  0.00    +0.149 HD
BRANCH  22  26
ATOM     26  C   UNL     1       1.464  -2.675   1.398  0.00  0.00    +0.109 C 
BRANCH  26  27
ATOM     27  C   UNL     1       1.333  -2.158  -0.036  0.00  0.00    +0.056 C 
BRANCH  27  32
ATOM     28  C   UNL     1       0.153   1.428  -0.014  0.00  0.00    +0.000 A 
ATOM     29  C   UNL     1       1.352   2.115  -0.017  0.00  0.00    +0.003 A 
ATOM     30  C   UNL     1       2.547   1.421  -0.026  0.00  0.00    +0.038 A 
ATOM     31  C   UNL     1       2.542   0.036  -0.032  0.00  0.00    +0.127 A 
ATOM     32  C   UNL     1       1.340  -0.651  -0.029  0.00  0.00    -0.011 A 
ATOM     33  C   UNL     1       0.147   0.046  -0.020  0.00  0.00    +0.006 A 
ATOM     34  F   UNL     1       3.709  -0.644  -0.041  0.00  0.00    -0.205 F 
ENDBRANCH  27  32
ENDBRANCH  26  27
ENDBRANCH  22  26
ENDBRANCH   1  23
TORSDOF 5
