REMARK  Name = ZINC63686336
REMARK  9 active torsions:
REMARK  status: ('A' for Active; 'I' for Inactive)
REMARK    1  A    between atoms: C_1  and  C_2
REMARK    2  A    between atoms: C_9  and  C_13
REMARK    3  A    between atoms: C_13  and  S_14
REMARK    4  A    between atoms: S_14  and  C_15
REMARK    5  A    between atoms: C_19  and  C_28
REMARK    6  A    between atoms: N_21  and  C_22
REMARK    7  A    between atoms: C_28  and  C_29
REMARK    8  A    between atoms: C_29  and  C_30
REMARK    9  A    between atoms: C_29  and  C_31
REMARK                            x       y       z     vdW  Elec       q    Type
REMARK                         _______ _______ _______ _____ _____    ______ ____
ROOT
ATOM      1  C   UNL     1       1.534   1.661   6.712  0.00  0.00    +0.217 C 
ATOM      2  N   UNL     1       1.105   0.735   7.785  0.00  0.00    -0.226 NA
ATOM      3  N   UNL     1       0.185   1.532   8.611  0.00  0.00    -0.234 NA
ATOM      4  C   UNL     1      -0.543   2.350   7.606  0.00  0.00    +0.158 C 
ATOM      5  N   UNL     1       0.485   2.690   6.599  0.00  0.00    -0.288 N 
ATOM      6  H   UNL     1       0.637  -0.072   7.399  0.00  0.00    +0.143 HD
ATOM      7  H   UNL     1       0.695   2.120   9.255  0.00  0.00    +0.143 HD
ENDROOT
BRANCH   5   8
ATOM      8  C   UNL     1       0.466   3.771   5.715  0.00  0.00    +0.033 A 
ATOM      9  C   UNL     1      -0.597   4.666   5.733  0.00  0.00    +0.023 A 
ATOM     10  C   UNL     1      -0.613   5.734   4.857  0.00  0.00    +0.002 A 
ATOM     11  C   UNL     1       0.428   5.913   3.965  0.00  0.00    +0.000 A 
ATOM     12  C   UNL     1       1.487   5.025   3.945  0.00  0.00    +0.002 A 
ATOM     13  C   UNL     1       1.512   3.958   4.821  0.00  0.00    +0.023 A 
ENDBRANCH   5   8
BRANCH   1  14
ATOM     14  S   UNL     1       1.696   0.764   5.144  0.00  0.00    -0.116 S 
BRANCH  14  15
ATOM     15  C   UNL     1       0.051   0.050   4.874  0.00  0.00    +0.125 C 
BRANCH  15  24
ATOM     16  C   UNL     1      -0.018   1.503   0.010  0.00  0.00    +0.046 C 
ATOM     17  C   UNL     1       0.002  -0.004   0.002  0.00  0.00    -0.026 A 
ATOM     18  C   UNL     1       0.006  -0.690  -1.193  0.00  0.00    +0.005 A 
ATOM     19  C   UNL     1       0.025  -2.077  -1.214  0.00  0.00    +0.001 A 
ATOM     20  C   UNL     1       0.040  -2.790  -0.047  0.00  0.00    +0.014 A 
ATOM     21  C   UNL     1       0.036  -2.115   1.173  0.00  0.00    +0.045 A 
ATOM     22  C   UNL     1       0.023  -0.709   1.201  0.00  0.00    +0.053 A 
ATOM     23  N   UNL     1       0.026  -0.055   2.413  0.00  0.00    -0.357 N 
ATOM     24  C   UNL     1       0.047  -0.732   3.586  0.00  0.00    +0.030 A 
ATOM     25  C   UNL     1       0.066  -2.080   3.646  0.00  0.00    +0.073 A 
ATOM     26  C   UNL     1       0.052  -2.843   2.454  0.00  0.00    +0.190 A 
ATOM     27  O   UNL     1       0.069  -4.062   2.487  0.00  0.00    -0.287 OA
ATOM     28  H   UNL     1       0.013   0.915   2.426  0.00  0.00    +0.166 HD
ENDBRANCH  15  24
ENDBRANCH  14  15
ENDBRANCH   1  14
BRANCH   4  29
ATOM     29  C   UNL     1      -1.672   1.536   6.970  0.00  0.00    +0.042 C 
BRANCH  29  30
ATOM     30  C   UNL     1      -2.736   1.229   8.025  0.00  0.00    -0.014 C 
ATOM     31  C   UNL     1      -3.388   2.534   8.487  0.00  0.00    +0.007 C 
ATOM     32  C   UNL     1      -3.801   0.311   7.423  0.00  0.00    +0.007 C 
ENDBRANCH  29  30
ENDBRANCH   4  29
TORSDOF 6
