REMARK  Name = ZINC14470735
REMARK  4 active torsions:
REMARK  status: ('A' for Active; 'I' for Inactive)
REMARK    1  A    between atoms: C_4  and  N_33
REMARK    2  A    between atoms: C_6  and  C_7
REMARK    3  A    between atoms: C_18  and  S_23
REMARK    4  A    between atoms: S_23  and  N_26
REMARK                            x       y       z     vdW  Elec       q    Type
REMARK                         _______ _______ _______ _____ _____    ______ ____
ROOT
ATOM      1  C   UNL     1       3.621   0.890  -0.369  0.00  0.00    +0.105 C 
ATOM      2  C   UNL     1       2.160   0.673  -0.721  0.00  0.00    +0.029 C 
ATOM      3  C   UNL     1       1.446  -0.507  -0.049  0.00  0.00    +0.033 C 
ATOM      4  C   UNL     1       0.002  -0.004   0.002  0.00  0.00    -0.030 C 
ATOM      5  C   UNL     1      -0.016   1.323   0.009  0.00  0.00    -0.023 C 
ATOM      6  C   UNL     1       1.385   1.817  -0.001  0.00  0.00    +0.049 C 
ATOM      7  C   UNL     1       1.758   3.094  -0.648  0.00  0.00    -0.018 A 
ATOM      8  C   UNL     1       0.871   4.139  -0.789  0.00  0.00    +0.034 A 
ATOM      9  C   UNL     1       1.278   5.326  -1.370  0.00  0.00    +0.106 A 
ATOM     10  C   UNL     1       2.580   5.467  -1.813  0.00  0.00    +0.030 A 
ATOM     11  C   UNL     1       3.475   4.425  -1.683  0.00  0.00    +0.025 A 
ATOM     12  C   UNL     1       3.074   3.226  -1.105  0.00  0.00    +0.031 A 
ATOM     13  N   UNL     1       3.995   2.176  -0.997  0.00  0.00    -0.336 N 
ATOM     14  H   UNL     1       4.894   2.294  -1.341  0.00  0.00    +0.147 HD
ENDROOT
BRANCH   1  20
ATOM     15  C   UNL     1       4.828  -0.216  -2.261  0.00  0.00    +0.007 A 
ATOM     16  C   UNL     1       5.601  -1.241  -2.775  0.00  0.00    +0.022 A 
ATOM     17  C   UNL     1       6.008  -2.278  -1.955  0.00  0.00    +0.071 A 
ATOM     18  C   UNL     1       5.642  -2.288  -0.620  0.00  0.00    +0.145 A 
ATOM     19  C   UNL     1       4.875  -1.260  -0.106  0.00  0.00    +0.039 A 
ATOM     20  C   UNL     1       4.463  -0.227  -0.928  0.00  0.00    -0.025 A 
ATOM     21 CL   UNL     1       6.979  -3.565  -2.599  0.00  0.00    -0.081 Cl
BRANCH  18  22
ATOM     22  N   UNL     1       6.078  -3.397   0.258  0.00  0.00    +0.058 N 
ATOM     23  O   UNL     1       5.756  -3.406   1.433  0.00  0.00    -0.126 OA
ATOM     24  O   UNL     1       6.758  -4.301  -0.194  0.00  0.00    -0.126 OA
ENDBRANCH  18  22
ENDBRANCH   1  20
BRANCH   9  25
ATOM     25  S   UNL     1       0.138   6.657  -1.545  0.00  0.00    +0.061 S 
ATOM     26  O   UNL     1      -0.866   6.465  -0.558  0.00  0.00    -0.153 OA
ATOM     27  O   UNL     1       0.911   7.847  -1.623  0.00  0.00    -0.153 OA
BRANCH  25  28
ATOM     28  N   UNL     1      -0.603   6.478  -3.015  0.00  0.00    -0.177 NA
ATOM     29  C   UNL     1      -0.011   7.111  -4.172  0.00  0.00    +0.109 C 
ATOM     30  C   UNL     1      -0.566   8.542  -4.330  0.00  0.00    +0.017 C 
ATOM     31  C   UNL     1      -1.970   8.499  -4.768  0.00  0.00    +0.001 C 
ATOM     32  C   UNL     1      -2.918   7.831  -3.776  0.00  0.00    +0.001 C 
ATOM     33  C   UNL     1      -2.901   6.339  -3.996  0.00  0.00    +0.017 C 
ATOM     34  C   UNL     1      -1.844   5.682  -3.090  0.00  0.00    +0.109 C 
ENDBRANCH  25  28
ENDBRANCH   9  25
TORSDOF 4
