REMARK  Name = ZINC12662367
REMARK  15 active torsions:
REMARK  status: ('A' for Active; 'I' for Inactive)
REMARK    1  A    between atoms: C_1  and  C_2
REMARK    2  A    between atoms: C_6  and  O_37
REMARK    3  A    between atoms: C_7  and  O_35
REMARK    4  A    between atoms: C_12  and  C_13
REMARK    5  A    between atoms: C_12  and  N_73
REMARK    6  A    between atoms: C_13  and  C_24
REMARK    7  A    between atoms: N_16  and  C_23
REMARK    8  A    between atoms: N_19  and  C_22
REMARK    9  A    between atoms: C_24  and  C_25
REMARK   10  A    between atoms: C_27  and  O_33
REMARK   11  A    between atoms: C_30  and  O_31
REMARK   12  A    between atoms: O_31  and  C_32
REMARK   13  A    between atoms: O_33  and  C_34
REMARK   14  A    between atoms: O_35  and  C_36
REMARK   15  A    between atoms: O_37  and  C_38
REMARK                            x       y       z     vdW  Elec       q    Type
REMARK                         _______ _______ _______ _____ _____    ______ ____
ROOT
ATOM      1  C   UNL     1      -4.850   0.225  -0.319  0.00  0.00    +0.113 C 
ATOM      2  C   UNL     1      -4.968   0.752  -1.737  0.00  0.00    +0.236 C 
ATOM      3  O   UNL     1      -5.125   0.001  -2.676  0.00  0.00    -0.274 OA
ATOM      4  N   UNL     1      -4.892   2.088  -1.915  0.00  0.00    -0.228 N 
ATOM      5  C   UNL     1      -4.719   2.930  -0.889  0.00  0.00    +0.317 C 
ATOM      6  O   UNL     1      -4.662   4.117  -1.139  0.00  0.00    -0.252 OA
ATOM      7  N   UNL     1      -4.605   2.560   0.391  0.00  0.00    -0.228 N 
ATOM      8  C   UNL     1      -4.656   1.265   0.768  0.00  0.00    +0.236 C 
ATOM      9  O   UNL     1      -4.551   0.944   1.933  0.00  0.00    -0.274 OA
ATOM     10  C   UNL     1      -4.418   3.591   1.415  0.00  0.00    +0.143 C 
ATOM     11  C   UNL     1      -5.002   2.632  -3.270  0.00  0.00    +0.143 C 
ENDROOT
BRANCH   1  12
ATOM     12  C   UNL     1      -3.667  -0.744  -0.269  0.00  0.00    -0.052 C 
BRANCH  12  23
ATOM     13  C   UNL     1      -1.724  -0.350   1.857  0.00  0.00    -0.008 C 
ATOM     14  C   UNL     1      -2.019   0.688   0.772  0.00  0.00    -0.040 C 
ATOM     15  C   UNL     1      -0.788   1.525   0.537  0.00  0.00    -0.054 A 
ATOM     16  C   UNL     1      -0.056   1.944   1.639  0.00  0.00    +0.051 A 
ATOM     17  C   UNL     1       1.076   2.721   1.473  0.00  0.00    +0.162 A 
ATOM     18  C   UNL     1       1.482   3.084   0.192  0.00  0.00    +0.162 A 
ATOM     19  C   UNL     1       0.750   2.663  -0.903  0.00  0.00    +0.053 A 
ATOM     20  C   UNL     1      -0.383   1.882  -0.732  0.00  0.00    -0.044 A 
ATOM     21  C   UNL     1      -1.141   1.438  -1.957  0.00  0.00    +0.017 C 
ATOM     22  C   UNL     1      -2.541   0.966  -1.564  0.00  0.00    -0.073 C 
ATOM     23  N   UNL     1      -2.397  -0.012  -0.466  0.00  0.00    +0.385 N 
ATOM     24  H   UNL     1      -1.659  -0.684  -0.710  0.00  0.00    -0.081 HD
BRANCH  18  25
ATOM     25  O   UNL     1       2.593   3.849   0.019  0.00  0.00    -0.491 OA
ATOM     26  C   UNL     1       2.948   4.182  -1.325  0.00  0.00    +0.277 C 
ENDBRANCH  18  25
BRANCH  17  27
ATOM     27  O   UNL     1       1.790   3.127   2.557  0.00  0.00    -0.491 OA
ATOM     28  C   UNL     1       1.313   2.716   3.840  0.00  0.00    +0.277 C 
ENDBRANCH  17  27
ENDBRANCH  12  23
ENDBRANCH   1  12
BRANCH   1  29
ATOM     29  C   UNL     1      -6.122  -0.564  -0.002  0.00  0.00    +0.062 C 
BRANCH  29  30
ATOM     30  C   UNL     1      -7.311   0.361  -0.043  0.00  0.00    -0.001 A 
ATOM     31  C   UNL     1      -7.776   0.941   1.121  0.00  0.00    +0.053 A 
ATOM     32  C   UNL     1      -8.869   1.792   1.083  0.00  0.00    +0.121 A 
ATOM     33  C   UNL     1      -9.497   2.062  -0.124  0.00  0.00    +0.049 A 
ATOM     34  C   UNL     1      -9.033   1.482  -1.288  0.00  0.00    +0.049 A 
ATOM     35  C   UNL     1      -7.935   0.634  -1.251  0.00  0.00    +0.124 A 
BRANCH  35  36
ATOM     36  O   UNL     1      -7.474   0.068  -2.398  0.00  0.00    -0.495 OA
ATOM     37  C   UNL     1      -8.165   0.394  -3.606  0.00  0.00    +0.277 C 
ENDBRANCH  35  36
BRANCH  32  38
ATOM     38  O   UNL     1      -9.327   2.363   2.230  0.00  0.00    -0.495 OA
ATOM     39  C   UNL     1     -10.458   3.229   2.117  0.00  0.00    +0.277 C 
ENDBRANCH  32  38
ENDBRANCH  29  30
ENDBRANCH   1  29
TORSDOF 8
