REMARK  Name = ZINC43737476
REMARK  11 active torsions:
REMARK  status: ('A' for Active; 'I' for Inactive)
REMARK    1  A    between atoms: C_1  and  C_2
REMARK    2  A    between atoms: C_2  and  C_4
REMARK    3  A    between atoms: C_9  and  C_40
REMARK    4  A    between atoms: C_20  and  C_39
REMARK    5  A    between atoms: C_23  and  O_26
REMARK    6  A    between atoms: O_26  and  C_27
REMARK    7  A    between atoms: C_27  and  C_29
REMARK    8  A    between atoms: C_29  and  C_30
REMARK    9  A    between atoms: C_30  and  N_31
REMARK   10  A    between atoms: C_35  and  C_37
REMARK   11  A    between atoms: C_35  and  C_38
REMARK                            x       y       z     vdW  Elec       q    Type
REMARK                         _______ _______ _______ _____ _____    ______ ____
ROOT
ATOM      1  C   UNL     1      -1.253  -0.748  -0.100  0.00  0.00    -0.003 C 
ATOM      2  C   UNL     1      -1.364  -2.083  -0.112  0.00  0.00    -0.019 C 
ATOM      3  C   UNL     1      -2.824  -2.481  -0.228  0.00  0.00    +0.032 C 
ATOM      4  C   UNL     1      -3.577  -1.225   0.315  0.00  0.00    +0.006 C 
ATOM      5  C   UNL     1      -2.624  -0.134  -0.203  0.00  0.00    -0.001 C 
ATOM      6  C   UNL     1      -2.752   1.178   0.530  0.00  0.00    +0.012 C 
ATOM      7  C   UNL     1      -2.643   0.990   2.043  0.00  0.00    +0.005 C 
ATOM      8  C   UNL     1      -3.758   0.037   2.489  0.00  0.00    -0.001 C 
ATOM      9  C   UNL     1      -3.537  -1.326   1.840  0.00  0.00    -0.003 C 
ATOM     10  C   UNL     1      -2.176  -1.866   2.284  0.00  0.00    +0.004 C 
ATOM     11  C   UNL     1      -2.161  -2.014   3.808  0.00  0.00    +0.004 C 
ATOM     12  C   UNL     1      -2.408  -0.650   4.456  0.00  0.00    -0.001 C 
ATOM     13  C   UNL     1      -3.733  -0.091   4.014  0.00  0.00    -0.026 C 
ATOM     14  C   UNL     1      -3.987   1.279   4.646  0.00  0.00    +0.011 C 
ATOM     15  C   UNL     1      -3.965   1.149   6.170  0.00  0.00    +0.045 C 
ATOM     16  C   UNL     1      -2.599   0.625   6.617  0.00  0.00    +0.177 C 
ATOM     17  C   UNL     1      -2.397  -0.799   5.978  0.00  0.00    +0.048 C 
ATOM     18  C   UNL     1      -4.823  -1.067   4.461  0.00  0.00    +0.012 C 
ATOM     19  C   UNL     1      -2.935   0.114  -1.681  0.00  0.00    +0.016 C 
ENDROOT
BRANCH   1  21
ATOM     20  C   UNL     1       1.296  -0.738   0.243  0.00  0.00    +0.091 C 
ATOM     21  C   UNL     1       0.002  -0.004   0.002  0.00  0.00    +0.156 C 
ATOM     22  O   UNL     1       0.001   1.204  -0.107  0.00  0.00    -0.293 OA
ENDBRANCH   1  21
BRANCH  16  23
ATOM     23  O   UNL     1      -1.580   1.537   6.204  0.00  0.00    -0.461 OA
BRANCH  23  24
ATOM     24  C   UNL     1      -1.257   2.519   7.061  0.00  0.00    +0.306 C 
ATOM     25  O   UNL     1      -1.821   2.600   8.127  0.00  0.00    -0.251 OA
BRANCH  24  26
ATOM     26  C   UNL     1      -0.192   3.519   6.694  0.00  0.00    +0.102 C 
BRANCH  26  27
ATOM     27  C   UNL     1      -0.019   4.522   7.836  0.00  0.00    -0.068 C 
BRANCH  27  28
ATOM     28  N   UNL     1       1.020   5.498   7.479  0.00  0.00    +0.380 N 
ATOM     29  C   UNL     1       0.573   6.285   6.323  0.00  0.00    -0.079 C 
ATOM     30  C   UNL     1       1.684   7.246   5.896  0.00  0.00    -0.018 C 
ATOM     31  C   UNL     1       2.013   8.186   7.059  0.00  0.00    +0.003 C 
ATOM     32  C   UNL     1       2.406   7.352   8.281  0.00  0.00    -0.050 C 
ATOM     33  C   UNL     1       1.269   6.386   8.620  0.00  0.00    -0.072 C 
ATOM     34  C   UNL     1       2.662   8.278   9.472  0.00  0.00    +0.009 C 
ATOM     35  C   UNL     1       3.676   6.556   7.970  0.00  0.00    +0.009 C 
ATOM     36  H   UNL     1       1.870   5.010   7.242  0.00  0.00    -0.082 HD
ENDBRANCH  27  28
ENDBRANCH  26  27
ENDBRANCH  24  26
ENDBRANCH  23  24
ENDBRANCH  16  23
TORSDOF 6
