REMARK  Name = ZINC22798531
REMARK  8 active torsions:
REMARK  status: ('A' for Active; 'I' for Inactive)
REMARK    1  A    between atoms: C_1  and  C_2
REMARK    2  A    between atoms: C_5  and  C_8
REMARK    3  A    between atoms: C_8  and  C_10
REMARK    4  A    between atoms: C_8  and  N_24
REMARK    5  A    between atoms: C_11  and  O_23
REMARK    6  A    between atoms: C_16  and  C_18
REMARK    7  A    between atoms: N_27  and  C_30
REMARK    8  A    between atoms: C_30  and  C_31
REMARK                            x       y       z     vdW  Elec       q    Type
REMARK                         _______ _______ _______ _____ _____    ______ ____
ROOT
ATOM      1  C   UNL     1       0.059  -4.275  -0.021  0.00  0.00    +0.129 C 
ENDROOT
BRANCH   1   2
ATOM      2  C   UNL     1       1.466  -4.761   0.215  0.00  0.00    +0.076 A 
ATOM      3  C   UNL     1       2.276  -5.436  -0.610  0.00  0.00    +0.228 A 
ATOM      4  N   UNL     1       3.540  -5.795  -0.212  0.00  0.00    -0.173 N 
ATOM      5  C   UNL     1       3.924  -5.433   1.050  0.00  0.00    +0.200 A 
ATOM      6  S   UNL     1       2.492  -4.578   1.666  0.00  0.00    -0.047 S 
ATOM      7  N   UNL     1       5.140  -5.843   1.276  0.00  0.00    -0.197 NA
ATOM      8  C   UNL     1       5.601  -6.481   0.191  0.00  0.00    +0.218 A 
ATOM      9  N   UNL     1       4.668  -6.479  -0.737  0.00  0.00    -0.138 NA
BRANCH   8  10
ATOM     10  C   UNL     1       6.941  -7.090   0.059  0.00  0.00    +0.173 A 
ATOM     11  C   UNL     1       7.909  -7.103   1.013  0.00  0.00    +0.053 A 
ATOM     12  C   UNL     1       9.013  -7.785   0.462  0.00  0.00    +0.042 A 
ATOM     13  C   UNL     1       8.667  -8.150  -0.788  0.00  0.00    +0.196 A 
ATOM     14  O   UNL     1       7.413  -7.733  -1.026  0.00  0.00    -0.460 OA
ENDBRANCH   8  10
BRANCH   3  15
ATOM     15  O   UNL     1       1.841  -5.771  -1.854  0.00  0.00    -0.492 OA
ATOM     16  H   UNL     1       2.491  -6.257  -2.380  0.00  0.00    +0.294 HD
ENDBRANCH   3  15
ENDBRANCH   1   2
BRANCH   1  21
ATOM     17  C   UNL     1      -0.018   1.503   0.010  0.00  0.00    +0.044 C 
ATOM     18  C   UNL     1       0.002  -0.004   0.002  0.00  0.00    -0.050 A 
ATOM     19  C   UNL     1       0.006  -0.689  -1.199  0.00  0.00    +0.004 A 
ATOM     20  C   UNL     1       0.025  -2.071  -1.206  0.00  0.00    +0.006 A 
ATOM     21  C   UNL     1       0.040  -2.768  -0.013  0.00  0.00    -0.025 A 
ATOM     22  C   UNL     1       0.037  -2.084   1.188  0.00  0.00    +0.006 A 
ATOM     23  C   UNL     1       0.023  -0.702   1.195  0.00  0.00    +0.004 A 
ENDBRANCH   1  21
BRANCH   1  24
ATOM     24  N   UNL     1      -0.819  -4.782   1.042  0.00  0.00    -0.295 NA
ATOM     25  C   UNL     1      -2.183  -4.257   0.893  0.00  0.00    +0.067 C 
ATOM     26  C   UNL     1      -3.049  -4.759   2.050  0.00  0.00    -0.063 C 
ATOM     27  N   UNL     1      -3.068  -6.228   2.046  0.00  0.00    +0.384 N 
ATOM     28  C   UNL     1      -1.702  -6.738   2.220  0.00  0.00    -0.063 C 
ATOM     29  C   UNL     1      -0.825  -6.252   1.064  0.00  0.00    +0.067 C 
ATOM     30  H   UNL     1      -3.440  -6.557   1.167  0.00  0.00    -0.081 HD
BRANCH  27  31
ATOM     31  C   UNL     1      -3.914  -6.710   3.146  0.00  0.00    -0.043 C 
BRANCH  31  32
ATOM     32  C   UNL     1      -4.033  -8.210   3.068  0.00  0.00    -0.064 A 
ATOM     33  C   UNL     1      -5.053  -8.785   2.333  0.00  0.00    +0.002 A 
ATOM     34  C   UNL     1      -5.163 -10.161   2.261  0.00  0.00    +0.000 A 
ATOM     35  C   UNL     1      -4.252 -10.962   2.924  0.00  0.00    +0.000 A 
ATOM     36  C   UNL     1      -3.232 -10.387   3.659  0.00  0.00    +0.000 A 
ATOM     37  C   UNL     1      -3.120  -9.011   3.727  0.00  0.00    +0.002 A 
ENDBRANCH  31  32
ENDBRANCH  27  31
ENDBRANCH   1  24
TORSDOF 7
