REMARK  Name = ZINC39715258
REMARK  5 active torsions:
REMARK  status: ('A' for Active; 'I' for Inactive)
REMARK    1  A    between atoms: C_8  and  C_13
REMARK    2  A    between atoms: C_13  and  C_24
REMARK    3  A    between atoms: C_14  and  C_15
REMARK    4  A    between atoms: C_18  and  C_21
REMARK    5  A    between atoms: C_24  and  C_26
REMARK                            x       y       z     vdW  Elec       q    Type
REMARK                         _______ _______ _______ _____ _____    ______ ____
ROOT
ATOM      1  C   UNL     1       2.545  -3.677   1.243  0.00  0.00    +0.031 C 
ATOM      2  C   UNL     1       3.001  -4.947   1.275  0.00  0.00    +0.018 C 
ENDROOT
BRANCH   1  10
ATOM      3  C   UNL     1      -1.694  -0.080  -0.188  0.00  0.00    +0.002 A 
ATOM      4  C   UNL     1      -0.800   0.964  -0.475  0.00  0.00    +0.002 A 
ATOM      5  C   UNL     1       0.536   0.775  -0.588  0.00  0.00    +0.025 A 
ATOM      6  C   UNL     1       1.093  -0.512  -0.415  0.00  0.00    +0.057 A 
ATOM      7  N   UNL     1       2.398  -0.692  -0.526  0.00  0.00    -0.282 N 
ATOM      8  C   UNL     1       2.955  -1.894  -0.369  0.00  0.00    +0.244 C 
ATOM      9  O   UNL     1       4.157  -2.034  -0.475  0.00  0.00    -0.273 OA
ATOM     10  C   UNL     1       2.070  -3.080  -0.056  0.00  0.00    +0.200 C 
ATOM     11  N   UNL     1       0.622  -2.846   0.060  0.00  0.00    -0.369 N 
ATOM     12  C   UNL     1       0.173  -1.637  -0.110  0.00  0.00    +0.058 A 
ATOM     13  C   UNL     1      -1.267  -1.349  -0.004  0.00  0.00    +0.027 A 
ATOM     14  H   UNL     1       0.017  -3.577   0.259  0.00  0.00    +0.161 HD
ATOM     15  H   UNL     1       2.965   0.070  -0.727  0.00  0.00    +0.155 HD
ENDBRANCH   1  10
BRANCH   2  16
ATOM     16  C   UNL     1       3.169  -5.700   0.022  0.00  0.00    -0.025 A 
ATOM     17  C   UNL     1       2.836  -7.059  -0.028  0.00  0.00    +0.009 A 
ATOM     18  C   UNL     1       2.993  -7.763  -1.201  0.00  0.00    +0.016 A 
ATOM     19  C   UNL     1       3.484  -7.121  -2.341  0.00  0.00    +0.063 A 
ATOM     20  C   UNL     1       3.817  -5.763  -2.292  0.00  0.00    +0.016 A 
ATOM     21  C   UNL     1       3.655  -5.057  -1.122  0.00  0.00    +0.009 A 
BRANCH  19  22
ATOM     22  C   UNL     1       3.652  -7.876  -3.598  0.00  0.00    +0.387 C 
ATOM     23  O   UNL     1       3.362  -9.063  -3.642  0.00  0.00    -0.241 OA
ATOM     24  O   UNL     1       4.082  -7.315  -4.596  0.00  0.00    -0.241 OA
ENDBRANCH  19  22
ENDBRANCH   2  16
BRANCH   1  25
ATOM     25  C   UNL     1       2.511  -2.880   2.472  0.00  0.00    +0.192 C 
ATOM     26  O   UNL     1       3.330  -1.998   2.647  0.00  0.00    -0.287 OA
BRANCH  25  27
ATOM     27  C   UNL     1       1.481  -3.148   3.498  0.00  0.00    +0.022 A 
ATOM     28  C   UNL     1       0.607  -4.227   3.349  0.00  0.00    +0.013 A 
ATOM     29  C   UNL     1      -0.351  -4.472   4.311  0.00  0.00    +0.021 A 
ATOM     30  C   UNL     1      -0.447  -3.650   5.422  0.00  0.00    +0.041 A 
ATOM     31  C   UNL     1       0.418  -2.578   5.575  0.00  0.00    +0.021 A 
ATOM     32  C   UNL     1       1.383  -2.327   4.624  0.00  0.00    +0.013 A 
ATOM     33 CL   UNL     1      -1.656  -3.964   6.628  0.00  0.00    -0.084 Cl
ENDBRANCH  25  27
ENDBRANCH   1  25
TORSDOF 5
