REMARK  Name = ZINC39561044
REMARK  12 active torsions:
REMARK  status: ('A' for Active; 'I' for Inactive)
REMARK    1  A    between atoms: C_1  and  C_2
REMARK    2  A    between atoms: C_2  and  C_3
REMARK    3  A    between atoms: C_2  and  C_4
REMARK    4  A    between atoms: C_8  and  C_27
REMARK    5  A    between atoms: C_9  and  N_10
REMARK    6  A    between atoms: C_11  and  C_13
REMARK    7  A    between atoms: C_13  and  O_14
REMARK    8  A    between atoms: O_14  and  C_15
REMARK    9  A    between atoms: C_15  and  C_17
REMARK   10  A    between atoms: C_19  and  N_25
REMARK   11  A    between atoms: C_27  and  C_28
REMARK   12  A    between atoms: C_27  and  C_29
REMARK                            x       y       z     vdW  Elec       q    Type
REMARK                         _______ _______ _______ _____ _____    ______ ____
ROOT
ATOM      1  N   UNL     1      -0.977  -0.203  -2.353  0.00  0.00    -0.282 N 
ATOM      2  C   UNL     1      -0.807  -1.104  -3.341  0.00  0.00    +0.255 C 
ATOM      3  O   UNL     1      -1.344  -2.189  -3.271  0.00  0.00    -0.272 OA
ATOM      4  H   UNL     1      -0.612   0.691  -2.444  0.00  0.00    +0.155 HD
ENDROOT
BRANCH   1  10
ATOM      5  C   UNL     1      -1.049  -0.517   0.041  0.00  0.00    -0.023 A 
ATOM      6  C   UNL     1      -1.747  -0.862   1.182  0.00  0.00    +0.006 A 
ATOM      7  C   UNL     1      -3.070  -1.254   1.093  0.00  0.00    +0.001 A 
ATOM      8  C   UNL     1      -3.699  -1.301  -0.138  0.00  0.00    +0.006 A 
ATOM      9  C   UNL     1      -3.006  -0.957  -1.283  0.00  0.00    -0.023 A 
ATOM     10  C   UNL     1      -1.679  -0.558  -1.196  0.00  0.00    +0.040 A 
BRANCH   5  12
ATOM     11  C   UNL     1       0.500   1.147   1.032  0.00  0.00    +0.012 C 
ATOM     12  C   UNL     1       0.393  -0.091   0.139  0.00  0.00    +0.015 C 
ATOM     13  C   UNL     1       1.221  -1.228   0.742  0.00  0.00    +0.012 C 
ENDBRANCH   5  12
BRANCH   9  14
ATOM     14  C   UNL     1      -3.692  -1.009  -2.623  0.00  0.00    +0.015 C 
ATOM     15  C   UNL     1      -4.832  -2.029  -2.574  0.00  0.00    +0.012 C 
ATOM     16  C   UNL     1      -4.258   0.372  -2.961  0.00  0.00    +0.012 C 
ENDBRANCH   9  14
ENDBRANCH   1  10
BRANCH   2  17
ATOM     17  C   UNL     1       0.051  -0.763  -4.532  0.00  0.00    +0.328 C 
BRANCH  17  18
ATOM     18  O   UNL     1       0.075  -1.871  -5.434  0.00  0.00    -0.451 OA
BRANCH  18  19
ATOM     19  C   UNL     1       0.803  -1.727  -6.559  0.00  0.00    +0.360 C 
ATOM     20  O   UNL     1       1.400  -0.691  -6.768  0.00  0.00    -0.243 OA
BRANCH  19  21
ATOM     21  C   UNL     1       0.875  -2.833  -7.539  0.00  0.00    +0.169 A 
ATOM     22  C   UNL     1       1.633  -2.680  -8.697  0.00  0.00    +0.095 A 
ATOM     23  C   UNL     1       1.691  -3.733  -9.611  0.00  0.00    +0.067 A 
ATOM     24  C   UNL     1       0.982  -4.898  -9.324  0.00  0.00    +0.100 A 
ATOM     25  C   UNL     1       0.249  -4.974  -8.150  0.00  0.00    +0.150 A 
ATOM     26  N   UNL     1       0.219  -3.965  -7.304  0.00  0.00    -0.226 NA
ATOM     27 CL   UNL     1      -0.635  -6.422  -7.786  0.00  0.00    -0.060 Cl
ATOM     28 CL   UNL     1       1.017  -6.240 -10.425  0.00  0.00    -0.078 Cl
ATOM     29 CL   UNL     1       2.493  -1.203  -8.998  0.00  0.00    -0.079 Cl
BRANCH  23  30
ATOM     30  N   UNL     1       2.438  -3.621 -10.782  0.00  0.00    -0.356 N 
ATOM     31  H   UNL     1       2.926  -2.804 -10.970  0.00  0.00    +0.142 HD
ATOM     32  H   UNL     1       2.469  -4.361 -11.409  0.00  0.00    +0.142 HD
ENDBRANCH  23  30
ENDBRANCH  19  21
ENDBRANCH  18  19
ENDBRANCH  17  18
ENDBRANCH   2  17
TORSDOF 8
