REMARK  Name = ZINC34828532
REMARK  10 active torsions:
REMARK  status: ('A' for Active; 'I' for Inactive)
REMARK    1  A    between atoms: C_3  and  C_38
REMARK    2  A    between atoms: C_5  and  N_7
REMARK    3  A    between atoms: N_10  and  C_11
REMARK    4  A    between atoms: N_10  and  C_18
REMARK    5  A    between atoms: C_11  and  C_12
REMARK    6  A    between atoms: C_18  and  C_19
REMARK    7  A    between atoms: N_21  and  C_22
REMARK    8  A    between atoms: N_21  and  C_32
REMARK    9  A    between atoms: C_22  and  C_23
REMARK   10  A    between atoms: C_32  and  C_33
REMARK                            x       y       z     vdW  Elec       q    Type
REMARK                         _______ _______ _______ _____ _____    ______ ____
ROOT
ATOM      1  C   UNL     1      -1.166  -4.862   0.301  0.00  0.00    +0.205 C 
ENDROOT
BRANCH   1   5
ATOM      2  N   UNL     1       1.225  -2.087  -0.021  0.00  0.00    -0.269 N 
ATOM      3  C   UNL     1       0.070  -2.772   0.088  0.00  0.00    +0.307 C 
ATOM      4  O   UNL     1      -0.991  -2.178   0.102  0.00  0.00    -0.252 OA
ATOM      5  N   UNL     1       0.090  -4.117   0.182  0.00  0.00    -0.274 N 
ATOM      6  H   UNL     1       2.067  -2.564  -0.098  0.00  0.00    +0.156 HD
BRANCH   2  11
ATOM      7  C   UNL     1       2.241   1.400   0.577  0.00  0.00    +0.003 A 
ATOM      8  C   UNL     1       1.201   2.089  -0.014  0.00  0.00    +0.019 A 
ATOM      9  C   UNL     1       0.154   1.390  -0.617  0.00  0.00    +0.054 A 
ATOM     10  C   UNL     1       0.163  -0.006  -0.618  0.00  0.00    +0.042 A 
ATOM     11  C   UNL     1       1.211  -0.688  -0.022  0.00  0.00    +0.036 A 
ATOM     12  C   UNL     1       2.249   0.018   0.575  0.00  0.00    +0.023 A 
BRANCH   9  13
ATOM     13  C   UNL     1      -0.926   2.102  -1.231  0.00  0.00    +0.099 C 
ATOM     14  N   UNL     1      -1.783   2.667  -1.718  0.00  0.00    -0.191 NA
ENDBRANCH   9  13
ENDBRANCH   2  11
BRANCH   5  15
ATOM     15  C   UNL     1       1.368  -4.833   0.166  0.00  0.00    +0.141 C 
BRANCH  15  16
ATOM     16  C   UNL     1       1.888  -4.981   1.598  0.00  0.00    +0.136 C 
ATOM     17  C   UNL     1       3.290  -5.627   1.581  0.00  0.00    +0.035 C 
ATOM     18  C   UNL     1       3.230  -6.576   2.809  0.00  0.00    +0.031 C 
ATOM     19  C   UNL     1       1.743  -7.011   2.772  0.00  0.00    +0.160 C 
ATOM     20  O   UNL     1       1.021  -5.843   2.343  0.00  0.00    -0.375 OA
ENDBRANCH  15  16
ENDBRANCH   5  15
ENDBRANCH   1   5
BRANCH   1  21
ATOM     21  C   UNL     1      -1.671  -5.218  -1.073  0.00  0.00    +0.234 C 
ATOM     22  O   UNL     1      -1.043  -4.882  -2.056  0.00  0.00    -0.274 OA
ATOM     23  N   UNL     1      -2.819  -5.909  -1.212  0.00  0.00    -0.289 N 
BRANCH  23  24
ATOM     24  C   UNL     1      -3.310  -6.254  -2.548  0.00  0.00    +0.143 C 
BRANCH  24  25
ATOM     25  C   UNL     1      -2.751  -7.592  -2.958  0.00  0.00    -0.026 A 
ATOM     26  C   UNL     1      -1.544  -7.659  -3.630  0.00  0.00    +0.009 A 
ATOM     27  C   UNL     1      -1.026  -8.884  -4.008  0.00  0.00    +0.050 A 
ATOM     28  C   UNL     1      -1.717 -10.049  -3.714  0.00  0.00    +0.166 A 
ATOM     29  C   UNL     1      -2.932  -9.982  -3.037  0.00  0.00    +0.167 A 
ATOM     30  C   UNL     1      -3.442  -8.751  -2.656  0.00  0.00    +0.054 A 
ATOM     31  O   UNL     1      -3.408 -11.250  -2.869  0.00  0.00    -0.453 OA
ATOM     32  C   UNL     1      -2.677 -12.062  -3.806  0.00  0.00    +0.466 C 
ATOM     33  O   UNL     1      -1.432 -11.358  -3.970  0.00  0.00    -0.453 OA
ENDBRANCH  24  25
ENDBRANCH  23  24
BRANCH  23  34
ATOM     34  C   UNL     1      -3.577  -6.314  -0.025  0.00  0.00    +0.182 C 
BRANCH  34  35
ATOM     35  C   UNL     1      -4.565  -5.234   0.333  0.00  0.00    +0.122 A 
ATOM     36  C   UNL     1      -5.830  -5.145  -0.115  0.00  0.00    +0.046 A 
ATOM     37  C   UNL     1      -6.391  -3.986   0.471  0.00  0.00    +0.041 A 
ATOM     38  C   UNL     1      -5.435  -3.437   1.241  0.00  0.00    +0.195 A 
ATOM     39  O   UNL     1      -4.333  -4.200   1.159  0.00  0.00    -0.466 OA
ENDBRANCH  34  35
ENDBRANCH  23  34
ENDBRANCH   1  21
TORSDOF 10
