REMARK  Name = ZINC63140652
REMARK  12 active torsions:
REMARK  status: ('A' for Active; 'I' for Inactive)
REMARK    1  A    between atoms: C_1  and  C_2
REMARK    2  A    between atoms: C_2  and  C_3
REMARK    3  A    between atoms: C_3  and  C_4
REMARK    4  A    between atoms: C_4  and  O_5
REMARK    5  A    between atoms: O_5  and  C_6
REMARK    6  A    between atoms: C_6  and  C_7
REMARK    7  A    between atoms: C_7  and  C_8
REMARK    8  A    between atoms: C_8  and  N_9
REMARK    9  A    between atoms: C_29  and  C_31
REMARK   10  A    between atoms: C_36  and  O_37
REMARK   11  A    between atoms: O_37  and  C_38
REMARK   12  A    between atoms: C_38  and  C_39
REMARK                            x       y       z     vdW  Elec       q    Type
REMARK                         _______ _______ _______ _____ _____    ______ ____
ROOT
ATOM      1  N   UNL     1       2.960  -6.026  -5.158  0.00  0.00    -0.291 N 
ATOM      2  C   UNL     1       2.230  -6.223  -6.424  0.00  0.00    +0.203 C 
ATOM      3  C   UNL     1       3.004  -5.548  -7.536  0.00  0.00    +0.234 C 
ATOM      4  O   UNL     1       2.449  -4.874  -8.378  0.00  0.00    -0.274 OA
ATOM      5  N   UNL     1       4.365  -5.734  -7.547  0.00  0.00    -0.279 N 
ATOM      6  C   UNL     1       4.879  -6.626  -6.529  0.00  0.00    +0.167 C 
ATOM      7  C   UNL     1       4.308  -6.241  -5.188  0.00  0.00    +0.237 C 
ATOM      8  O   UNL     1       5.002  -6.132  -4.199  0.00  0.00    -0.274 OA
ATOM      9  C   UNL     1       6.366  -6.865  -6.472  0.00  0.00    +0.065 C 
ATOM     10  C   UNL     1       7.073  -5.909  -7.394  0.00  0.00    -0.034 C 
ATOM     11  C   UNL     1       8.195  -5.215  -7.264  0.00  0.00    -0.001 A 
ATOM     12  C   UNL     1       9.192  -5.155  -6.183  0.00  0.00    +0.010 A 
ATOM     13  C   UNL     1      10.240  -4.311  -6.378  0.00  0.00    +0.001 A 
ATOM     14  C   UNL     1      10.394  -3.530  -7.527  0.00  0.00    +0.002 A 
ATOM     15  C   UNL     1       9.529  -3.525  -8.572  0.00  0.00    +0.026 A 
ATOM     16  C   UNL     1       8.389  -4.375  -8.485  0.00  0.00    +0.043 A 
ATOM     17  N   UNL     1       7.422  -4.573  -9.330  0.00  0.00    -0.375 N 
ATOM     18  C   UNL     1       6.507  -5.577  -8.772  0.00  0.00    +0.131 C 
ATOM     19  C   UNL     1       5.127  -4.984  -8.535  0.00  0.00    +0.137 C 
ATOM     20  H   UNL     1       7.321  -4.130 -10.187  0.00  0.00    +0.160 HD
ENDROOT
BRANCH  19  21
ATOM     21  C   UNL     1       4.350  -4.944  -9.826  0.00  0.00    +0.017 A 
ATOM     22  C   UNL     1       4.191  -3.750 -10.502  0.00  0.00    +0.009 A 
ATOM     23  C   UNL     1       3.478  -3.713 -11.686  0.00  0.00    +0.001 A 
ATOM     24  C   UNL     1       2.924  -4.872 -12.198  0.00  0.00    +0.004 A 
ATOM     25  C   UNL     1       3.081  -6.069 -11.527  0.00  0.00    +0.046 A 
ATOM     26  C   UNL     1       3.800  -6.109 -10.341  0.00  0.00    +0.125 A 
BRANCH  26  27
ATOM     27  O   UNL     1       3.960  -7.287  -9.681  0.00  0.00    -0.492 OA
BRANCH  27  28
ATOM     28  C   UNL     1       3.366  -8.446 -10.270  0.00  0.00    +0.225 C 
ATOM     29  C   UNL     1       3.650  -9.666  -9.392  0.00  0.00    +0.048 C 
ENDBRANCH  27  28
ENDBRANCH  26  27
ENDBRANCH  19  21
BRANCH   1  30
ATOM     30  C   UNL     1       2.274  -5.613  -3.931  0.00  0.00    +0.110 C 
BRANCH  30  31
ATOM     31  C   UNL     1       2.248  -4.085  -3.850  0.00  0.00    +0.047 C 
BRANCH  31  32
ATOM     32  C   UNL     1       1.532  -3.655  -2.569  0.00  0.00    +0.161 C 
BRANCH  32  33
ATOM     33  O   UNL     1       1.508  -2.228  -2.493  0.00  0.00    -0.380 OA
BRANCH  33  34
ATOM     34  C   UNL     1       0.857  -1.718  -1.327  0.00  0.00    +0.160 C 
BRANCH  34  35
ATOM     35  C   UNL     1       0.891  -0.189  -1.351  0.00  0.00    +0.028 C 
BRANCH  35  37
ATOM     36  C   UNL     1       0.229   1.886  -0.127  0.00  0.00    +0.004 C 
ATOM     37  C   UNL     1       0.195   0.356  -0.103  0.00  0.00    -0.001 C 
ENDBRANCH  35  37
ENDBRANCH  34  35
ENDBRANCH  33  34
ENDBRANCH  32  33
ENDBRANCH  31  32
ENDBRANCH  30  31
ENDBRANCH   1  30
TORSDOF 10
