REMARK  Name = ZINC11499090
REMARK  11 active torsions:
REMARK  status: ('A' for Active; 'I' for Inactive)
REMARK    1  A    between atoms: C_1  and  C_2
REMARK    2  A    between atoms: C_2  and  C_4
REMARK    3  A    between atoms: C_2  and  O_16
REMARK    4  A    between atoms: N_6  and  C_7
REMARK    5  A    between atoms: C_11  and  N_13
REMARK    6  A    between atoms: O_16  and  C_17
REMARK    7  A    between atoms: C_17  and  C_19
REMARK    8  A    between atoms: C_23  and  S_25
REMARK    9  A    between atoms: S_25  and  N_28
REMARK   10  A    between atoms: N_28  and  C_29
REMARK   11  A    between atoms: N_28  and  C_30
REMARK                            x       y       z     vdW  Elec       q    Type
REMARK                         _______ _______ _______ _____ _____    ______ ____
ROOT
ATOM      1  C   UNL     1       4.415   4.991   0.001  0.00  0.00    +0.340 C 
ATOM      2  O   UNL     1       4.715   4.666   1.132  0.00  0.00    -0.245 OA
ENDROOT
BRANCH   1   3
ATOM      3  C   UNL     1       4.588   4.036  -1.113  0.00  0.00    +0.061 A 
ATOM      4  C   UNL     1       4.240   4.405  -2.414  0.00  0.00    +0.015 A 
ATOM      5  C   UNL     1       4.399   3.506  -3.448  0.00  0.00    +0.003 A 
ATOM      6  C   UNL     1       4.902   2.242  -3.199  0.00  0.00    +0.029 A 
ATOM      7  C   UNL     1       5.250   1.870  -1.912  0.00  0.00    +0.109 A 
ATOM      8  C   UNL     1       5.096   2.759  -0.869  0.00  0.00    +0.043 A 
BRANCH   7   9
ATOM      9  S   UNL     1       5.889   0.257  -1.606  0.00  0.00    +0.074 S 
ATOM     10  O   UNL     1       6.344  -0.244  -2.856  0.00  0.00    -0.150 OA
ATOM     11  O   UNL     1       6.741   0.366  -0.474  0.00  0.00    -0.150 OA
BRANCH   9  12
ATOM     12  N   UNL     1       4.615  -0.697  -1.150  0.00  0.00    -0.206 N 
ATOM     13  C   UNL     1       4.175  -0.713   0.248  0.00  0.00    +0.157 C 
BRANCH  12  14
ATOM     14  C   UNL     1       3.959  -1.486  -2.097  0.00  0.00    +0.051 A 
ATOM     15  C   UNL     1       3.264  -0.888  -3.141  0.00  0.00    +0.025 A 
ATOM     16  C   UNL     1       2.620  -1.671  -4.078  0.00  0.00    +0.002 A 
ATOM     17  C   UNL     1       2.659  -3.050  -3.974  0.00  0.00    +0.000 A 
ATOM     18  C   UNL     1       3.345  -3.648  -2.933  0.00  0.00    +0.002 A 
ATOM     19  C   UNL     1       3.995  -2.871  -1.995  0.00  0.00    +0.025 A 
ENDBRANCH  12  14
ENDBRANCH   9  12
ENDBRANCH   7   9
ENDBRANCH   1   3
BRANCH   1  20
ATOM     20  O   UNL     1       3.925   6.223  -0.238  0.00  0.00    -0.449 OA
BRANCH  20  22
ATOM     21  C   UNL     1       2.393   6.929   1.517  0.00  0.00    +0.062 C 
ATOM     22  C   UNL     1       3.782   7.109   0.903  0.00  0.00    +0.259 C 
BRANCH  22  23
ATOM     23  C   UNL     1       3.952   8.538   0.455  0.00  0.00    +0.258 C 
ATOM     24  O   UNL     1       4.081   8.792  -0.724  0.00  0.00    -0.271 OA
ATOM     25  N   UNL     1       3.960   9.533   1.364  0.00  0.00    -0.282 N 
ATOM     26  H   UNL     1       3.792   9.337   2.299  0.00  0.00    +0.155 HD
BRANCH  25  27
ATOM     27  C   UNL     1       4.210  10.848   0.959  0.00  0.00    +0.036 A 
ATOM     28  C   UNL     1       3.729  11.305  -0.262  0.00  0.00    +0.023 A 
ATOM     29  C   UNL     1       3.978  12.604  -0.658  0.00  0.00    +0.004 A 
ATOM     30  C   UNL     1       4.706  13.450   0.158  0.00  0.00    +0.033 A 
ATOM     31  C   UNL     1       5.187  12.999   1.373  0.00  0.00    +0.128 A 
ATOM     32  C   UNL     1       4.936  11.703   1.779  0.00  0.00    +0.056 A 
BRANCH  31  33
ATOM     33  N   UNL     1       5.965  13.908   2.244  0.00  0.00    +0.056 N 
ATOM     34  O   UNL     1       6.182  15.053   1.890  0.00  0.00    -0.126 OA
ATOM     35  O   UNL     1       6.388  13.512   3.315  0.00  0.00    -0.126 OA
ENDBRANCH  31  33
ENDBRANCH  25  27
ENDBRANCH  22  23
ENDBRANCH  20  22
ENDBRANCH   1  20
TORSDOF 9
