REMARK  Name = ZINC25045614
REMARK  9 active torsions:
REMARK  status: ('A' for Active; 'I' for Inactive)
REMARK    1  A    between atoms: C_1  and  C_2
REMARK    2  A    between atoms: C_4  and  C_32
REMARK    3  A    between atoms: C_5  and  N_9
REMARK    4  A    between atoms: C_12  and  C_15
REMARK    5  A    between atoms: C_15  and  S_16
REMARK    6  A    between atoms: S_16  and  C_17
REMARK    7  A    between atoms: N_21  and  C_22
REMARK    8  A    between atoms: C_25  and  O_28
REMARK    9  A    between atoms: C_29  and  C_31
REMARK                            x       y       z     vdW  Elec       q    Type
REMARK                         _______ _______ _______ _____ _____    ______ ____
ROOT
ATOM      1  N   UNL     1       1.270   3.394   0.008  0.00  0.00    -0.217 N 
ATOM      2  C   UNL     1       1.103   2.013   0.002  0.00  0.00    +0.172 A 
ATOM      3  N   UNL     1      -0.016   1.314   0.007  0.00  0.00    -0.228 NA
ATOM      4  C   UNL     1       0.003  -0.004  -0.002  0.00  0.00    +0.061 A 
ATOM      5  C   UNL     1       1.203  -0.634  -0.016  0.00  0.00    +0.072 A 
ATOM      6  S   UNL     1       2.312   0.767  -0.017  0.00  0.00    -0.060 S 
ATOM      7  C   UNL     1       0.197   4.204  -0.080  0.00  0.00    +0.223 C 
ATOM      8  O   UNL     1      -0.921   3.732  -0.073  0.00  0.00    -0.275 OA
ATOM      9  C   UNL     1       0.384   5.695  -0.188  0.00  0.00    +0.110 C 
ENDROOT
BRANCH   1  14
ATOM     10  C   UNL     1       6.477   5.619   0.409  0.00  0.00    +0.044 C 
ATOM     11  C   UNL     1       5.094   5.028   0.302  0.00  0.00    -0.049 A 
ATOM     12  C   UNL     1       4.367   4.762   1.448  0.00  0.00    +0.008 A 
ATOM     13  C   UNL     1       3.097   4.227   1.354  0.00  0.00    -0.027 A 
ATOM     14  C   UNL     1       2.556   3.943   0.107  0.00  0.00    +0.064 A 
ATOM     15  C   UNL     1       3.289   4.210  -1.043  0.00  0.00    +0.063 A 
ATOM     16  C   UNL     1       4.557   4.752  -0.941  0.00  0.00    +0.025 A 
ATOM     17 CL   UNL     1       2.614   3.864  -2.604  0.00  0.00    -0.082 Cl
ATOM     18  C   UNL     1       2.303   3.944   2.603  0.00  0.00    +0.046 C 
ENDBRANCH   1  14
BRANCH   4  19
ATOM     19  C   UNL     1      -1.282  -0.793   0.004  0.00  0.00    +0.133 C 
BRANCH  19  20
ATOM     20  S   UNL     1      -1.810  -1.097  -1.700  0.00  0.00    -0.078 S 
BRANCH  20  21
ATOM     21  C   UNL     1      -3.289  -2.009  -1.404  0.00  0.00    +0.214 A 
ATOM     22  N   UNL     1      -3.788  -2.329  -0.230  0.00  0.00    -0.101 NA
ATOM     23  N   UNL     1      -4.877  -2.996  -0.370  0.00  0.00    -0.022 NA
ATOM     24  N   UNL     1      -5.151  -3.150  -1.620  0.00  0.00    -0.038 NA
ATOM     25  N   UNL     1      -4.131  -2.508  -2.343  0.00  0.00    -0.187 N 
BRANCH  25  26
ATOM     26  C   UNL     1      -4.008  -2.408  -3.738  0.00  0.00    +0.070 A 
ATOM     27  C   UNL     1      -3.477  -1.258  -4.307  0.00  0.00    +0.031 A 
ATOM     28  C   UNL     1      -3.352  -1.162  -5.679  0.00  0.00    +0.047 A 
ATOM     29  C   UNL     1      -3.766  -2.210  -6.489  0.00  0.00    +0.117 A 
ATOM     30  C   UNL     1      -4.301  -3.357  -5.920  0.00  0.00    +0.047 A 
ATOM     31  C   UNL     1      -4.422  -3.456  -4.548  0.00  0.00    +0.031 A 
BRANCH  29  32
ATOM     32  O   UNL     1      -3.648  -2.112  -7.839  0.00  0.00    -0.507 OA
ATOM     33  H   UNL     1      -3.976  -2.943  -8.482  0.00  0.00    +0.292 HD
ENDBRANCH  29  32
ENDBRANCH  25  26
ENDBRANCH  20  21
ENDBRANCH  19  20
ENDBRANCH   4  19
TORSDOF 6
