REMARK  Name = ZINC63541101
REMARK  9 active torsions:
REMARK  status: ('A' for Active; 'I' for Inactive)
REMARK    1  A    between atoms: C_1  and  C_2
REMARK    2  A    between atoms: C_2  and  N_3
REMARK    3  A    between atoms: C_5  and  C_8
REMARK    4  A    between atoms: N_9  and  N_10
REMARK    5  A    between atoms: C_11  and  C_13
REMARK    6  A    between atoms: C_13  and  C_30
REMARK    7  A    between atoms: C_16  and  C_21
REMARK    8  A    between atoms: C_18  and  C_19
REMARK    9  A    between atoms: C_18  and  C_20
REMARK                            x       y       z     vdW  Elec       q    Type
REMARK                         _______ _______ _______ _____ _____    ______ ____
ROOT
ATOM      1  C   UNL     1       2.807  -4.203   8.344  0.00  0.00    +0.051 C 
ATOM      2  C   UNL     1       1.758  -3.809   9.405  0.00  0.00    +0.017 C 
ATOM      3  C   UNL     1       2.591  -3.165  10.541  0.00  0.00    +0.009 C 
ATOM      4  C   UNL     1       3.867  -4.043  10.570  0.00  0.00    +0.038 C 
ATOM      5  C   UNL     1       4.147  -4.351   9.085  0.00  0.00    -0.015 C 
ATOM      6  C   UNL     1       4.673  -5.781   8.936  0.00  0.00    +0.012 C 
ATOM      7  C   UNL     1       5.167  -3.357   8.526  0.00  0.00    +0.012 C 
ATOM      8  C   UNL     1       2.419  -5.531   7.691  0.00  0.00    +0.021 C 
ENDROOT
BRANCH   4   9
ATOM      9  C   UNL     1       5.034  -3.271  11.189  0.00  0.00    +0.178 C 
ATOM     10  N   UNL     1       6.228  -4.123  11.246  0.00  0.00    -0.363 N 
ATOM     11  C   UNL     1       6.564  -4.241  12.498  0.00  0.00    +0.060 A 
ATOM     12  C   UNL     1       7.654  -4.956  13.177  0.00  0.00    +0.027 A 
ATOM     13  C   UNL     1       7.753  -4.895  14.520  0.00  0.00    +0.002 A 
ATOM     14  C   UNL     1       6.850  -4.167  15.316  0.00  0.00    +0.002 A 
ATOM     15  C   UNL     1       5.816  -3.476  14.794  0.00  0.00    +0.027 A 
ATOM     16  C   UNL     1       5.609  -3.470  13.340  0.00  0.00    +0.060 A 
ATOM     17  N   UNL     1       4.719  -2.906  12.575  0.00  0.00    -0.363 N 
ATOM     18  H   UNL     1       6.683  -4.526  10.490  0.00  0.00    +0.162 HD
ATOM     19  H   UNL     1       3.982  -2.347  12.868  0.00  0.00    +0.162 HD
ENDBRANCH   4   9
BRANCH   1  21
ATOM     20  N   UNL     1       3.692  -3.310   6.214  0.00  0.00    -0.207 N 
ATOM     21  C   UNL     1       2.912  -3.124   7.297  0.00  0.00    +0.239 C 
ATOM     22  O   UNL     1       2.293  -2.089   7.429  0.00  0.00    -0.273 OA
ATOM     23  H   UNL     1       4.242  -4.106   6.143  0.00  0.00    +0.177 HD
BRANCH  20  25
ATOM     24  C   UNL     1       4.462  -2.531   4.149  0.00  0.00    +0.141 C 
ATOM     25  N   UNL     1       3.711  -2.353   5.192  0.00  0.00    -0.188 NA
BRANCH  24  28
ATOM     26  N   UNL     1       4.952  -0.466   1.205  0.00  0.00    -0.271 N 
ATOM     27  C   UNL     1       5.226  -1.579   1.913  0.00  0.00    +0.117 A 
ATOM     28  C   UNL     1       4.481  -1.523   3.072  0.00  0.00    +0.032 A 
ATOM     29  C   UNL     1       3.740  -0.322   3.036  0.00  0.00    +0.143 A 
ATOM     30  N   UNL     1       4.030   0.301   1.926  0.00  0.00    -0.179 NA
BRANCH  26  32
ATOM     31  C   UNL     1       4.399   0.150  -1.097  0.00  0.00    +0.029 C 
ATOM     32  C   UNL     1       5.526  -0.116  -0.097  0.00  0.00    +0.140 C 
ENDBRANCH  26  32
ENDBRANCH  24  28
ENDBRANCH  20  25
ENDBRANCH   1  21
TORSDOF 5
