REMARK  Name = ZINC16938591
REMARK  10 active torsions:
REMARK  status: ('A' for Active; 'I' for Inactive)
REMARK    1  A    between atoms: C_1  and  C_2
REMARK    2  A    between atoms: C_5  and  C_8
REMARK    3  A    between atoms: C_8  and  N_9
REMARK    4  A    between atoms: C_10  and  C_12
REMARK    5  A    between atoms: C_12  and  C_14
REMARK    6  A    between atoms: C_12  and  S_15
REMARK    7  A    between atoms: S_15  and  C_16
REMARK    8  A    between atoms: C_19  and  C_28
REMARK    9  A    between atoms: N_20  and  C_21
REMARK   10  A    between atoms: C_28  and  N_63
REMARK                            x       y       z     vdW  Elec       q    Type
REMARK                         _______ _______ _______ _____ _____    ______ ____
ROOT
ATOM      1  C   UNL     1       2.375   6.006   0.639  0.00  0.00    +0.197 A 
ATOM      2  N   UNL     1       1.238   6.586   0.332  0.00  0.00    -0.122 NA
ATOM      3  N   UNL     1       1.339   7.857   0.487  0.00  0.00    -0.135 NA
ATOM      4  C   UNL     1       2.536   8.166   0.899  0.00  0.00    +0.122 A 
ATOM      5  N   UNL     1       3.240   6.997   1.017  0.00  0.00    -0.276 N 
ENDROOT
BRANCH   5   6
ATOM      6  C   UNL     1       4.571   6.847   1.435  0.00  0.00    +0.050 A 
ATOM      7  C   UNL     1       4.933   7.179   2.733  0.00  0.00    +0.029 A 
ATOM      8  C   UNL     1       6.242   7.027   3.144  0.00  0.00    +0.040 A 
ATOM      9  C   UNL     1       7.196   6.552   2.260  0.00  0.00    +0.124 A 
ATOM     10  C   UNL     1       6.838   6.224   0.963  0.00  0.00    +0.040 A 
ATOM     11  C   UNL     1       5.528   6.371   0.549  0.00  0.00    +0.029 A 
ATOM     12  F   UNL     1       8.478   6.408   2.662  0.00  0.00    -0.205 F 
ENDBRANCH   5   6
BRANCH   1  13
ATOM     13  S   UNL     1       2.720   4.279   0.583  0.00  0.00    -0.073 S 
BRANCH  13  14
ATOM     14  C   UNL     1       1.120   3.657   0.011  0.00  0.00    +0.137 C 
ATOM     15  C   UNL     1       0.849   4.171  -1.404  0.00  0.00    +0.029 C 
BRANCH  14  17
ATOM     16  N   UNL     1      -0.018   1.461   0.010  0.00  0.00    -0.310 N 
ATOM     17  C   UNL     1       1.140   2.151   0.003  0.00  0.00    +0.226 C 
ATOM     18  O   UNL     1       2.199   1.558  -0.011  0.00  0.00    -0.275 OA
ATOM     19  H   UNL     1      -0.864   1.934   0.017  0.00  0.00    +0.149 HD
BRANCH  16  20
ATOM     20  C   UNL     1       0.002  -0.004   0.002  0.00  0.00    +0.139 C 
BRANCH  20  25
ATOM     21  C   UNL     1      -5.419  -2.005   0.043  0.00  0.00    +0.044 C 
ATOM     22  C   UNL     1      -4.005  -1.483   0.032  0.00  0.00    -0.050 A 
ATOM     23  C   UNL     1      -3.369  -1.237  -1.170  0.00  0.00    +0.003 A 
ATOM     24  C   UNL     1      -2.072  -0.758  -1.179  0.00  0.00    +0.005 A 
ATOM     25  C   UNL     1      -1.412  -0.526   0.013  0.00  0.00    -0.030 A 
ATOM     26  C   UNL     1      -2.047  -0.777   1.215  0.00  0.00    +0.005 A 
ATOM     27  C   UNL     1      -3.345  -1.251   1.224  0.00  0.00    +0.003 A 
ENDBRANCH  20  25
ENDBRANCH  16  20
ENDBRANCH  14  17
ENDBRANCH  13  14
ENDBRANCH   1  13
BRANCH   4  28
ATOM     28  C   UNL     1       3.049   9.551   1.197  0.00  0.00    -0.001 C 
BRANCH  28  34
ATOM     29  C   UNL     1       1.355   9.964   2.876  0.00  0.00    -0.078 C 
ATOM     30  C   UNL     1       1.125  10.157   4.377  0.00  0.00    -0.019 C 
ATOM     31  C   UNL     1       1.830  11.437   4.836  0.00  0.00    -0.004 C 
ATOM     32  C   UNL     1       3.321  11.337   4.501  0.00  0.00    -0.019 C 
ATOM     33  C   UNL     1       3.486  11.110   2.997  0.00  0.00    -0.078 C 
ATOM     34  N   UNL     1       2.807   9.851   2.623  0.00  0.00    +0.384 N 
ATOM     35  H   UNL     1       3.185   9.087   3.194  0.00  0.00    -0.081 HD
ENDBRANCH  28  34
ENDBRANCH   4  28
TORSDOF 8
