REMARK  Name = ZINC13040358
REMARK  5 active torsions:
REMARK  status: ('A' for Active; 'I' for Inactive)
REMARK    1  A    between atoms: C_1  and  C_2
REMARK    2  A    between atoms: C_7  and  C_8
REMARK    3  A    between atoms: C_7  and  N_66
REMARK    4  A    between atoms: N_23  and  C_26
REMARK    5  A    between atoms: C_31  and  O_32
REMARK                            x       y       z     vdW  Elec       q    Type
REMARK                         _______ _______ _______ _____ _____    ______ ____
ROOT
ATOM      1  C   UNL     1      -6.019  -4.280  -0.934  0.00  0.00    +0.116 A 
ATOM      2  N   UNL     1      -4.875  -3.619  -0.908  0.00  0.00    -0.219 NA
ATOM      3  C   UNL     1      -3.986  -3.787   0.058  0.00  0.00    +0.133 A 
ATOM      4  C   UNL     1      -4.268  -4.712   1.101  0.00  0.00    +0.051 A 
ATOM      5  C   UNL     1      -3.439  -5.055   2.268  0.00  0.00    -0.025 A 
ATOM      6  C   UNL     1      -3.940  -5.962   3.122  0.00  0.00    -0.004 A 
ATOM      7  S   UNL     1      -5.522  -6.411   2.446  0.00  0.00    -0.073 S 
ATOM      8  C   UNL     1      -5.506  -5.372   1.010  0.00  0.00    +0.114 A 
ATOM      9  N   UNL     1      -6.336  -5.146   0.009  0.00  0.00    -0.227 NA
ATOM     10  C   UNL     1      -3.009  -6.234   4.273  0.00  0.00    +0.043 C 
ATOM     11  C   UNL     1      -2.022  -5.045   4.263  0.00  0.00    +0.010 C 
ATOM     12  C   UNL     1      -2.065  -4.617   2.783  0.00  0.00    +0.037 C 
ATOM     13  N   UNL     1      -2.798  -3.077   0.051  0.00  0.00    -0.312 N 
ATOM     14  C   UNL     1      -1.994  -3.407  -1.134  0.00  0.00    +0.125 C 
ATOM     15  C   UNL     1      -0.658  -2.664  -1.064  0.00  0.00    +0.124 C 
ATOM     16  N   UNL     1      -0.909  -1.218  -0.987  0.00  0.00    -0.324 N 
ATOM     17  C   UNL     1      -1.713  -0.888   0.198  0.00  0.00    +0.124 C 
ATOM     18  C   UNL     1      -3.049  -1.631   0.128  0.00  0.00    +0.125 C 
ENDROOT
BRANCH  16  19
ATOM     19  C   UNL     1       0.292  -0.500  -0.995  0.00  0.00    +0.072 A 
ATOM     20  C   UNL     1       1.232  -0.707   0.005  0.00  0.00    +0.027 A 
ATOM     21  C   UNL     1       2.418   0.003  -0.005  0.00  0.00    +0.002 A 
ATOM     22  C   UNL     1       2.671   0.920  -1.009  0.00  0.00    +0.004 A 
ATOM     23  C   UNL     1       1.739   1.132  -2.007  0.00  0.00    +0.047 A 
ATOM     24  C   UNL     1       0.548   0.424  -2.005  0.00  0.00    +0.138 A 
BRANCH  24  25
ATOM     25  O   UNL     1      -0.368   0.627  -2.990  0.00  0.00    -0.505 OA
ATOM     26  H   UNL     1      -1.012   1.320  -2.792  0.00  0.00    +0.292 HD
ENDBRANCH  24  25
ENDBRANCH  16  19
BRANCH   1  27
ATOM     27  C   UNL     1      -6.983  -4.038  -2.066  0.00  0.00    -0.001 C 
BRANCH  27  34
ATOM     28  C   UNL     1      -6.672  -8.108  -6.067  0.00  0.00    +0.007 C 
ATOM     29  C   UNL     1      -7.133  -7.243  -4.892  0.00  0.00    -0.018 C 
ATOM     30  C   UNL     1      -7.352  -5.805  -5.371  0.00  0.00    -0.016 C 
ATOM     31  C   UNL     1      -7.753  -4.932  -4.180  0.00  0.00    -0.078 C 
ATOM     32  C   UNL     1      -6.500  -6.336  -2.654  0.00  0.00    -0.078 C 
ATOM     33  C   UNL     1      -6.061  -7.252  -3.799  0.00  0.00    -0.016 C 
ATOM     34  N   UNL     1      -6.670  -4.963  -3.175  0.00  0.00    +0.384 N 
ATOM     35  H   UNL     1      -5.794  -4.665  -3.620  0.00  0.00    -0.081 HD
ENDBRANCH  27  34
ENDBRANCH   1  27
TORSDOF 4
