REMARK  Name = ZINC62872191
REMARK  4 active torsions:
REMARK  status: ('A' for Active; 'I' for Inactive)
REMARK    1  A    between atoms: C_1  and  C_2
REMARK    2  A    between atoms: C_2  and  C_3
REMARK    3  A    between atoms: C_3  and  C_20
REMARK    4  A    between atoms: N_11  and  C_12
REMARK                            x       y       z     vdW  Elec       q    Type
REMARK                         _______ _______ _______ _____ _____    ______ ____
ROOT
ATOM      1  C   UNL     1       0.721  -0.494  -1.261  0.00  0.00    +0.087 C 
ATOM      2  C   UNL     1       0.738  -2.024  -1.267  0.00  0.00    +0.021 C 
ATOM      3  C   UNL     1      -0.698  -2.552  -1.218  0.00  0.00    +0.020 C 
ATOM      4  C   UNL     1      -1.457  -2.072  -2.459  0.00  0.00    +0.109 C 
ATOM      5  N   UNL     1      -1.354  -0.609  -2.540  0.00  0.00    -0.285 N 
ATOM      6  C   UNL     1      -0.022   0.009  -2.502  0.00  0.00    +0.127 C 
ATOM      7  C   UNL     1      -2.462   0.152  -2.646  0.00  0.00    +0.302 C 
ATOM      8  O   UNL     1      -2.372   1.364  -2.616  0.00  0.00    -0.253 OA
ATOM      9  N   UNL     1      -3.669  -0.431  -2.785  0.00  0.00    -0.295 N 
ATOM     10  H   UNL     1      -3.750  -1.396  -2.736  0.00  0.00    +0.151 HD
ENDROOT
BRANCH   9  11
ATOM     11  C   UNL     1      -4.859   0.394  -3.009  0.00  0.00    +0.097 C 
ATOM     12  C   UNL     1      -5.436   0.852  -1.659  0.00  0.00    +0.046 C 
ATOM     13  C   UNL     1      -6.852   1.443  -1.864  0.00  0.00    +0.168 C 
ATOM     14  S   UNL     1      -7.451   0.549  -3.356  0.00  0.00    -0.029 S 
ATOM     15  O   UNL     1      -7.668   1.487  -4.401  0.00  0.00    -0.174 OA
ATOM     16  O   UNL     1      -8.500  -0.331  -2.977  0.00  0.00    -0.174 OA
ATOM     17  C   UNL     1      -5.947  -0.442  -3.743  0.00  0.00    +0.188 C 
ENDBRANCH   9  11
BRANCH   1  18
ATOM     18  C   UNL     1       2.135   0.026  -1.276  0.00  0.00    +0.364 C 
ATOM     19  O   UNL     1       2.536   0.729  -0.364  0.00  0.00    -0.246 OA
ATOM     20  O   UNL     1       2.879  -0.258  -2.199  0.00  0.00    -0.246 OA
ENDBRANCH   1  18
BRANCH   1  22
ATOM     21  C   UNL     1      -0.013   1.534   0.001  0.00  0.00    +0.005 C 
ATOM     22  C   UNL     1       0.007   0.004  -0.002  0.00  0.00    +0.016 C 
ENDBRANCH   1  22
TORSDOF 3
