REMARK  Name = ZINC10687231
REMARK  11 active torsions:
REMARK  status: ('A' for Active; 'I' for Inactive)
REMARK    1  A    between atoms: C_1  and  C_2
REMARK    2  A    between atoms: C_2  and  O_3
REMARK    3  A    between atoms: O_3  and  C_4
REMARK    4  A    between atoms: C_12  and  N_17
REMARK    5  A    between atoms: C_13  and  C_14
REMARK    6  A    between atoms: C_18  and  C_20
REMARK    7  A    between atoms: C_20  and  C_21
REMARK    8  A    between atoms: C_21  and  C_22
REMARK    9  A    between atoms: C_22  and  S_23
REMARK   10  A    between atoms: S_23  and  C_26
REMARK   11  A    between atoms: C_26  and  C_27
REMARK                            x       y       z     vdW  Elec       q    Type
REMARK                         _______ _______ _______ _____ _____    ______ ____
ROOT
ATOM      1  C   UNL     1      -1.361  15.181 -10.705  0.00  0.00    +0.403 C 
ATOM      2  O   UNL     1      -1.553  16.352 -10.964  0.00  0.00    -0.226 OA
ATOM      3  N   UNL     1      -0.519  14.840  -9.709  0.00  0.00    -0.262 N 
ATOM      4  C   UNL     1       0.182  15.863  -8.918  0.00  0.00    +0.116 C 
ATOM      5  C   UNL     1      -0.287  15.796  -7.464  0.00  0.00    +0.056 C 
ATOM      6  C   UNL     1      -0.260  14.347  -6.994  0.00  0.00    -0.020 A 
ATOM      7  C   UNL     1      -0.254  13.324  -7.875  0.00  0.00    +0.013 A 
ATOM      8  S   UNL     1      -0.225  11.863  -6.877  0.00  0.00    -0.076 S 
ATOM      9  C   UNL     1      -0.220  12.598  -5.308  0.00  0.00    +0.084 A 
ATOM     10  C   UNL     1      -0.247  13.955  -5.594  0.00  0.00    +0.068 A 
ATOM     11  C   UNL     1      -0.266  13.425  -9.371  0.00  0.00    +0.153 C 
ENDROOT
BRANCH  10  12
ATOM     12  C   UNL     1      -0.257  14.957  -4.524  0.00  0.00    +0.244 C 
ATOM     13  O   UNL     1       0.793  15.393  -4.088  0.00  0.00    -0.270 OA
ATOM     14  N   UNL     1      -1.429  15.396  -4.023  0.00  0.00    -0.325 N 
ATOM     15  H   UNL     1      -2.265  15.049  -4.371  0.00  0.00    +0.145 HD
ATOM     16  H   UNL     1      -1.435  16.059  -3.315  0.00  0.00    +0.145 HD
ENDBRANCH  10  12
BRANCH   9  17
ATOM     17  N   UNL     1      -0.200  11.979  -4.067  0.00  0.00    -0.279 N 
ATOM     18  C   UNL     1      -0.181  10.634  -3.985  0.00  0.00    +0.218 C 
ATOM     19  O   UNL     1      -0.181   9.964  -4.996  0.00  0.00    -0.275 OA
ATOM     20  H   UNL     1      -0.199  12.515  -3.258  0.00  0.00    +0.155 HD
BRANCH  18  21
ATOM     21  C   UNL     1      -0.159   9.962  -2.636  0.00  0.00    +0.098 C 
BRANCH  21  22
ATOM     22  C   UNL     1      -0.140   8.444  -2.823  0.00  0.00    +0.032 C 
BRANCH  22  23
ATOM     23  C   UNL     1      -0.117   7.761  -1.454  0.00  0.00    +0.167 C 
BRANCH  23  24
ATOM     24  S   UNL     1      -0.095   5.961  -1.676  0.00  0.00    -0.027 S 
ATOM     25  O   UNL     1       1.129   5.600  -2.301  0.00  0.00    -0.174 OA
ATOM     26  O   UNL     1      -1.321   5.567  -2.277  0.00  0.00    -0.174 OA
BRANCH  24  27
ATOM     27  C   UNL     1      -0.070   5.347   0.031  0.00  0.00    +0.201 C 
BRANCH  27  28
ATOM     28  C   UNL     1      -0.050   3.840   0.023  0.00  0.00    -0.027 A 
ATOM     29  C   UNL     1       1.156   3.165   0.008  0.00  0.00    +0.005 A 
ATOM     30  C   UNL     1       1.175   1.783   0.000  0.00  0.00    +0.000 A 
ATOM     31  C   UNL     1      -0.013   1.076   0.008  0.00  0.00    +0.000 A 
ATOM     32  C   UNL     1      -1.219   1.751   0.017  0.00  0.00    +0.000 A 
ATOM     33  C   UNL     1      -1.238   3.133   0.030  0.00  0.00    +0.005 A 
ENDBRANCH  27  28
ENDBRANCH  24  27
ENDBRANCH  23  24
ENDBRANCH  22  23
ENDBRANCH  21  22
ENDBRANCH  18  21
ENDBRANCH   9  17
BRANCH   1  34
ATOM     34  O   UNL     1      -1.990  14.223 -11.412  0.00  0.00    -0.451 OA
BRANCH  34  36
ATOM     35  C   UNL     1      -3.500  13.444 -13.157  0.00  0.00    +0.048 C 
ATOM     36  C   UNL     1      -2.882  14.664 -12.470  0.00  0.00    +0.230 C 
ENDBRANCH  34  36
ENDBRANCH   1  34
TORSDOF 10
