REMARK  Name = ZINC13064688
REMARK  13 active torsions:
REMARK  status: ('A' for Active; 'I' for Inactive)
REMARK    1  A    between atoms: C_1  and  C_2
REMARK    2  A    between atoms: C_2  and  C_3
REMARK    3  A    between atoms: C_3  and  C_5
REMARK    4  A    between atoms: C_3  and  N_69
REMARK    5  A    between atoms: N_9  and  C_10
REMARK    6  A    between atoms: C_16  and  C_17
REMARK    7  A    between atoms: C_16  and  N_69
REMARK    8  A    between atoms: C_17  and  C_18
REMARK    9  A    between atoms: C_18  and  O_19
REMARK   10  A    between atoms: C_20  and  C_21
REMARK   11  A    between atoms: C_20  and  N_69
REMARK   12  A    between atoms: C_25  and  C_34
REMARK   13  A    between atoms: C_26  and  C_33
REMARK                            x       y       z     vdW  Elec       q    Type
REMARK                         _______ _______ _______ _____ _____    ______ ____
ROOT
ATOM      1  N   UNL     1      -5.678   4.000  -1.516  0.00  0.00    +0.389 N 
ATOM      2  H   UNL     1      -4.947   4.320  -2.162  0.00  0.00    -0.080 HD
ENDROOT
BRANCH   1   3
ATOM      3  C   UNL     1      -6.841   4.907  -1.621  0.00  0.00    +0.003 C 
BRANCH   3   4
ATOM      4  C   UNL     1      -7.846   4.604  -0.540  0.00  0.00    +0.138 A 
ATOM      5  N   UNL     1      -7.612   4.528   0.747  0.00  0.00    -0.115 NA
ATOM      6  N   UNL     1      -8.723   4.251   1.338  0.00  0.00    -0.023 NA
ATOM      7  N   UNL     1      -9.660   4.148   0.461  0.00  0.00    -0.044 NA
ATOM      8  N   UNL     1      -9.160   4.364  -0.709  0.00  0.00    -0.228 N 
BRANCH   8   9
ATOM      9  C   UNL     1      -9.885   4.348  -1.982  0.00  0.00    +0.111 C 
ATOM     10  C   UNL     1     -10.987   5.409  -1.954  0.00  0.00    +0.027 C 
ATOM     11  C   UNL     1     -11.744   5.393  -3.283  0.00  0.00    +0.002 C 
ATOM     12  C   UNL     1     -12.370   4.013  -3.497  0.00  0.00    +0.000 C 
ATOM     13  C   UNL     1     -11.268   2.952  -3.524  0.00  0.00    +0.002 C 
ATOM     14  C   UNL     1     -10.511   2.969  -2.195  0.00  0.00    +0.027 C 
ENDBRANCH   8   9
ENDBRANCH   3   4
BRANCH   3  16
ATOM     15  C   UNL     1      -5.429   6.697  -2.643  0.00  0.00    +0.002 C 
ATOM     16  C   UNL     1      -6.355   6.350  -1.475  0.00  0.00    -0.011 C 
ENDBRANCH   3  16
ENDBRANCH   1   3
BRANCH   1  17
ATOM     17  C   UNL     1      -6.076   2.625  -1.886  0.00  0.00    -0.075 C 
BRANCH  17  18
ATOM     18  C   UNL     1      -6.498   2.610  -3.356  0.00  0.00    +0.009 C 
BRANCH  18  19
ATOM     19  C   UNL     1      -6.778   1.170  -3.792  0.00  0.00    +0.154 C 
BRANCH  19  20
ATOM     20  O   UNL     1      -7.172   1.156  -5.165  0.00  0.00    -0.395 OA
ATOM     21  H   UNL     1      -7.366   0.274  -5.510  0.00  0.00    +0.209 HD
ENDBRANCH  19  20
ENDBRANCH  18  19
ENDBRANCH  17  18
ENDBRANCH   1  17
BRANCH   1  22
ATOM     22  C   UNL     1      -5.146   4.019  -0.138  0.00  0.00    -0.037 C 
BRANCH  22  23
ATOM     23  C   UNL     1      -3.728   3.507  -0.162  0.00  0.00    +0.001 A 
ATOM     24  C   UNL     1      -2.695   4.382  -0.240  0.00  0.00    +0.017 A 
ATOM     25  C   UNL     1      -1.331   3.852  -0.267  0.00  0.00    -0.001 A 
ATOM     26  C   UNL     1      -0.226   4.704  -0.365  0.00  0.00    +0.013 A 
ATOM     27  C   UNL     1       1.035   4.178  -0.388  0.00  0.00    -0.047 A 
ATOM     28  C   UNL     1       1.229   2.806  -0.315  0.00  0.00    -0.046 A 
ATOM     29  C   UNL     1       0.155   1.947  -0.218  0.00  0.00    +0.030 A 
ATOM     30  C   UNL     1      -1.138   2.459  -0.198  0.00  0.00    +0.049 A 
ATOM     31  N   UNL     1      -2.231   1.624  -0.108  0.00  0.00    -0.322 N 
ATOM     32  H   UNL     1      -2.096   0.664  -0.057  0.00  0.00    +0.169 HD
ATOM     33  C   UNL     1      -3.480   2.119  -0.090  0.00  0.00    +0.251 A 
ATOM     34  O   UNL     1      -4.423   1.351  -0.010  0.00  0.00    -0.268 OA
ATOM     35  C   UNL     1       2.629   2.248  -0.342  0.00  0.00    +0.044 C 
ATOM     36  C   UNL     1       2.225   5.097  -0.493  0.00  0.00    +0.044 C 
ENDBRANCH  22  23
ENDBRANCH   1  22
TORSDOF 10
