REMARK  Name = ZINC16918114
REMARK  13 active torsions:
REMARK  status: ('A' for Active; 'I' for Inactive)
REMARK    1  A    between atoms: C_1  and  C_2
REMARK    2  A    between atoms: C_2  and  C_3
REMARK    3  A    between atoms: C_6  and  N_8
REMARK    4  A    between atoms: N_10  and  C_31
REMARK    5  A    between atoms: C_14  and  C_15
REMARK    6  A    between atoms: C_18  and  O_24
REMARK    7  A    between atoms: C_19  and  O_21
REMARK    8  A    between atoms: O_21  and  C_22
REMARK    9  A    between atoms: C_22  and  C_23
REMARK   10  A    between atoms: O_24  and  C_25
REMARK   11  A    between atoms: C_25  and  C_27
REMARK   12  A    between atoms: C_25  and  C_28
REMARK   13  A    between atoms: C_31  and  C_32
REMARK                            x       y       z     vdW  Elec       q    Type
REMARK                         _______ _______ _______ _____ _____    ______ ____
ROOT
ATOM      1  N   UNL     1       0.370  -0.089   9.833  0.00  0.00    -0.198 NA
ATOM      2  C   UNL     1       0.228  -0.459   8.577  0.00  0.00    +0.171 C 
ATOM      3  N   UNL     1      -0.014   0.329   7.474  0.00  0.00    -0.246 N 
ATOM      4  C   UNL     1      -0.123  -0.208   6.271  0.00  0.00    +0.259 C 
ATOM      5  O   UNL     1      -0.331   0.475   5.286  0.00  0.00    -0.269 OA
ATOM      6  C   UNL     1       0.014  -1.674   6.179  0.00  0.00    +0.078 C 
ATOM      7  C   UNL     1      -0.057  -2.479   5.088  0.00  0.00    +0.028 C 
ATOM      8  S   UNL     1       0.305  -2.105   7.889  0.00  0.00    -0.049 S 
ENDROOT
BRANCH   7   9
ATOM      9  C   UNL     1      -0.461  -1.923   3.791  0.00  0.00    -0.020 A 
ATOM     10  C   UNL     1      -1.462  -0.946   3.726  0.00  0.00    +0.012 A 
ATOM     11  C   UNL     1      -1.839  -0.426   2.507  0.00  0.00    +0.050 A 
ATOM     12  C   UNL     1      -1.229  -0.869   1.341  0.00  0.00    +0.163 A 
ATOM     13  C   UNL     1      -0.236  -1.846   1.396  0.00  0.00    +0.162 A 
ATOM     14  C   UNL     1       0.153  -2.369   2.613  0.00  0.00    +0.057 A 
BRANCH  13  15
ATOM     15  O   UNL     1       0.354  -2.280   0.250  0.00  0.00    -0.489 OA
BRANCH  15  16
ATOM     16  C   UNL     1       1.364  -3.283   0.380  0.00  0.00    +0.226 C 
ATOM     17  C   UNL     1       1.907  -3.642  -1.004  0.00  0.00    +0.048 C 
ENDBRANCH  15  16
ENDBRANCH  13  15
BRANCH  12  18
ATOM     18  O   UNL     1      -1.605  -0.352   0.142  0.00  0.00    -0.474 OA
BRANCH  18  19
ATOM     19  C   UNL     1      -2.587   0.686   0.163  0.00  0.00    +0.283 C 
ATOM     20  C   UNL     1      -1.904   2.028   0.436  0.00  0.00    +0.064 C 
BRANCH  19  21
ATOM     21  C   UNL     1      -3.287   0.742  -1.170  0.00  0.00    +0.395 C 
ATOM     22  O   UNL     1      -2.978  -0.029  -2.048  0.00  0.00    -0.242 OA
ATOM     23  O   UNL     1      -4.255   1.647  -1.383  0.00  0.00    -0.242 OA
ENDBRANCH  19  21
ENDBRANCH  18  19
ENDBRANCH  12  18
ENDBRANCH   7   9
BRANCH   1  27
ATOM     24  C   UNL     1      -0.626   3.633  10.955  0.00  0.00    +0.104 A 
ATOM     25  N   UNL     1       0.612   3.388  10.572  0.00  0.00    -0.144 NA
ATOM     26  N   UNL     1       0.990   2.240  10.213  0.00  0.00    -0.121 NA
ATOM     27  C   UNL     1       0.152   1.204  10.189  0.00  0.00    +0.217 A 
ATOM     28  S   UNL     1      -1.342   2.003  10.768  0.00  0.00    -0.031 S 
BRANCH  24  30
ATOM     29  C   UNL     1      -1.830   5.670  10.214  0.00  0.00    +0.011 C 
ATOM     30  C   UNL     1      -1.258   4.920  11.418  0.00  0.00    +0.061 C 
ENDBRANCH  24  30
ENDBRANCH   1  27
BRANCH   3  31
ATOM     31  C   UNL     1      -0.146   1.779   7.635  0.00  0.00    +0.112 C 
ATOM     32  C   UNL     1       1.236   2.430   7.546  0.00  0.00    +0.025 C 
ENDBRANCH   3  31
TORSDOF 9
