REMARK  Name = ZINC35523099
REMARK  7 active torsions:
REMARK  status: ('A' for Active; 'I' for Inactive)
REMARK    1  A    between atoms: C_1  and  C_2
REMARK    2  A    between atoms: C_5  and  C_8
REMARK    3  A    between atoms: N_17  and  C_18
REMARK    4  A    between atoms: C_18  and  C_19
REMARK    5  A    between atoms: N_24  and  C_27
REMARK    6  A    between atoms: C_27  and  C_28
REMARK    7  A    between atoms: C_27  and  C_34
REMARK                            x       y       z     vdW  Elec       q    Type
REMARK                         _______ _______ _______ _____ _____    ______ ____
ROOT
ATOM      1  C   UNL     1      -3.089  -4.915   1.879  0.00  0.00    +0.199 C 
ATOM      2  O   UNL     1      -2.595  -5.403   2.873  0.00  0.00    -0.278 OA
ATOM      3  N   UNL     1      -4.424  -4.742   1.804  0.00  0.00    -0.301 N 
ATOM      4  C   UNL     1      -5.044  -4.158   0.606  0.00  0.00    +0.123 C 
ATOM      5  C   UNL     1      -6.179  -5.079   0.146  0.00  0.00    +0.104 C 
ATOM      6  N   UNL     1      -7.097  -5.316   1.267  0.00  0.00    -0.289 NA
ATOM      7  C   UNL     1      -6.424  -6.017   2.369  0.00  0.00    +0.104 C 
ATOM      8  C   UNL     1      -5.300  -5.140   2.917  0.00  0.00    +0.123 C 
ENDROOT
BRANCH   1   9
ATOM      9  C   UNL     1      -2.211  -4.500   0.727  0.00  0.00    +0.020 C 
BRANCH   9  18
ATOM     10  C   UNL     1       0.059  -4.275  -0.021  0.00  0.00    +0.011 C 
ATOM     11  C   UNL     1       1.464  -4.768   0.230  0.00  0.00    +0.009 A 
ATOM     12  C   UNL     1       2.610  -4.316  -0.298  0.00  0.00    +0.021 A 
ATOM     13  C   UNL     1       3.657  -5.090   0.246  0.00  0.00    +0.019 A 
ATOM     14  C   UNL     1       3.103  -5.989   1.088  0.00  0.00    +0.086 A 
ATOM     15  N   UNL     1       1.759  -5.800   1.082  0.00  0.00    -0.353 N 
ATOM     16  C   UNL     1       0.734  -6.540   1.829  0.00  0.00    +0.103 C 
ATOM     17  C   UNL     1      -0.627  -6.242   1.189  0.00  0.00    -0.055 C 
ATOM     18  N   UNL     1      -0.808  -4.790   1.052  0.00  0.00    +0.395 N 
ATOM     19  H   UNL     1      -0.567  -4.339   1.922  0.00  0.00    -0.080 HD
BRANCH  10  24
ATOM     20  C   UNL     1      -0.018   1.503   0.010  0.00  0.00    +0.044 C 
ATOM     21  C   UNL     1       0.002  -0.004   0.002  0.00  0.00    -0.050 A 
ATOM     22  C   UNL     1       0.006  -0.689  -1.199  0.00  0.00    +0.003 A 
ATOM     23  C   UNL     1       0.025  -2.071  -1.206  0.00  0.00    +0.002 A 
ATOM     24  C   UNL     1       0.040  -2.768  -0.013  0.00  0.00    -0.055 A 
ATOM     25  C   UNL     1       0.037  -2.084   1.188  0.00  0.00    +0.002 A 
ATOM     26  C   UNL     1       0.023  -0.702   1.195  0.00  0.00    +0.003 A 
ENDBRANCH  10  24
ENDBRANCH   9  18
ENDBRANCH   1   9
BRANCH   6  27
ATOM     27  C   UNL     1      -8.289  -6.053   0.825  0.00  0.00    +0.117 C 
BRANCH  27  28
ATOM     28  C   UNL     1      -9.206  -6.277   2.000  0.00  0.00    -0.026 A 
ATOM     29  C   UNL     1      -9.394  -5.273   2.931  0.00  0.00    +0.005 A 
ATOM     30  C   UNL     1     -10.235  -5.479   4.009  0.00  0.00    +0.000 A 
ATOM     31  C   UNL     1     -10.888  -6.689   4.155  0.00  0.00    +0.000 A 
ATOM     32  C   UNL     1     -10.700  -7.693   3.224  0.00  0.00    +0.000 A 
ATOM     33  C   UNL     1      -9.862  -7.485   2.143  0.00  0.00    +0.005 A 
ENDBRANCH  27  28
BRANCH  27  34
ATOM     34  C   UNL     1      -9.010  -5.254  -0.230  0.00  0.00    -0.026 A 
ATOM     35  C   UNL     1      -9.119  -3.882  -0.104  0.00  0.00    +0.005 A 
ATOM     36  C   UNL     1      -9.781  -3.150  -1.071  0.00  0.00    +0.000 A 
ATOM     37  C   UNL     1     -10.334  -3.789  -2.165  0.00  0.00    +0.000 A 
ATOM     38  C   UNL     1     -10.224  -5.161  -2.292  0.00  0.00    +0.000 A 
ATOM     39  C   UNL     1      -9.558  -5.893  -1.326  0.00  0.00    +0.005 A 
ENDBRANCH  27  34
ENDBRANCH   6  27
TORSDOF 6
