REMARK  Name = ZINC06194606
REMARK  11 active torsions:
REMARK  status: ('A' for Active; 'I' for Inactive)
REMARK    1  A    between atoms: C_1  and  C_2
REMARK    2  A    between atoms: C_2  and  O_3
REMARK    3  A    between atoms: O_3  and  C_4
REMARK    4  A    between atoms: C_4  and  C_6
REMARK    5  A    between atoms: C_11  and  C_13
REMARK    6  A    between atoms: C_11  and  C_27
REMARK    7  A    between atoms: C_11  and  N_69
REMARK    8  A    between atoms: C_16  and  C_26
REMARK    9  A    between atoms: C_19  and  C_25
REMARK   10  A    between atoms: N_31  and  C_32
REMARK   11  A    between atoms: C_32  and  C_33
REMARK                            x       y       z     vdW  Elec       q    Type
REMARK                         _______ _______ _______ _____ _____    ______ ____
ROOT
ATOM      1  C   UNL     1       4.353   2.661  -1.917  0.00  0.00    +0.039 C 
ENDROOT
BRANCH   1   2
ATOM      2  C   UNL     1       3.425   3.645  -2.582  0.00  0.00    +0.011 A 
ATOM      3  C   UNL     1       2.193   3.245  -2.985  0.00  0.00    +0.018 A 
ATOM      4  C   UNL     1       1.314   4.226  -3.623  0.00  0.00    +0.002 A 
ATOM      5  C   UNL     1       0.031   3.875  -4.056  0.00  0.00    -0.041 A 
ATOM      6  C   UNL     1      -0.763   4.813  -4.652  0.00  0.00    +0.004 A 
ATOM      7  C   UNL     1      -0.309   6.112  -4.832  0.00  0.00    +0.005 A 
ATOM      8  C   UNL     1       0.952   6.481  -4.414  0.00  0.00    -0.026 A 
ATOM      9  C   UNL     1       1.779   5.543  -3.805  0.00  0.00    +0.052 A 
ATOM     10  N   UNL     1       3.044   5.884  -3.376  0.00  0.00    -0.322 N 
ATOM     11  H   UNL     1       3.372   6.820  -3.506  0.00  0.00    +0.169 HD
ATOM     12  C   UNL     1       3.843   4.977  -2.787  0.00  0.00    +0.251 A 
ATOM     13  O   UNL     1       4.955   5.314  -2.421  0.00  0.00    -0.268 OA
ATOM     14  C   UNL     1       1.433   7.894  -4.617  0.00  0.00    +0.046 C 
ATOM     15  C   UNL     1      -0.472   2.467  -3.867  0.00  0.00    +0.044 C 
ENDBRANCH   1   2
BRANCH   1  21
ATOM     16  C   UNL     1       7.547   1.161  -4.332  0.00  0.00    +0.094 C 
ATOM     17  C   UNL     1       7.824   1.563  -2.881  0.00  0.00    -0.004 C 
ATOM     18  C   UNL     1       6.508   1.573  -2.099  0.00  0.00    -0.077 C 
ATOM     19  C   UNL     1       5.258   2.130  -4.099  0.00  0.00    -0.077 C 
ATOM     20  C   UNL     1       6.537   2.137  -4.940  0.00  0.00    -0.004 C 
ATOM     21  N   UNL     1       5.588   2.550  -2.720  0.00  0.00    +0.389 N 
ATOM     22  H   UNL     1       6.049   3.467  -2.753  0.00  0.00    -0.080 HD
BRANCH  16  23
ATOM     23  C   UNL     1       8.831   1.206  -5.121  0.00  0.00    +0.310 C 
ATOM     24  O   UNL     1       9.862   1.527  -4.579  0.00  0.00    -0.251 OA
BRANCH  23  25
ATOM     25  O   UNL     1       8.828   0.889  -6.425  0.00  0.00    -0.465 OA
BRANCH  25  27
ATOM     26  C   UNL     1       9.900   0.563  -8.587  0.00  0.00    +0.048 C 
ATOM     27  C   UNL     1      10.101   0.955  -7.122  0.00  0.00    +0.229 C 
ENDBRANCH  25  27
ENDBRANCH  23  25
ENDBRANCH  16  23
ENDBRANCH   1  21
BRANCH   1  28
ATOM     28  C   UNL     1       3.671   1.322  -1.807  0.00  0.00    +0.143 A 
ATOM     29  N   UNL     1       3.418   0.489  -2.787  0.00  0.00    -0.115 NA
ATOM     30  N   UNL     1       2.826  -0.542  -2.290  0.00  0.00    -0.023 NA
ATOM     31  N   UNL     1       2.699  -0.390  -1.018  0.00  0.00    -0.044 NA
ATOM     32  N   UNL     1       3.202   0.749  -0.682  0.00  0.00    -0.226 N 
BRANCH  32  33
ATOM     33  C   UNL     1       3.259   1.311   0.669  0.00  0.00    +0.182 C 
BRANCH  33  34
ATOM     34  C   UNL     1       1.964   2.019   0.974  0.00  0.00    -0.026 A 
ATOM     35  C   UNL     1       0.882   1.305   1.453  0.00  0.00    +0.005 A 
ATOM     36  C   UNL     1      -0.307   1.954   1.727  0.00  0.00    +0.000 A 
ATOM     37  C   UNL     1      -0.411   3.319   1.532  0.00  0.00    +0.000 A 
ATOM     38  C   UNL     1       0.671   4.033   1.054  0.00  0.00    +0.000 A 
ATOM     39  C   UNL     1       1.859   3.383   0.775  0.00  0.00    +0.005 A 
ENDBRANCH  33  34
ENDBRANCH  32  33
ENDBRANCH   1  28
TORSDOF 8
