REMARK  Name = ZINC03066657
REMARK  6 active torsions:
REMARK  status: ('A' for Active; 'I' for Inactive)
REMARK    1  A    between atoms: C_1  and  O_2
REMARK    2  A    between atoms: O_2  and  C_3
REMARK    3  A    between atoms: C_7  and  C_10
REMARK    4  A    between atoms: C_8  and  O_9
REMARK    5  A    between atoms: N_11  and  C_12
REMARK    6  A    between atoms: C_15  and  C_18
REMARK                            x       y       z     vdW  Elec       q    Type
REMARK                         _______ _______ _______ _____ _____    ______ ____
ROOT
ATOM      1  C   UNL     1       2.069  -6.043   3.299  0.00  0.00    +0.064 A 
ATOM      2  C   UNL     1       0.934  -6.811   3.022  0.00  0.00    +0.028 A 
ATOM      3  C   UNL     1       1.000  -8.174   3.083  0.00  0.00    +0.015 A 
ATOM      4  C   UNL     1       2.202  -8.801   3.423  0.00  0.00    +0.037 A 
ATOM      5  C   UNL     1       3.337  -8.034   3.701  0.00  0.00    +0.015 A 
ATOM      6  C   UNL     1       3.273  -6.671   3.634  0.00  0.00    +0.028 A 
ENDROOT
BRANCH   4   7
ATOM      7  C   UNL     1       2.272 -10.274   3.490  0.00  0.00    +0.228 A 
ATOM      8  N   UNL     1       1.274 -11.086   3.245  0.00  0.00    -0.209 NA
ATOM      9  C   UNL     1       1.703 -12.365   3.402  0.00  0.00    +0.110 A 
ATOM     10  C   UNL     1       1.085 -13.611   3.275  0.00  0.00    +0.031 A 
ATOM     11  C   UNL     1       1.809 -14.759   3.508  0.00  0.00    +0.002 A 
ATOM     12  C   UNL     1       3.146 -14.685   3.870  0.00  0.00    +0.004 A 
ATOM     13  C   UNL     1       3.769 -13.461   4.000  0.00  0.00    +0.048 A 
ATOM     14  C   UNL     1       3.057 -12.294   3.768  0.00  0.00    +0.156 A 
ATOM     15  O   UNL     1       3.374 -10.981   3.806  0.00  0.00    -0.435 OA
ENDBRANCH   4   7
BRANCH   1  17
ATOM     16  C   UNL     1       1.402  -4.100   2.236  0.00  0.00    +0.124 C 
ATOM     17  N   UNL     1       2.003  -4.680   3.238  0.00  0.00    -0.255 NA
BRANCH  16  22
ATOM     18  C   UNL     1       0.626  -0.619   1.042  0.00  0.00    +0.163 A 
ATOM     19  C   UNL     1       1.202   0.139   2.050  0.00  0.00    +0.065 A 
ATOM     20  C   UNL     1       1.839  -0.479   3.114  0.00  0.00    +0.036 A 
ATOM     21  C   UNL     1       1.908  -1.855   3.181  0.00  0.00    +0.044 A 
ATOM     22  C   UNL     1       1.331  -2.634   2.170  0.00  0.00    +0.053 A 
ATOM     23  C   UNL     1       0.682  -2.007   1.097  0.00  0.00    +0.168 A 
ATOM     24 BR   UNL     1       2.782  -2.689   4.636  0.00  0.00    -0.048 Br
ATOM     25 BR   UNL     1       2.620   0.570   4.480  0.00  0.00    -0.049 Br
BRANCH  18  27
ATOM     26  C   UNL     1      -0.017   1.425   0.010  0.00  0.00    +0.277 C 
ATOM     27  O   UNL     1       0.002  -0.004   0.002  0.00  0.00    -0.491 OA
ENDBRANCH  18  27
BRANCH  23  28
ATOM     28  O   UNL     1       0.114  -2.751   0.113  0.00  0.00    -0.503 OA
ATOM     29  H   UNL     1       0.711  -2.954  -0.620  0.00  0.00    +0.292 HD
ENDBRANCH  23  28
ENDBRANCH  16  22
ENDBRANCH   1  17
TORSDOF 5
