REMARK  Name = ZINC15958215
REMARK  4 active torsions:
REMARK  status: ('A' for Active; 'I' for Inactive)
REMARK    1  A    between atoms: C_12  and  C_15
REMARK    2  A    between atoms: C_15  and  C_16
REMARK    3  A    between atoms: C_19  and  O_22
REMARK    4  A    between atoms: N_25  and  C_28
REMARK                            x       y       z     vdW  Elec       q    Type
REMARK                         _______ _______ _______ _____ _____    ______ ____
ROOT
ATOM      1  C   UNL     1      -0.486   1.055  -2.576  0.00  0.00    +0.000 A 
ATOM      2  C   UNL     1       0.591   1.677  -3.180  0.00  0.00    +0.002 A 
ATOM      3  C   UNL     1       1.842   1.097  -3.138  0.00  0.00    +0.023 A 
ATOM      4  C   UNL     1       2.030  -0.120  -2.486  0.00  0.00    +0.039 A 
ATOM      5  C   UNL     1       0.938  -0.736  -1.882  0.00  0.00    +0.003 A 
ATOM      6  C   UNL     1      -0.309  -0.153  -1.925  0.00  0.00    +0.008 A 
ATOM      7  C   UNL     1       1.466  -2.008  -1.282  0.00  0.00    +0.136 C 
ATOM      8  C   UNL     1       1.233  -2.058   0.232  0.00  0.00    +0.122 C 
ATOM      9  C   UNL     1       0.942  -3.555   0.534  0.00  0.00    +0.107 C 
ATOM     10  C   UNL     1       1.054  -4.264  -0.833  0.00  0.00    +0.072 C 
ATOM     11  N   UNL     1       0.781  -3.192  -1.836  0.00  0.00    -0.295 NA
ATOM     12  C   UNL     1      -0.499  -3.546   0.991  0.00  0.00    +0.227 C 
ATOM     13  O   UNL     1      -1.136  -4.523   1.320  0.00  0.00    -0.275 OA
ATOM     14  N   UNL     1      -0.962  -2.291   0.976  0.00  0.00    -0.238 N 
ATOM     15  C   UNL     1      -0.066  -1.361   0.571  0.00  0.00    +0.228 C 
ATOM     16  O   UNL     1      -0.263  -0.168   0.488  0.00  0.00    -0.275 OA
ATOM     17  C   UNL     1       2.933  -2.019  -1.613  0.00  0.00    +0.243 C 
ATOM     18  O   UNL     1       3.738  -2.874  -1.312  0.00  0.00    -0.273 OA
ATOM     19  N   UNL     1       3.179  -0.893  -2.311  0.00  0.00    -0.283 N 
ATOM     20  H   UNL     1      -0.208  -3.022  -1.938  0.00  0.00    +0.124 HD
ATOM     21  H   UNL     1       4.054  -0.648  -2.651  0.00  0.00    +0.155 HD
ENDROOT
BRANCH  14  22
ATOM     22  C   UNL     1      -2.329  -1.946   1.371  0.00  0.00    +0.084 C 
ATOM     23  C   UNL     1      -2.525  -2.308   2.858  0.00  0.00    +0.023 C 
ATOM     24  C   UNL     1      -3.689  -1.518   3.392  0.00  0.00    +0.002 C 
ATOM     25  C   UNL     1      -5.014  -2.301   3.323  0.00  0.00    +0.000 C 
ATOM     26  C   UNL     1      -5.178  -3.082   2.005  0.00  0.00    +0.000 C 
ATOM     27  C   UNL     1      -4.732  -2.289   0.806  0.00  0.00    +0.002 C 
ATOM     28  C   UNL     1      -3.262  -2.647   0.502  0.00  0.00    +0.023 C 
ENDBRANCH  14  22
BRANCH  10  29
ATOM     29  C   UNL     1       2.455  -4.852  -1.013  0.00  0.00    +0.054 C 
BRANCH  29  30
ATOM     30  C   UNL     1       2.469  -6.277  -0.521  0.00  0.00    -0.046 A 
ATOM     31  C   UNL     1       2.771  -6.548   0.800  0.00  0.00    +0.007 A 
ATOM     32  C   UNL     1       2.785  -7.853   1.253  0.00  0.00    +0.045 A 
ATOM     33  C   UNL     1       2.495  -8.892   0.381  0.00  0.00    +0.117 A 
ATOM     34  C   UNL     1       2.191  -8.617  -0.945  0.00  0.00    +0.045 A 
ATOM     35  C   UNL     1       2.174  -7.310  -1.392  0.00  0.00    +0.007 A 
BRANCH  33  36
ATOM     36  O   UNL     1       2.508 -10.176   0.824  0.00  0.00    -0.507 OA
ATOM     37  H   UNL     1       1.656 -10.485   1.162  0.00  0.00    +0.292 HD
ENDBRANCH  33  36
ENDBRANCH  29  30
ENDBRANCH  10  29
TORSDOF 4
