REMARK  Name = ZINC16001737
REMARK  4 active torsions:
REMARK  status: ('A' for Active; 'I' for Inactive)
REMARK    1  A    between atoms: C_4  and  C_7
REMARK    2  A    between atoms: C_7  and  C_9
REMARK    3  A    between atoms: C_11  and  C_34
REMARK    4  A    between atoms: C_34  and  C_36
REMARK                            x       y       z     vdW  Elec       q    Type
REMARK                         _______ _______ _______ _____ _____    ______ ____
ROOT
ATOM      1  C   UNL     1       2.683   3.614   1.230  0.00  0.00    +0.110 C 
ATOM      2  C   UNL     1       3.272   2.179   1.119  0.00  0.00    +0.158 C 
ATOM      3  N   UNL     1       2.087   1.337   0.924  0.00  0.00    -0.311 N 
ATOM      4  C   UNL     1       2.252   0.057   0.451  0.00  0.00    +0.038 A 
ATOM      5  C   UNL     1       3.459  -0.614   0.462  0.00  0.00    +0.024 A 
ATOM      6  C   UNL     1       3.538  -1.899  -0.043  0.00  0.00    +0.002 A 
ATOM      7  C   UNL     1       2.415  -2.522  -0.560  0.00  0.00    +0.001 A 
ATOM      8  C   UNL     1       1.199  -1.867  -0.577  0.00  0.00    +0.010 A 
ATOM      9  C   UNL     1       1.104  -0.577  -0.073  0.00  0.00    -0.004 A 
ATOM     10  C   UNL     1      -0.180   0.163  -0.068  0.00  0.00    +0.007 C 
ATOM     11  C   UNL     1      -0.122   1.508  -0.049  0.00  0.00    -0.003 C 
ATOM     12  C   UNL     1       1.249   2.111  -0.033  0.00  0.00    +0.117 C 
ATOM     13  C   UNL     1       1.330   3.536   0.493  0.00  0.00    +0.108 C 
ATOM     14  C   UNL     1       0.193   3.892   1.388  0.00  0.00    -0.008 A 
ATOM     15  C   UNL     1      -0.263   3.336   2.564  0.00  0.00    +0.006 A 
ATOM     16  C   UNL     1      -1.374   3.927   3.154  0.00  0.00    +0.000 A 
ATOM     17  C   UNL     1      -1.992   5.023   2.587  0.00  0.00    +0.002 A 
ATOM     18  C   UNL     1      -1.541   5.589   1.405  0.00  0.00    +0.023 A 
ATOM     19  C   UNL     1      -0.426   5.005   0.802  0.00  0.00    +0.038 A 
ATOM     20  N   UNL     1       0.228   5.361  -0.365  0.00  0.00    -0.284 N 
ATOM     21  C   UNL     1       1.277   4.549  -0.625  0.00  0.00    +0.231 C 
ATOM     22  O   UNL     1       2.030   4.620  -1.573  0.00  0.00    -0.274 OA
ATOM     23  H   UNL     1      -0.035   6.104  -0.929  0.00  0.00    +0.155 HD
ENDROOT
BRANCH   1  24
ATOM     24  C   UNL     1       2.473   3.986   2.675  0.00  0.00    +0.170 C 
ATOM     25  O   UNL     1       2.372   3.118   3.516  0.00  0.00    -0.292 OA
BRANCH  24  29
ATOM     26  C   UNL     1       2.236   8.068   3.803  0.00  0.00    +0.000 A 
ATOM     27  C   UNL     1       2.120   7.080   4.765  0.00  0.00    +0.001 A 
ATOM     28  C   UNL     1       2.196   5.751   4.407  0.00  0.00    +0.011 A 
ATOM     29  C   UNL     1       2.391   5.402   3.066  0.00  0.00    +0.018 A 
ATOM     30  C   UNL     1       2.512   6.406   2.101  0.00  0.00    +0.011 A 
ATOM     31  C   UNL     1       2.429   7.731   2.474  0.00  0.00    +0.001 A 
ENDBRANCH  24  29
ENDBRANCH   1  24
BRANCH   2  32
ATOM     32  C   UNL     1       4.198   2.076  -0.066  0.00  0.00    +0.191 C 
ATOM     33  O   UNL     1       3.782   1.653  -1.126  0.00  0.00    -0.289 OA
BRANCH  32  34
ATOM     34  C   UNL     1       5.548   2.470   0.056  0.00  0.00    +0.056 A 
ATOM     35  C   UNL     1       6.556   2.456  -0.902  0.00  0.00    +0.019 A 
ATOM     36  C   UNL     1       7.793   2.900  -0.512  0.00  0.00    +0.008 A 
ATOM     37  C   UNL     1       7.973   3.325   0.767  0.00  0.00    +0.046 A 
ATOM     38  S   UNL     1       6.404   3.125   1.478  0.00  0.00    -0.094 S 
ENDBRANCH  32  34
ENDBRANCH   2  32
TORSDOF 4
