REMARK  Name = ZINC06148518
REMARK  15 active torsions:
REMARK  status: ('A' for Active; 'I' for Inactive)
REMARK    1  A    between atoms: C_1  and  C_2
REMARK    2  A    between atoms: C_3  and  C_34
REMARK    3  A    between atoms: C_4  and  C_25
REMARK    4  A    between atoms: C_10  and  C_15
REMARK    5  A    between atoms: C_18  and  O_23
REMARK    6  A    between atoms: C_19  and  O_21
REMARK    7  A    between atoms: O_21  and  C_22
REMARK    8  A    between atoms: O_23  and  C_24
REMARK    9  A    between atoms: C_28  and  O_33
REMARK   10  A    between atoms: C_29  and  O_31
REMARK   11  A    between atoms: O_31  and  C_32
REMARK   12  A    between atoms: C_34  and  O_36
REMARK   13  A    between atoms: O_36  and  C_37
REMARK   14  A    between atoms: C_37  and  C_38
REMARK   15  A    between atoms: C_37  and  C_39
REMARK                            x       y       z     vdW  Elec       q    Type
REMARK                         _______ _______ _______ _____ _____    ______ ____
ROOT
ATOM      1  C   UNL     1      -9.848  -3.396  -3.719  0.00  0.00    +0.061 C 
ATOM      2  C   UNL     1      -9.116  -3.446  -2.402  0.00  0.00    +0.031 C 
ATOM      3  C   UNL     1      -9.811  -3.489  -1.253  0.00  0.00    +0.154 C 
ATOM      4  C   UNL     1      -9.117  -3.544   0.075  0.00  0.00    +0.073 C 
ATOM      5  C   UNL     1      -7.674  -3.124  -0.048  0.00  0.00    +0.025 C 
ATOM      6  C   UNL     1      -7.065  -3.095  -1.253  0.00  0.00    +0.049 C 
ATOM      7  N   UNL     1      -7.749  -3.447  -2.385  0.00  0.00    -0.260 NA
ATOM      8  C   UNL     1      -5.622  -2.676  -1.384  0.00  0.00    +0.064 C 
ATOM      9  C   UNL     1      -4.860  -3.044  -0.112  0.00  0.00    +0.032 C 
ATOM     10  C   UNL     1      -5.535  -2.361   1.082  0.00  0.00    +0.088 C 
ATOM     11  C   UNL     1      -6.984  -2.766   1.123  0.00  0.00    +0.162 C 
ATOM     12  O   UNL     1      -7.566  -2.786   2.189  0.00  0.00    -0.292 OA
ENDROOT
BRANCH   9  13
ATOM     13  C   UNL     1      -3.432  -2.576  -0.222  0.00  0.00    -0.040 A 
ATOM     14  C   UNL     1      -3.158  -1.233  -0.400  0.00  0.00    +0.008 A 
ATOM     15  C   UNL     1      -1.849  -0.798  -0.497  0.00  0.00    +0.049 A 
ATOM     16  C   UNL     1      -0.809  -1.710  -0.426  0.00  0.00    +0.161 A 
ATOM     17  C   UNL     1      -1.085  -3.062  -0.247  0.00  0.00    +0.162 A 
ATOM     18  C   UNL     1      -2.398  -3.491  -0.145  0.00  0.00    +0.053 A 
BRANCH  17  19
ATOM     19  O   UNL     1      -0.067  -3.961  -0.171  0.00  0.00    -0.491 OA
ATOM     20  C   UNL     1      -0.424  -5.332   0.014  0.00  0.00    +0.277 C 
ENDBRANCH  17  19
BRANCH  16  21
ATOM     21  O   UNL     1       0.479  -1.284  -0.526  0.00  0.00    -0.491 OA
ATOM     22  C   UNL     1       0.686   0.118  -0.710  0.00  0.00    +0.277 C 
ENDBRANCH  16  21
ENDBRANCH   9  13
BRANCH   4  23
ATOM     23  C   UNL     1      -9.179  -4.955   0.600  0.00  0.00    -0.035 A 
ATOM     24  C   UNL     1      -8.592  -5.983  -0.115  0.00  0.00    +0.008 A 
ATOM     25  C   UNL     1      -8.641  -7.279   0.365  0.00  0.00    +0.049 A 
ATOM     26  C   UNL     1      -9.289  -7.551   1.559  0.00  0.00    +0.158 A 
ATOM     27  C   UNL     1      -9.886  -6.518   2.275  0.00  0.00    +0.162 A 
ATOM     28  C   UNL     1      -9.828  -5.221   1.791  0.00  0.00    +0.053 A 
BRANCH  27  29
ATOM     29  O   UNL     1     -10.524  -6.781   3.447  0.00  0.00    -0.491 OA
ATOM     30  C   UNL     1     -11.113  -5.671   4.128  0.00  0.00    +0.277 C 
ENDBRANCH  27  29
BRANCH  26  31
ATOM     31  O   UNL     1      -9.344  -8.826   2.029  0.00  0.00    -0.503 OA
ATOM     32  H   UNL     1     -10.114  -9.325   1.725  0.00  0.00    +0.292 HD
ENDBRANCH  26  31
ENDBRANCH   4  23
BRANCH   3  33
ATOM     33  C   UNL     1     -11.225  -3.479  -1.296  0.00  0.00    +0.317 C 
ATOM     34  O   UNL     1     -11.800  -3.308  -2.355  0.00  0.00    -0.250 OA
BRANCH  33  35
ATOM     35  O   UNL     1     -11.936  -3.658  -0.164  0.00  0.00    -0.461 OA
BRANCH  35  36
ATOM     36  C   UNL     1     -13.360  -3.635  -0.281  0.00  0.00    +0.170 C 
ATOM     37  C   UNL     1     -13.872  -5.052  -0.551  0.00  0.00    +0.052 C 
ATOM     38  C   UNL     1     -13.971  -3.111   1.020  0.00  0.00    +0.052 C 
ENDBRANCH  35  36
ENDBRANCH  33  35
ENDBRANCH   3  33
TORSDOF 9
