REMARK  Name = ZINC13681991
REMARK  6 active torsions:
REMARK  status: ('A' for Active; 'I' for Inactive)
REMARK    1  A    between atoms: C_4  and  O_7
REMARK    2  A    between atoms: O_7  and  C_8
REMARK    3  A    between atoms: C_13  and  N_14
REMARK    4  A    between atoms: C_15  and  C_17
REMARK    5  A    between atoms: N_20  and  S_28
REMARK    6  A    between atoms: S_28  and  C_31
REMARK                            x       y       z     vdW  Elec       q    Type
REMARK                         _______ _______ _______ _____ _____    ______ ____
ROOT
ATOM      1  C   UNL     1      -1.317   7.177   0.136  0.00  0.00    +0.278 C 
ATOM      2  C   UNL     1      -0.793   7.588   1.520  0.00  0.00    +0.186 C 
ATOM      3  N   UNL     1      -0.949   9.048   1.638  0.00  0.00    -0.195 N 
ATOM      4  C   UNL     1      -2.140   9.618   1.162  0.00  0.00    +0.093 A 
ATOM      5  C   UNL     1      -2.468  10.923   1.494  0.00  0.00    +0.028 A 
ATOM      6  C   UNL     1      -3.639  11.482   1.016  0.00  0.00    +0.002 A 
ATOM      7  C   UNL     1      -4.481  10.741   0.209  0.00  0.00    +0.004 A 
ATOM      8  C   UNL     1      -4.160   9.438  -0.124  0.00  0.00    +0.047 A 
ATOM      9  C   UNL     1      -2.989   8.869   0.351  0.00  0.00    +0.144 A 
ATOM     10  O   UNL     1      -2.682   7.586   0.021  0.00  0.00    -0.476 OA
ENDROOT
BRANCH   1  12
ATOM     11  N   UNL     1      -0.018   5.080  -0.041  0.00  0.00    -0.279 N 
ATOM     12  C   UNL     1      -1.224   5.680  -0.014  0.00  0.00    +0.260 C 
ATOM     13  O   UNL     1      -2.234   5.016  -0.112  0.00  0.00    -0.271 OA
ATOM     14  H   UNL     1       0.791   5.615  -0.026  0.00  0.00    +0.155 HD
BRANCH  11  20
ATOM     15  C   UNL     1       1.104   3.022   0.566  0.00  0.00    +0.150 A 
ATOM     16  C   UNL     1       1.183   1.639   0.514  0.00  0.00    +0.048 A 
ATOM     17  C   UNL     1       0.236   0.919  -0.188  0.00  0.00    +0.004 A 
ATOM     18  C   UNL     1      -0.790   1.573  -0.845  0.00  0.00    +0.002 A 
ATOM     19  C   UNL     1      -0.880   2.951  -0.793  0.00  0.00    +0.027 A 
ATOM     20  C   UNL     1       0.068   3.682  -0.090  0.00  0.00    +0.076 A 
BRANCH  15  21
ATOM     21  O   UNL     1       2.036   3.733   1.256  0.00  0.00    -0.454 OA
BRANCH  21  25
ATOM     22  C   UNL     1       1.063   5.035   5.047  0.00  0.00    +0.000 A 
ATOM     23  C   UNL     1       2.262   5.415   4.473  0.00  0.00    +0.004 A 
ATOM     24  C   UNL     1       2.591   4.981   3.204  0.00  0.00    +0.046 A 
ATOM     25  C   UNL     1       1.716   4.162   2.504  0.00  0.00    +0.129 A 
ATOM     26  C   UNL     1       0.510   3.786   3.080  0.00  0.00    +0.046 A 
ATOM     27  C   UNL     1       0.190   4.219   4.352  0.00  0.00    +0.004 A 
ENDBRANCH  21  25
ENDBRANCH  15  21
ENDBRANCH  11  20
ENDBRANCH   1  12
BRANCH   3  28
ATOM     28  S   UNL     1       0.240   9.985   2.310  0.00  0.00    +0.075 S 
ATOM     29  O   UNL     1       1.455   9.263   2.167  0.00  0.00    -0.150 OA
ATOM     30  O   UNL     1       0.066  11.296   1.790  0.00  0.00    -0.150 OA
BRANCH  28  31
ATOM     31  C   UNL     1      -0.088  10.082   4.039  0.00  0.00    +0.109 A 
ATOM     32  C   UNL     1      -0.879  11.101   4.536  0.00  0.00    +0.030 A 
ATOM     33  C   UNL     1      -1.141  11.174   5.891  0.00  0.00    +0.022 A 
ATOM     34  C   UNL     1      -0.602  10.234   6.751  0.00  0.00    +0.041 A 
ATOM     35  C   UNL     1       0.195   9.218   6.254  0.00  0.00    +0.022 A 
ATOM     36  C   UNL     1       0.451   9.143   4.898  0.00  0.00    +0.030 A 
ATOM     37 CL   UNL     1      -0.924  10.330   8.454  0.00  0.00    -0.084 Cl
ENDBRANCH  28  31
ENDBRANCH   3  28
TORSDOF 6
