REMARK  Name = ZINC06282667
REMARK  10 active torsions:
REMARK  status: ('A' for Active; 'I' for Inactive)
REMARK    1  A    between atoms: C_1  and  O_2
REMARK    2  A    between atoms: O_2  and  C_3
REMARK    3  A    between atoms: C_10  and  C_15
REMARK    4  A    between atoms: C_15  and  C_17
REMARK    5  A    between atoms: C_15  and  N_69
REMARK    6  A    between atoms: N_21  and  C_22
REMARK    7  A    between atoms: C_27  and  C_28
REMARK    8  A    between atoms: C_27  and  N_69
REMARK    9  A    between atoms: C_33  and  C_34
REMARK   10  A    between atoms: C_33  and  N_69
REMARK                            x       y       z     vdW  Elec       q    Type
REMARK                         _______ _______ _______ _____ _____    ______ ____
ROOT
ATOM      1  C   UNL     1       4.838  -2.518   0.175  0.00  0.00    +0.039 C 
ENDROOT
BRANCH   1   9
ATOM      2  C   UNL     1      -1.296  -2.640  -0.712  0.00  0.00    +0.121 A 
ATOM      3  C   UNL     1      -1.636  -2.847   0.623  0.00  0.00    +0.047 A 
ATOM      4  C   UNL     1      -0.659  -2.947   1.588  0.00  0.00    +0.030 A 
ATOM      5  C   UNL     1       0.682  -2.841   1.234  0.00  0.00    +0.049 A 
ATOM      6  C   UNL     1       1.030  -2.631  -0.113  0.00  0.00    +0.002 A 
ATOM      7  C   UNL     1       0.029  -2.531  -1.085  0.00  0.00    +0.055 A 
ATOM      8  C   UNL     1       2.445  -2.521  -0.472  0.00  0.00    +0.017 A 
ATOM      9  C   UNL     1       3.373  -2.626   0.511  0.00  0.00    +0.011 A 
ATOM     10  C   UNL     1       2.972  -2.836   1.847  0.00  0.00    +0.251 A 
ATOM     11  O   UNL     1       3.823  -2.927   2.716  0.00  0.00    -0.268 OA
ATOM     12  N   UNL     1       1.676  -2.938   2.187  0.00  0.00    -0.322 N 
ATOM     13  H   UNL     1       1.435  -3.083   3.116  0.00  0.00    +0.169 HD
BRANCH   2  15
ATOM     14  C   UNL     1      -3.623  -2.665  -1.200  0.00  0.00    +0.277 C 
ATOM     15  O   UNL     1      -2.273  -2.544  -1.653  0.00  0.00    -0.495 OA
ENDBRANCH   2  15
ENDBRANCH   1   9
BRANCH   1  16
ATOM     16  C   UNL     1       5.008  -2.461  -1.322  0.00  0.00    +0.143 A 
ATOM     17  N   UNL     1       4.438  -3.245  -2.204  0.00  0.00    -0.115 NA
ATOM     18  N   UNL     1       4.831  -2.879  -3.375  0.00  0.00    -0.023 NA
ATOM     19  N   UNL     1       5.644  -1.887  -3.262  0.00  0.00    -0.044 NA
ATOM     20  N   UNL     1       5.778  -1.599  -2.011  0.00  0.00    -0.227 N 
BRANCH  20  21
ATOM     21  C   UNL     1       6.613  -0.536  -1.448  0.00  0.00    +0.111 C 
ATOM     22  C   UNL     1       6.207   0.827  -2.045  0.00  0.00    +0.027 C 
ATOM     23  C   UNL     1       7.547   1.588  -2.203  0.00  0.00    +0.002 C 
ATOM     24  C   UNL     1       8.523   0.471  -2.649  0.00  0.00    +0.002 C 
ATOM     25  C   UNL     1       8.086  -0.762  -1.832  0.00  0.00    +0.027 C 
ENDBRANCH  20  21
ENDBRANCH   1  16
BRANCH   1  26
ATOM     26  N   UNL     1       5.541  -3.693   0.731  0.00  0.00    +0.396 N 
ATOM     27  H   UNL     1       5.226  -3.844   1.696  0.00  0.00    -0.080 HD
BRANCH  26  28
ATOM     28  C   UNL     1       5.227  -4.895  -0.070  0.00  0.00    -0.002 C 
BRANCH  28  29
ATOM     29  C   UNL     1       3.867  -5.402   0.335  0.00  0.00    +0.089 A 
ATOM     30  C   UNL     1       2.716  -5.178  -0.325  0.00  0.00    +0.042 A 
ATOM     31  C   UNL     1       1.695  -5.834   0.400  0.00  0.00    +0.041 A 
ATOM     32  C   UNL     1       2.283  -6.419   1.459  0.00  0.00    +0.195 A 
ATOM     33  O   UNL     1       3.599  -6.159   1.411  0.00  0.00    -0.470 OA
ENDBRANCH  28  29
ENDBRANCH  26  28
BRANCH  26  34
ATOM     34  C   UNL     1       7.000  -3.455   0.734  0.00  0.00    -0.045 C 
BRANCH  34  35
ATOM     35  C   UNL     1       7.657  -4.447   1.695  0.00  0.00    +0.102 C 
ATOM     36  C   UNL     1       9.159  -4.125   1.857  0.00  0.00    +0.032 C 
ATOM     37  C   UNL     1       9.832  -5.512   1.954  0.00  0.00    +0.030 C 
ATOM     38  C   UNL     1       8.658  -6.509   1.839  0.00  0.00    +0.160 C 
ATOM     39  O   UNL     1       7.623  -5.781   1.141  0.00  0.00    -0.378 OA
ENDBRANCH  34  35
ENDBRANCH  26  34
ENDBRANCH   1  26
TORSDOF 9
