REMARK  Name = ZINC32634553
REMARK  5 active torsions:
REMARK  status: ('A' for Active; 'I' for Inactive)
REMARK    1  A    between atoms: C_4  and  O_7
REMARK    2  A    between atoms: O_7  and  C_8
REMARK    3  A    between atoms: C_8  and  C_9
REMARK    4  A    between atoms: C_9  and  N_11
REMARK    5  A    between atoms: N_13  and  C_24
REMARK                            x       y       z     vdW  Elec       q    Type
REMARK                         _______ _______ _______ _____ _____    ______ ____
ROOT
ATOM      1  N   UNL     1       5.127  -3.940  -0.058  0.00  0.00    -0.156 NA
ATOM      2  C   UNL     1       6.357  -4.425  -0.180  0.00  0.00    +0.154 C 
ATOM      3  N   UNL     1       7.552  -3.700  -0.204  0.00  0.00    -0.276 N 
ATOM      4  C   UNL     1       8.502  -4.345  -1.066  0.00  0.00    +0.116 C 
ATOM      5  C   UNL     1       9.917  -3.874  -1.326  0.00  0.00    +0.190 C 
ATOM      6  S   UNL     1      10.649  -5.426  -2.028  0.00  0.00    -0.028 S 
ATOM      7  O   UNL     1      11.758  -5.817  -1.231  0.00  0.00    -0.174 OA
ATOM      8  O   UNL     1      10.813  -5.268  -3.430  0.00  0.00    -0.174 OA
ATOM      9  C   UNL     1       9.235  -6.585  -1.708  0.00  0.00    +0.182 C 
ATOM     10  C   UNL     1       8.606  -5.820  -0.517  0.00  0.00    +0.097 C 
ATOM     11  S   UNL     1       6.803  -6.053  -0.333  0.00  0.00    -0.086 S 
ENDROOT
BRANCH   3  12
ATOM     12  C   UNL     1       7.787  -2.519   0.508  0.00  0.00    +0.037 A 
ATOM     13  C   UNL     1       7.803  -2.535   1.897  0.00  0.00    +0.023 A 
ATOM     14  C   UNL     1       8.036  -1.369   2.598  0.00  0.00    +0.003 A 
ATOM     15  C   UNL     1       8.253  -0.184   1.918  0.00  0.00    +0.015 A 
ATOM     16  C   UNL     1       8.238  -0.164   0.535  0.00  0.00    +0.020 A 
ATOM     17  C   UNL     1       8.012  -1.330  -0.172  0.00  0.00    +0.038 A 
ATOM     18 BR   UNL     1       8.535   1.459  -0.390  0.00  0.00    -0.050 Br
ENDBRANCH   3  12
BRANCH   1  19
ATOM     19  C   UNL     1       4.927  -2.624  -0.075  0.00  0.00    +0.276 C 
ATOM     20  O   UNL     1       5.364  -1.954  -0.990  0.00  0.00    -0.270 OA
BRANCH  19  21
ATOM     21  C   UNL     1       4.157  -1.965   1.041  0.00  0.00    +0.326 C 
BRANCH  21  22
ATOM     22  O   UNL     1       4.077  -0.559   0.798  0.00  0.00    -0.483 OA
BRANCH  22  26
ATOM     23  C   UNL     1       2.053   1.710   3.586  0.00  0.00    +0.000 A 
ATOM     24  C   UNL     1       2.616   2.318   2.479  0.00  0.00    +0.004 A 
ATOM     25  C   UNL     1       3.294   1.560   1.544  0.00  0.00    +0.045 A 
ATOM     26  C   UNL     1       3.410   0.188   1.717  0.00  0.00    +0.121 A 
ATOM     27  C   UNL     1       2.845  -0.419   2.829  0.00  0.00    +0.045 A 
ATOM     28  C   UNL     1       2.168   0.343   3.761  0.00  0.00    +0.004 A 
ENDBRANCH  22  26
ENDBRANCH  21  22
ENDBRANCH  19  21
ENDBRANCH   1  19
TORSDOF 5
