REMARK  Name = ZINC23887993
REMARK  6 active torsions:
REMARK  status: ('A' for Active; 'I' for Inactive)
REMARK    1  A    between atoms: C_1  and  C_2
REMARK    2  A    between atoms: C_2  and  C_3
REMARK    3  A    between atoms: C_9  and  C_11
REMARK    4  A    between atoms: C_11  and  C_13
REMARK    5  A    between atoms: C_11  and  N_21
REMARK    6  A    between atoms: C_24  and  C_27
REMARK                            x       y       z     vdW  Elec       q    Type
REMARK                         _______ _______ _______ _____ _____    ______ ____
ROOT
ATOM      1  C   UNL     1      -2.514   0.978   0.019  0.00  0.00    +0.006 C 
ENDROOT
BRANCH   1   8
ATOM      2  C   UNL     1      -4.612   0.129  -5.497  0.00  0.00    +0.152 A 
ATOM      3  N   UNL     1      -4.723   1.349  -4.975  0.00  0.00    -0.205 NA
ATOM      4  C   UNL     1      -4.216   1.351  -3.773  0.00  0.00    +0.199 A 
ATOM      5  N   UNL     1      -3.751   0.108  -3.470  0.00  0.00    -0.170 N 
ATOM      6  N   UNL     1      -4.033  -0.659  -4.631  0.00  0.00    -0.146 NA
ATOM      7  C   UNL     1      -3.177  -0.066  -2.234  0.00  0.00    +0.282 A 
ATOM      8  C   UNL     1      -3.095   0.953  -1.371  0.00  0.00    +0.050 A 
ATOM      9  S   UNL     1      -3.847   2.279  -2.303  0.00  0.00    -0.050 S 
ATOM     10  O   UNL     1      -2.690  -1.287  -1.883  0.00  0.00    -0.265 OA
BRANCH   2  12
ATOM     11  C   UNL     1      -3.951  -0.068  -7.879  0.00  0.00    +0.012 C 
ATOM     12  C   UNL     1      -5.081  -0.279  -6.870  0.00  0.00    +0.075 C 
ENDBRANCH   2  12
ENDBRANCH   1   8
BRANCH   1  13
ATOM     13  C   UNL     1      -1.200   1.717   0.002  0.00  0.00    -0.055 A 
ATOM     14  C   UNL     1      -0.012   1.017   0.103  0.00  0.00    +0.004 A 
ATOM     15  C   UNL     1       1.193   1.693   0.081  0.00  0.00    +0.021 A 
ATOM     16  C   UNL     1       1.211   3.072  -0.036  0.00  0.00    +0.059 A 
ATOM     17  C   UNL     1       0.021   3.773  -0.132  0.00  0.00    +0.059 A 
ATOM     18  C   UNL     1      -1.184   3.095  -0.110  0.00  0.00    +0.023 A 
ATOM     19 CL   UNL     1       0.042   5.503  -0.279  0.00  0.00    -0.082 Cl
ATOM     20 CL   UNL     1       2.725   3.921  -0.063  0.00  0.00    -0.082 Cl
ENDBRANCH   1  13
BRANCH   1  21
ATOM     21  N   UNL     1      -3.446   1.659   0.927  0.00  0.00    +0.387 N 
ATOM     22  C   UNL     1      -4.785   1.058   0.854  0.00  0.00    -0.077 C 
ATOM     23  C   UNL     1      -5.761   1.880   1.699  0.00  0.00    -0.015 C 
ATOM     24  C   UNL     1      -5.273   1.909   3.150  0.00  0.00    -0.018 C 
ATOM     25  C   UNL     1      -3.858   2.494   3.193  0.00  0.00    -0.015 C 
ATOM     26  C   UNL     1      -2.937   1.655   2.305  0.00  0.00    -0.077 C 
ATOM     27  C   UNL     1      -6.212   2.780   3.988  0.00  0.00    +0.007 C 
ATOM     28  H   UNL     1      -3.531   2.707   0.605  0.00  0.00    -0.080 HD
ENDBRANCH   1  21
TORSDOF 4
