REMARK  Name = ZINC35005545
REMARK  8 active torsions:
REMARK  status: ('A' for Active; 'I' for Inactive)
REMARK    1  A    between atoms: C_1  and  C_2
REMARK    2  A    between atoms: C_2  and  C_3
REMARK    3  A    between atoms: C_3  and  C_4
REMARK    4  A    between atoms: C_4  and  N_5
REMARK    5  A    between atoms: N_5  and  C_6
REMARK    6  A    between atoms: C_6  and  C_7
REMARK    7  A    between atoms: C_18  and  C_20
REMARK    8  A    between atoms: N_23  and  C_24
REMARK                            x       y       z     vdW  Elec       q    Type
REMARK                         _______ _______ _______ _____ _____    ______ ____
ROOT
ATOM      1  N   UNL     1       1.427  -2.485  -2.475  0.00  0.00    -0.277 N 
ATOM      2  C   UNL     1       0.724  -2.725  -3.599  0.00  0.00    +0.307 C 
ATOM      3  O   UNL     1       1.292  -3.125  -4.597  0.00  0.00    -0.252 OA
ATOM      4  N   UNL     1      -0.608  -2.521  -3.619  0.00  0.00    -0.269 N 
ATOM      5  H   UNL     1      -1.073  -2.280  -2.802  0.00  0.00    +0.156 HD
ENDROOT
BRANCH   4   6
ATOM      6  C   UNL     1      -1.318  -2.656  -4.813  0.00  0.00    +0.042 A 
ATOM      7  C   UNL     1      -0.681  -2.488  -6.024  0.00  0.00    +0.024 A 
ATOM      8  C   UNL     1      -1.379  -2.620  -7.220  0.00  0.00    +0.002 A 
ATOM      9  C   UNL     1      -2.708  -2.918  -7.229  0.00  0.00    +0.008 A 
ATOM     10  C   UNL     1      -3.395  -3.098  -6.017  0.00  0.00    -0.016 A 
ATOM     11  C   UNL     1      -2.693  -2.972  -4.792  0.00  0.00    +0.003 A 
ATOM     12  C   UNL     1      -3.379  -3.157  -3.582  0.00  0.00    +0.010 A 
ATOM     13  C   UNL     1      -4.707  -3.461  -3.599  0.00  0.00    +0.001 A 
ATOM     14  C   UNL     1      -5.396  -3.591  -4.803  0.00  0.00    +0.001 A 
ATOM     15  C   UNL     1      -4.766  -3.406  -5.995  0.00  0.00    +0.008 A 
ENDBRANCH   4   6
BRANCH   1  16
ATOM     16  C   UNL     1       0.742  -2.003  -1.272  0.00  0.00    +0.110 C 
BRANCH  16  17
ATOM     17  C   UNL     1       0.719  -0.473  -1.278  0.00  0.00    +0.019 C 
BRANCH  17  19
ATOM     18  C   UNL     1      -0.020   1.560  -0.028  0.00  0.00    +0.004 C 
ATOM     19  C   UNL     1       0.004   0.030  -0.022  0.00  0.00    -0.002 C 
ENDBRANCH  17  19
ENDBRANCH  16  17
ENDBRANCH   1  16
BRANCH   1  20
ATOM     20  C   UNL     1       2.875  -2.707  -2.454  0.00  0.00    +0.205 C 
BRANCH  20  21
ATOM     21  C   UNL     1       3.160  -4.124  -2.029  0.00  0.00    +0.233 C 
ATOM     22  O   UNL     1       2.244  -4.875  -1.769  0.00  0.00    -0.274 OA
ATOM     23  N   UNL     1       4.433  -4.557  -1.938  0.00  0.00    -0.293 N 
ATOM     24  C   UNL     1       5.567  -3.669  -2.241  0.00  0.00    +0.113 C 
ATOM     25  C   UNL     1       6.371  -3.478  -0.955  0.00  0.00    +0.054 C 
ATOM     26  C   UNL     1       6.626  -4.800  -0.281  0.00  0.00    -0.041 A 
ATOM     27  C   UNL     1       7.671  -4.867   0.633  0.00  0.00    +0.004 A 
ATOM     28  C   UNL     1       7.952  -6.045   1.292  0.00  0.00    +0.000 A 
ATOM     29  C   UNL     1       7.189  -7.171   1.045  0.00  0.00    +0.000 A 
ATOM     30  C   UNL     1       6.153  -7.109   0.136  0.00  0.00    +0.006 A 
ATOM     31  C   UNL     1       5.873  -5.925  -0.533  0.00  0.00    -0.024 A 
ATOM     32  C   UNL     1       4.744  -5.931  -1.528  0.00  0.00    +0.103 C 
ATOM     33  C   UNL     1       5.157  -6.747  -2.754  0.00  0.00    +0.033 C 
ENDBRANCH  20  21
ENDBRANCH   1  20
TORSDOF 6
