REMARK  Name = ZINC03960052
REMARK  15 active torsions:
REMARK  status: ('A' for Active; 'I' for Inactive)
REMARK    1  A    between atoms: C_1  and  C_2
REMARK    2  A    between atoms: C_2  and  C_3
REMARK    3  A    between atoms: C_2  and  C_4
REMARK    4  A    between atoms: C_2  and  C_5
REMARK    5  A    between atoms: C_8  and  C_10
REMARK    6  A    between atoms: C_10  and  S_11
REMARK    7  A    between atoms: S_11  and  C_12
REMARK    8  A    between atoms: C_21  and  C_24
REMARK    9  A    between atoms: C_24  and  N_61
REMARK   10  A    between atoms: C_25  and  C_26
REMARK   11  A    between atoms: C_25  and  N_61
REMARK   12  A    between atoms: C_26  and  C_27
REMARK   13  A    between atoms: C_26  and  C_28
REMARK   14  A    between atoms: C_26  and  C_29
REMARK   15  A    between atoms: C_29  and  O_30
REMARK                            x       y       z     vdW  Elec       q    Type
REMARK                         _______ _______ _______ _____ _____    ______ ____
ROOT
ATOM      1  C   UNL     1     -11.822   3.051  -2.359  0.00  0.00    +0.067 A 
ATOM      2  C   UNL     1     -12.976   3.367  -1.708  0.00  0.00    +0.135 A 
ATOM      3  N   UNL     1     -13.001   3.367  -0.387  0.00  0.00    -0.232 NA
ATOM      4  C   UNL     1     -11.926   3.066   0.319  0.00  0.00    +0.164 A 
ATOM      5  S   UNL     1     -10.737   2.735  -0.974  0.00  0.00    -0.046 S 
ATOM      6  N   UNL     1     -11.765   3.014   1.699  0.00  0.00    -0.279 N 
ATOM      7  C   UNL     1     -12.803   3.408   2.536  0.00  0.00    +0.124 A 
ATOM      8  C   UNL     1     -12.599   3.457   3.912  0.00  0.00    +0.044 A 
ATOM      9  C   UNL     1     -13.640   3.852   4.732  0.00  0.00    +0.006 A 
ATOM     10  C   UNL     1     -14.855   4.185   4.148  0.00  0.00    -0.046 A 
ATOM     11  C   UNL     1     -14.988   4.113   2.776  0.00  0.00    +0.114 A 
ATOM     12  N   UNL     1     -13.975   3.739   2.017  0.00  0.00    -0.240 NA
ATOM     13  H   UNL     1     -10.928   2.703   2.078  0.00  0.00    +0.155 HD
ENDROOT
BRANCH   1  14
ATOM     14  S   UNL     1     -11.493   2.969  -4.088  0.00  0.00    -0.107 S 
BRANCH  14  15
ATOM     15  C   UNL     1      -9.747   2.486  -4.180  0.00  0.00    +0.170 C 
BRANCH  15  19
ATOM     16  C   UNL     1      -8.941   1.580  -7.604  0.00  0.00    +0.131 A 
ATOM     17  C   UNL     1      -8.588   2.876  -7.581  0.00  0.00    +0.156 A 
ATOM     18  N   UNL     1      -8.839   3.345  -6.346  0.00  0.00    -0.221 NA
ATOM     19  C   UNL     1      -9.331   2.379  -5.624  0.00  0.00    +0.206 A 
ATOM     20  O   UNL     1      -9.412   1.275  -6.379  0.00  0.00    -0.443 OA
BRANCH  16  22
ATOM     21  C   UNL     1      -7.377   0.542  -9.224  0.00  0.00    +0.019 C 
ATOM     22  C   UNL     1      -8.838   0.645  -8.782  0.00  0.00    +0.022 C 
ATOM     23  C   UNL     1      -9.683   1.185  -9.937  0.00  0.00    +0.019 C 
ATOM     24  C   UNL     1      -9.348  -0.740  -8.380  0.00  0.00    +0.019 C 
ENDBRANCH  16  22
ENDBRANCH  15  19
ENDBRANCH  14  15
ENDBRANCH   1  14
BRANCH  10  25
ATOM     25  C   UNL     1     -16.018   4.619   5.003  0.00  0.00    -0.045 C 
BRANCH  25  26
ATOM     26  N   UNL     1     -15.975   6.084   5.169  0.00  0.00    +0.382 N 
ATOM     27  H   UNL     1     -16.034   6.531   4.246  0.00  0.00    -0.085 HD
ATOM     28  H   UNL     1     -15.091   6.348   5.621  0.00  0.00    -0.085 HD
BRANCH  26  29
ATOM     29  C   UNL     1     -17.103   6.539   6.003  0.00  0.00    -0.074 C 
BRANCH  29  30
ATOM     30  C   UNL     1     -17.032   8.059   6.157  0.00  0.00    -0.027 C 
ATOM     31  C   UNL     1     -15.711   8.443   6.826  0.00  0.00    +0.011 C 
ATOM     32  C   UNL     1     -17.116   8.716   4.778  0.00  0.00    +0.011 C 
BRANCH  30  33
ATOM     33  C   UNL     1     -18.200   8.539   7.022  0.00  0.00    +0.160 C 
BRANCH  33  34
ATOM     34  O   UNL     1     -18.134   9.959   7.166  0.00  0.00    -0.395 OA
ATOM     35  H   UNL     1     -18.845  10.334   7.704  0.00  0.00    +0.209 HD
ENDBRANCH  33  34
ENDBRANCH  30  33
ENDBRANCH  29  30
ENDBRANCH  26  29
ENDBRANCH  25  26
ENDBRANCH  10  25
TORSDOF 10
