REMARK  Name = ZINC33937235
REMARK  12 active torsions:
REMARK  status: ('A' for Active; 'I' for Inactive)
REMARK    1  A    between atoms: C_1  and  C_2
REMARK    2  A    between atoms: C_2  and  C_3
REMARK    3  A    between atoms: C_2  and  C_4
REMARK    4  A    between atoms: C_4  and  C_6
REMARK    5  A    between atoms: C_4  and  N_18
REMARK    6  A    between atoms: N_10  and  C_11
REMARK    7  A    between atoms: C_11  and  C_12
REMARK    8  A    between atoms: N_18  and  C_19
REMARK    9  A    between atoms: N_18  and  C_34
REMARK   10  A    between atoms: C_19  and  C_20
REMARK   11  A    between atoms: C_24  and  O_32
REMARK   12  A    between atoms: O_32  and  C_33
REMARK                            x       y       z     vdW  Elec       q    Type
REMARK                         _______ _______ _______ _____ _____    ______ ____
ROOT
ATOM      1  N   UNL     1       1.688  -1.857   1.230  0.00  0.00    +0.391 N 
ATOM      2  H   UNL     1       2.586  -2.169   0.892  0.00  0.00    -0.080 HD
ENDROOT
BRANCH   1   3
ATOM      3  C   UNL     1       0.637  -2.281   0.296  0.00  0.00    -0.067 C 
ATOM      4  C   UNL     1       0.498  -3.818   0.321  0.00  0.00    -0.015 C 
ATOM      5  C   UNL     1       0.206  -4.196  -1.153  0.00  0.00    -0.002 C 
ATOM      6  C   UNL     1       1.108  -3.215  -1.942  0.00  0.00    -0.002 C 
ATOM      7  C   UNL     1       1.025  -1.898  -1.143  0.00  0.00    -0.015 C 
ENDBRANCH   1   3
BRANCH   1   8
ATOM      8  C   UNL     1       1.688  -0.391   1.335  0.00  0.00    +0.006 C 
BRANCH   8   9
ATOM      9  C   UNL     1       2.425   0.024   2.581  0.00  0.00    +0.138 A 
ATOM     10  N   UNL     1       3.576  -0.443   3.002  0.00  0.00    -0.115 NA
ATOM     11  N   UNL     1       3.873   0.161   4.100  0.00  0.00    -0.023 NA
ATOM     12  N   UNL     1       2.942   1.002   4.391  0.00  0.00    -0.044 NA
ATOM     13  N   UNL     1       2.034   0.950   3.476  0.00  0.00    -0.228 N 
BRANCH  13  14
ATOM     14  C   UNL     1       0.807   1.748   3.422  0.00  0.00    +0.178 C 
BRANCH  14  15
ATOM     15  C   UNL     1      -0.315   1.008   4.154  0.00  0.00    +0.140 C 
ATOM     16  C   UNL     1      -1.599   1.874   4.188  0.00  0.00    +0.035 C 
ATOM     17  C   UNL     1      -2.690   0.779   4.340  0.00  0.00    +0.031 C 
ATOM     18  C   UNL     1      -2.096  -0.390   3.526  0.00  0.00    +0.160 C 
ATOM     19  O   UNL     1      -0.681  -0.180   3.434  0.00  0.00    -0.375 OA
ENDBRANCH  14  15
ENDBRANCH  13  14
ENDBRANCH   8   9
BRANCH   8  21
ATOM     20  C   UNL     1       2.490   1.724   0.275  0.00  0.00    +0.006 C 
ATOM     21  C   UNL     1       2.380   0.207   0.109  0.00  0.00    -0.024 C 
ATOM     22  C   UNL     1       3.780  -0.393  -0.030  0.00  0.00    +0.006 C 
ENDBRANCH   8  21
ENDBRANCH   1   8
BRANCH   1  23
ATOM     23  C   UNL     1       1.433  -2.442   2.554  0.00  0.00    -0.036 C 
BRANCH  23  24
ATOM     24  C   UNL     1       1.702  -3.924   2.508  0.00  0.00    +0.001 A 
ATOM     25  C   UNL     1       2.939  -4.376   2.184  0.00  0.00    +0.017 A 
ATOM     26  C   UNL     1       3.168  -5.822   2.148  0.00  0.00    +0.002 A 
ATOM     27  C   UNL     1       4.423  -6.346   1.821  0.00  0.00    +0.055 A 
ATOM     28  C   UNL     1       4.605  -7.713   1.798  0.00  0.00    +0.121 A 
ATOM     29  C   UNL     1       3.547  -8.569   2.097  0.00  0.00    +0.047 A 
ATOM     30  C   UNL     1       2.307  -8.065   2.420  0.00  0.00    +0.030 A 
ATOM     31  C   UNL     1       2.102  -6.689   2.450  0.00  0.00    +0.049 A 
ATOM     32  N   UNL     1       0.867  -6.165   2.772  0.00  0.00    -0.322 N 
ATOM     33  H   UNL     1       0.133  -6.764   2.980  0.00  0.00    +0.169 HD
ATOM     34  C   UNL     1       0.668  -4.836   2.808  0.00  0.00    +0.251 A 
ATOM     35  O   UNL     1      -0.435  -4.408   3.101  0.00  0.00    -0.268 OA
BRANCH  28  36
ATOM     36  O   UNL     1       5.823  -8.229   1.480  0.00  0.00    -0.495 OA
ATOM     37  C   UNL     1       5.943  -9.652   1.474  0.00  0.00    +0.277 C 
ENDBRANCH  28  36
ENDBRANCH  23  24
ENDBRANCH   1  23
TORSDOF 9
