REMARK  Name = ZINC03458630
REMARK  11 active torsions:
REMARK  status: ('A' for Active; 'I' for Inactive)
REMARK    1  A    between atoms: C_1  and  C_2
REMARK    2  A    between atoms: C_6  and  N_9
REMARK    3  A    between atoms: C_7  and  C_8
REMARK    4  A    between atoms: C_13  and  C_32
REMARK    5  A    between atoms: C_14  and  C_31
REMARK    6  A    between atoms: C_18  and  S_19
REMARK    7  A    between atoms: S_19  and  C_20
REMARK    8  A    between atoms: C_20  and  C_21
REMARK    9  A    between atoms: C_21  and  C_23
REMARK   10  A    between atoms: C_26  and  O_30
REMARK   11  A    between atoms: C_28  and  O_29
REMARK                            x       y       z     vdW  Elec       q    Type
REMARK                         _______ _______ _______ _____ _____    ______ ____
ROOT
ATOM      1  N   UNL     1      -2.429   1.039   0.020  0.00  0.00    -0.255 N 
ATOM      2  C   UNL     1      -2.991   0.697   1.193  0.00  0.00    +0.268 A 
ATOM      3  O   UNL     1      -2.459   1.004   2.246  0.00  0.00    -0.267 OA
ATOM      4  C   UNL     1      -4.221  -0.033   1.190  0.00  0.00    +0.076 A 
ATOM      5  C   UNL     1      -5.010  -0.510   2.312  0.00  0.00    -0.026 A 
ATOM      6  C   UNL     1      -6.147  -1.182   2.076  0.00  0.00    -0.008 A 
ATOM      7  S   UNL     1      -6.241  -1.223   0.296  0.00  0.00    -0.073 S 
ATOM      8  C   UNL     1      -4.750  -0.337  -0.079  0.00  0.00    +0.117 A 
ATOM      9  N   UNL     1      -4.144   0.031  -1.202  0.00  0.00    -0.215 NA
ATOM     10  C   UNL     1      -3.014   0.708  -1.170  0.00  0.00    +0.178 A 
ATOM     11  C   UNL     1      -7.113  -1.763   3.076  0.00  0.00    +0.052 C 
ATOM     12  C   UNL     1      -4.557  -0.253   3.727  0.00  0.00    +0.045 C 
ENDROOT
BRANCH   1  18
ATOM     13  C   UNL     1      -0.064   5.351   0.029  0.00  0.00    +0.044 C 
ATOM     14  C   UNL     1      -0.049   3.845   0.022  0.00  0.00    -0.046 A 
ATOM     15  C   UNL     1       1.156   3.166   0.007  0.00  0.00    +0.004 A 
ATOM     16  C   UNL     1       1.174   1.783   0.000  0.00  0.00    +0.002 A 
ATOM     17  C   UNL     1      -0.013   1.076   0.008  0.00  0.00    +0.026 A 
ATOM     18  C   UNL     1      -1.224   1.754   0.017  0.00  0.00    +0.055 A 
ATOM     19  C   UNL     1      -1.238   3.143   0.030  0.00  0.00    -0.024 A 
ATOM     20  C   UNL     1      -2.551   3.883   0.045  0.00  0.00    +0.046 C 
ENDBRANCH   1  18
BRANCH  10  21
ATOM     21  S   UNL     1      -2.244   1.185  -2.681  0.00  0.00    -0.079 S 
BRANCH  21  22
ATOM     22  C   UNL     1      -3.427   0.500  -3.867  0.00  0.00    +0.157 C 
BRANCH  22  23
ATOM     23  C   UNL     1      -2.961   0.795  -5.270  0.00  0.00    +0.177 C 
ATOM     24  O   UNL     1      -1.930   1.409  -5.449  0.00  0.00    -0.291 OA
BRANCH  23  25
ATOM     25  C   UNL     1      -3.752   0.341  -6.415  0.00  0.00    +0.060 A 
ATOM     26  C   UNL     1      -4.944  -0.369  -6.212  0.00  0.00    +0.018 A 
ATOM     27  C   UNL     1      -5.680  -0.790  -7.280  0.00  0.00    +0.046 A 
ATOM     28  C   UNL     1      -5.255  -0.519  -8.579  0.00  0.00    +0.120 A 
ATOM     29  C   UNL     1      -4.079   0.182  -8.800  0.00  0.00    +0.091 A 
ATOM     30  C   UNL     1      -3.324   0.620  -7.726  0.00  0.00    +0.131 A 
BRANCH  30  31
ATOM     31  O   UNL     1      -2.175   1.310  -7.935  0.00  0.00    -0.506 OA
ATOM     32  H   UNL     1      -1.389   0.753  -8.009  0.00  0.00    +0.292 HD
ENDBRANCH  30  31
BRANCH  28  33
ATOM     33  O   UNL     1      -5.997  -0.943  -9.633  0.00  0.00    -0.507 OA
ATOM     34  H   UNL     1      -6.662  -0.306  -9.928  0.00  0.00    +0.292 HD
ENDBRANCH  28  33
ENDBRANCH  23  25
ENDBRANCH  22  23
ENDBRANCH  21  22
ENDBRANCH  10  21
TORSDOF 7
