REMARK  Name = ZINC38653200
REMARK  8 active torsions:
REMARK  status: ('A' for Active; 'I' for Inactive)
REMARK    1  A    between atoms: C_1  and  C_2
REMARK    2  A    between atoms: C_4  and  C_31
REMARK    3  A    between atoms: C_8  and  C_12
REMARK    4  A    between atoms: C_12  and  C_14
REMARK    5  A    between atoms: C_12  and  S_15
REMARK    6  A    between atoms: S_15  and  C_16
REMARK    7  A    between atoms: C_20  and  C_23
REMARK    8  A    between atoms: N_21  and  N_22
REMARK                            x       y       z     vdW  Elec       q    Type
REMARK                         _______ _______ _______ _____ _____    ______ ____
ROOT
ATOM      1  C   UNL     1       7.419  -4.964  -0.534  0.00  0.00    +0.252 C 
ATOM      2  N   UNL     1       6.845  -6.114   0.185  0.00  0.00    -0.236 N 
ATOM      3  N   UNL     1       7.473  -6.150   1.435  0.00  0.00    -0.167 NA
ATOM      4  C   UNL     1       8.332  -5.193   1.562  0.00  0.00    +0.163 C 
ATOM      5  N   UNL     1       8.391  -4.397   0.416  0.00  0.00    -0.220 N 
ATOM      6  H   UNL     1       6.166  -6.725  -0.143  0.00  0.00    +0.171 HD
ENDROOT
BRANCH   4   7
ATOM      7  C   UNL     1       9.153  -4.970   2.770  0.00  0.00    +0.032 A 
ATOM      8  C   UNL     1       8.540  -4.787   4.011  0.00  0.00    +0.012 A 
ATOM      9  C   UNL     1       9.312  -4.579   5.135  0.00  0.00    +0.001 A 
ATOM     10  C   UNL     1      10.691  -4.550   5.035  0.00  0.00    +0.001 A 
ATOM     11  C   UNL     1      11.307  -4.729   3.809  0.00  0.00    +0.016 A 
ATOM     12  C   UNL     1      10.546  -4.945   2.677  0.00  0.00    +0.028 A 
ATOM     13 BR   UNL     1      11.389  -5.200   1.004  0.00  0.00    -0.050 Br
ENDBRANCH   4   7
BRANCH   5  14
ATOM     14  N   UNL     1       9.190  -3.307   0.214  0.00  0.00    -0.250 NA
ATOM     15  H   UNL     1       9.704  -3.076   1.051  0.00  0.00    +0.141 HD
ATOM     16  H   UNL     1       9.815  -3.456  -0.564  0.00  0.00    +0.141 HD
ENDBRANCH   5  14
BRANCH   1  17
ATOM     17  S   UNL     1       6.129  -3.750  -0.925  0.00  0.00    -0.106 S 
BRANCH  17  18
ATOM     18  C   UNL     1       5.405  -3.344   0.687  0.00  0.00    +0.112 C 
ATOM     19  C   UNL     1       6.454  -2.648   1.557  0.00  0.00    +0.027 C 
BRANCH  18  26
ATOM     20  C   UNL     1       0.545   2.068   1.555  0.00  0.00    +0.024 C 
ATOM     21  C   UNL     1       0.442   0.547   1.422  0.00  0.00    +0.076 C 
ATOM     22  C   UNL     1       1.013   0.079   0.103  0.00  0.00    -0.045 C 
ATOM     23  C   UNL     1       2.070  -0.746   0.139  0.00  0.00    +0.071 C 
ATOM     24  C   UNL     1       2.595  -1.133   1.466  0.00  0.00    +0.111 C 
ATOM     25  N   UNL     1       3.626  -1.938   1.566  0.00  0.00    -0.226 NA
ATOM     26  C   UNL     1       4.226  -2.426   0.491  0.00  0.00    +0.136 C 
ATOM     27  N   UNL     1       3.848  -2.152  -0.734  0.00  0.00    -0.160 NA
ATOM     28  C   UNL     1       2.816  -1.349  -1.012  0.00  0.00    +0.271 C 
ATOM     29  O   UNL     1       2.492  -1.116  -2.164  0.00  0.00    -0.268 OA
ATOM     30  S   UNL     1       1.546  -0.295   2.628  0.00  0.00    -0.098 S 
ATOM     31  C   UNL     1       0.414   0.523  -1.207  0.00  0.00    +0.041 C 
ENDBRANCH  18  26
ENDBRANCH  17  18
ENDBRANCH   1  17
TORSDOF 5
