REMARK  Name = ZINC06193660
REMARK  8 active torsions:
REMARK  status: ('A' for Active; 'I' for Inactive)
REMARK    1  A    between atoms: C_1  and  C_2
REMARK    2  A    between atoms: C_4  and  C_40
REMARK    3  A    between atoms: C_7  and  C_14
REMARK    4  A    between atoms: C_14  and  C_16
REMARK    5  A    between atoms: C_14  and  N_69
REMARK    6  A    between atoms: N_20  and  C_21
REMARK    7  A    between atoms: C_21  and  C_22
REMARK    8  A    between atoms: N_30  and  C_33
REMARK                            x       y       z     vdW  Elec       q    Type
REMARK                         _______ _______ _______ _____ _____    ______ ____
ROOT
ATOM      1  C   UNL     1       1.997   6.368  -1.873  0.00  0.00    +0.039 C 
ENDROOT
BRANCH   1   8
ATOM      2  C   UNL     1      -4.599   3.791  -5.542  0.00  0.00    +0.044 C 
ATOM      3  C   UNL     1      -3.280   4.056  -4.864  0.00  0.00    -0.048 A 
ATOM      4  C   UNL     1      -2.383   3.014  -4.673  0.00  0.00    +0.007 A 
ATOM      5  C   UNL     1      -1.182   3.233  -4.061  0.00  0.00    -0.041 A 
ATOM      6  C   UNL     1      -0.852   4.519  -3.622  0.00  0.00    +0.002 A 
ATOM      7  C   UNL     1       0.428   4.790  -2.966  0.00  0.00    +0.018 A 
ATOM      8  C   UNL     1       0.691   6.056  -2.556  0.00  0.00    +0.011 A 
ATOM      9  C   UNL     1      -0.253   7.083  -2.772  0.00  0.00    +0.251 A 
ATOM     10  O   UNL     1       0.005   8.215  -2.399  0.00  0.00    -0.268 OA
ATOM     11  N   UNL     1      -1.429   6.845  -3.378  0.00  0.00    -0.322 N 
ATOM     12  H   UNL     1      -2.055   7.574  -3.510  0.00  0.00    +0.169 HD
ATOM     13  C   UNL     1      -1.759   5.579  -3.813  0.00  0.00    +0.050 A 
ATOM     14  C   UNL     1      -2.976   5.332  -4.439  0.00  0.00    +0.029 A 
ATOM     15  C   UNL     1      -0.217   2.093  -3.859  0.00  0.00    +0.044 C 
ENDBRANCH   1   8
BRANCH   1  21
ATOM     16  C   UNL     1       2.928   6.910  -4.042  0.00  0.00    -0.058 C 
ATOM     17  C   UNL     1       3.627   8.008  -4.846  0.00  0.00    +0.086 C 
ATOM     18  N   UNL     1       4.916   8.328  -4.215  0.00  0.00    -0.331 N 
ATOM     19  C   UNL     1       4.722   8.785  -2.832  0.00  0.00    +0.086 C 
ATOM     20  C   UNL     1       4.023   7.686  -2.028  0.00  0.00    -0.058 C 
ATOM     21  N   UNL     1       2.720   7.390  -2.660  0.00  0.00    +0.391 N 
ATOM     22  H   UNL     1       2.158   8.249  -2.686  0.00  0.00    -0.080 HD
BRANCH  18  23
ATOM     23  C   UNL     1       5.617   9.278  -4.963  0.00  0.00    +0.065 A 
ATOM     24  C   UNL     1       6.894   9.664  -4.577  0.00  0.00    +0.026 A 
ATOM     25  C   UNL     1       7.586  10.601  -5.320  0.00  0.00    +0.002 A 
ATOM     26  C   UNL     1       7.007  11.161  -6.444  0.00  0.00    +0.003 A 
ATOM     27  C   UNL     1       5.734  10.784  -6.830  0.00  0.00    +0.040 A 
ATOM     28  C   UNL     1       5.036   9.844  -6.093  0.00  0.00    +0.144 A 
ATOM     29  F   UNL     1       3.792   9.476  -6.471  0.00  0.00    -0.204 F 
ENDBRANCH  18  23
ENDBRANCH   1  21
BRANCH   1  30
ATOM     30  C   UNL     1       2.819   5.110  -1.761  0.00  0.00    +0.143 A 
ATOM     31  N   UNL     1       3.422   4.480  -2.740  0.00  0.00    -0.115 NA
ATOM     32  N   UNL     1       4.018   3.451  -2.243  0.00  0.00    -0.023 NA
ATOM     33  N   UNL     1       3.815   3.411  -0.973  0.00  0.00    -0.044 NA
ATOM     34  N   UNL     1       3.076   4.414  -0.638  0.00  0.00    -0.226 N 
BRANCH  34  35
ATOM     35  C   UNL     1       2.608   4.738   0.712  0.00  0.00    +0.182 C 
BRANCH  35  36
ATOM     36  C   UNL     1       1.347   3.967   1.006  0.00  0.00    -0.026 A 
ATOM     37  C   UNL     1       1.424   2.672   1.481  0.00  0.00    +0.005 A 
ATOM     38  C   UNL     1       0.267   1.965   1.750  0.00  0.00    +0.000 A 
ATOM     39  C   UNL     1      -0.967   2.551   1.539  0.00  0.00    +0.000 A 
ATOM     40  C   UNL     1      -1.043   3.849   1.069  0.00  0.00    +0.000 A 
ATOM     41  C   UNL     1       0.114   4.556   0.800  0.00  0.00    +0.005 A 
ENDBRANCH  35  36
ENDBRANCH  34  35
ENDBRANCH   1  30
TORSDOF 6
