REMARK  Name = ZINC02158348
REMARK  13 active torsions:
REMARK  status: ('A' for Active; 'I' for Inactive)
REMARK    1  A    between atoms: C_1  and  C_2
REMARK    2  A    between atoms: C_3  and  C_28
REMARK    3  A    between atoms: C_5  and  N_9
REMARK    4  A    between atoms: C_6  and  C_7
REMARK    5  A    between atoms: C_10  and  C_12
REMARK    6  A    between atoms: C_12  and  C_13
REMARK    7  A    between atoms: C_13  and  C_14
REMARK    8  A    between atoms: C_14  and  C_15
REMARK    9  A    between atoms: C_15  and  C_16
REMARK   10  A    between atoms: N_18  and  C_19
REMARK   11  A    between atoms: C_20  and  C_26
REMARK   12  A    between atoms: C_21  and  C_25
REMARK   13  A    between atoms: C_22  and  C_24
REMARK                            x       y       z     vdW  Elec       q    Type
REMARK                         _______ _______ _______ _____ _____    ______ ____
ROOT
ATOM      1  C   UNL     1      -0.753   1.593  -1.232  0.00  0.00    +0.010 C 
ENDROOT
BRANCH   1   2
ATOM      2  C   UNL     1      -0.013   1.086   0.008  0.00  0.00    +0.096 C 
BRANCH   2   4
ATOM      3  N   UNL     1      -0.242   1.246   2.466  0.00  0.00    -0.279 N 
ATOM      4  C   UNL     1      -0.718   1.572   1.248  0.00  0.00    +0.218 C 
ATOM      5  O   UNL     1      -1.714   2.256   1.150  0.00  0.00    -0.275 OA
ATOM      6  H   UNL     1       0.555   0.699   2.544  0.00  0.00    +0.155 HD
BRANCH   3  11
ATOM      7  C   UNL     1      -1.152   1.877   7.406  0.00  0.00    +0.045 C 
ATOM      8  C   UNL     1      -1.416   2.057   5.933  0.00  0.00    -0.025 A 
ATOM      9  C   UNL     1      -2.463   2.776   5.491  0.00  0.00    -0.008 A 
ATOM     10  S   UNL     1      -2.310   2.678   3.720  0.00  0.00    -0.078 S 
ATOM     11  C   UNL     1      -0.890   1.693   3.606  0.00  0.00    +0.086 A 
ATOM     12  C   UNL     1      -0.555   1.464   4.937  0.00  0.00    +0.095 A 
ATOM     13  C   UNL     1      -3.511   3.496   6.301  0.00  0.00    +0.052 C 
BRANCH  12  14
ATOM     14  C   UNL     1       0.612   0.662   5.308  0.00  0.00    +0.389 C 
ATOM     15  O   UNL     1       1.694   1.197   5.462  0.00  0.00    -0.240 OA
ATOM     16  O   UNL     1       0.488  -0.670   5.480  0.00  0.00    -0.240 OA
ENDBRANCH  12  14
ENDBRANCH   3  11
ENDBRANCH   2   4
ENDBRANCH   1   2
BRANCH   1  17
ATOM     17  C   UNL     1      -0.037   1.099  -2.490  0.00  0.00    +0.010 C 
BRANCH  17  18
ATOM     18  C   UNL     1      -0.777   1.606  -3.730  0.00  0.00    +0.096 C 
BRANCH  18  19
ATOM     19  C   UNL     1      -0.071   1.120  -4.970  0.00  0.00    +0.218 C 
ATOM     20  O   UNL     1       0.925   0.436  -4.872  0.00  0.00    -0.275 OA
ATOM     21  N   UNL     1      -0.548   1.446  -6.188  0.00  0.00    -0.279 N 
ATOM     22  H   UNL     1      -1.345   1.993  -6.266  0.00  0.00    +0.155 HD
BRANCH  21  23
ATOM     23  C   UNL     1       0.101   0.999  -7.328  0.00  0.00    +0.086 A 
ATOM     24  C   UNL     1      -0.234   1.228  -8.659  0.00  0.00    +0.095 A 
ATOM     25  C   UNL     1       0.627   0.635  -9.655  0.00  0.00    -0.025 A 
ATOM     26  C   UNL     1       1.674  -0.084  -9.213  0.00  0.00    -0.008 A 
ATOM     27  S   UNL     1       1.530   0.027  -7.442  0.00  0.00    -0.078 S 
ATOM     28  C   UNL     1       2.721  -0.804 -10.023  0.00  0.00    +0.052 C 
ATOM     29  C   UNL     1       0.362   0.814 -11.128  0.00  0.00    +0.045 C 
BRANCH  24  30
ATOM     30  C   UNL     1      -1.402   2.029  -9.030  0.00  0.00    +0.389 C 
ATOM     31  O   UNL     1      -1.291   3.230  -9.186  0.00  0.00    -0.240 OA
ATOM     32  O   UNL     1      -2.601   1.435  -9.200  0.00  0.00    -0.240 OA
ENDBRANCH  24  30
ENDBRANCH  21  23
ENDBRANCH  18  19
ENDBRANCH  17  18
ENDBRANCH   1  17
TORSDOF 9
