REMARK  Name = ZINC40110558
REMARK  10 active torsions:
REMARK  status: ('A' for Active; 'I' for Inactive)
REMARK    1  A    between atoms: C_1  and  N_2
REMARK    2  A    between atoms: N_2  and  C_3
REMARK    3  A    between atoms: N_2  and  S_4
REMARK    4  A    between atoms: S_4  and  C_7
REMARK    5  A    between atoms: C_10  and  C_13
REMARK    6  A    between atoms: C_13  and  C_15
REMARK    7  A    between atoms: N_19  and  C_30
REMARK    8  A    between atoms: C_20  and  C_22
REMARK    9  A    between atoms: C_30  and  C_31
REMARK   10  A    between atoms: C_31  and  O_32
REMARK                            x       y       z     vdW  Elec       q    Type
REMARK                         _______ _______ _______ _____ _____    ______ ____
ROOT
ATOM      1  C   UNL     1       6.225  -3.469  -2.994  0.00  0.00    +0.076 C 
ATOM      2  C   UNL     1       7.574  -3.578  -2.974  0.00  0.00    +0.249 C 
ATOM      3  C   UNL     1       7.951  -4.798  -2.230  0.00  0.00    +0.288 C 
ATOM      4  O   UNL     1       9.091  -5.172  -2.036  0.00  0.00    -0.266 OA
ATOM      5  N   UNL     1       6.846  -5.433  -1.798  0.00  0.00    -0.281 N 
ATOM      6  C   UNL     1       5.680  -4.655  -2.232  0.00  0.00    +0.145 C 
ATOM      7  O   UNL     1       8.439  -2.708  -3.544  0.00  0.00    -0.282 OA
ENDROOT
BRANCH   6   8
ATOM      8  C   UNL     1       4.892  -4.185  -1.037  0.00  0.00    -0.021 A 
ATOM      9  C   UNL     1       5.516  -3.454  -0.042  0.00  0.00    +0.007 A 
ATOM     10  C   UNL     1       4.794  -3.023   1.055  0.00  0.00    +0.022 A 
ATOM     11  C   UNL     1       3.447  -3.322   1.158  0.00  0.00    +0.059 A 
ATOM     12  C   UNL     1       2.823  -4.053   0.162  0.00  0.00    +0.060 A 
ATOM     13  C   UNL     1       3.546  -4.479  -0.938  0.00  0.00    +0.027 A 
ATOM     14 CL   UNL     1       1.133  -4.430   0.290  0.00  0.00    -0.082 Cl
ATOM     15 CL   UNL     1       2.541  -2.781   2.536  0.00  0.00    -0.082 Cl
ENDBRANCH   6   8
BRANCH   1  16
ATOM     16  C   UNL     1       5.443  -2.404  -3.629  0.00  0.00    +0.195 C 
ATOM     17  O   UNL     1       5.512  -1.264  -3.207  0.00  0.00    -0.287 OA
BRANCH  16  21
ATOM     18  C   UNL     1       2.935  -3.292  -6.940  0.00  0.00    +0.105 A 
ATOM     19  C   UNL     1       2.920  -2.024  -6.386  0.00  0.00    +0.029 A 
ATOM     20  C   UNL     1       3.732  -1.729  -5.310  0.00  0.00    +0.013 A 
ATOM     21  C   UNL     1       4.570  -2.713  -4.781  0.00  0.00    +0.022 A 
ATOM     22  C   UNL     1       4.580  -3.990  -5.346  0.00  0.00    +0.013 A 
ATOM     23  C   UNL     1       3.759  -4.274  -6.417  0.00  0.00    +0.029 A 
BRANCH  18  24
ATOM     24  S   UNL     1       1.895  -3.661  -8.314  0.00  0.00    +0.060 S 
ATOM     25  O   UNL     1       2.423  -4.833  -8.920  0.00  0.00    -0.153 OA
ATOM     26  O   UNL     1       1.722  -2.445  -9.030  0.00  0.00    -0.153 OA
BRANCH  24  28
ATOM     27  C   UNL     1      -0.640  -3.054  -7.596  0.00  0.00    +0.131 C 
ATOM     28  N   UNL     1       0.409  -4.069  -7.708  0.00  0.00    -0.183 NA
ATOM     29  C   UNL     1       0.145  -5.447  -7.284  0.00  0.00    +0.131 C 
ENDBRANCH  24  28
ENDBRANCH  18  24
ENDBRANCH  16  21
ENDBRANCH   1  16
BRANCH   5  30
ATOM     30  C   UNL     1       6.814  -6.676  -1.025  0.00  0.00    +0.137 C 
BRANCH  30  31
ATOM     31  C   UNL     1       6.998  -6.359   0.460  0.00  0.00    +0.175 C 
BRANCH  31  32
ATOM     32  O   UNL     1       5.850  -5.659   0.944  0.00  0.00    -0.393 OA
ATOM     33  H   UNL     1       5.898  -5.425   1.881  0.00  0.00    +0.209 HD
ENDBRANCH  31  32
ENDBRANCH  30  31
ENDBRANCH   5  30
TORSDOF 8
