REMARK  Name = ZINC39360303
REMARK  11 active torsions:
REMARK  status: ('A' for Active; 'I' for Inactive)
REMARK    1  A    between atoms: C_1  and  C_2
REMARK    2  A    between atoms: C_2  and  C_3
REMARK    3  A    between atoms: C_3  and  C_4
REMARK    4  A    between atoms: C_4  and  C_18
REMARK    5  A    between atoms: N_7  and  C_11
REMARK    6  A    between atoms: C_11  and  C_12
REMARK    7  A    between atoms: C_24  and  C_26
REMARK    8  A    between atoms: C_29  and  C_32
REMARK    9  A    between atoms: C_32  and  C_33
REMARK   10  A    between atoms: C_33  and  C_34
REMARK   11  A    between atoms: C_33  and  C_35
REMARK                            x       y       z     vdW  Elec       q    Type
REMARK                         _______ _______ _______ _____ _____    ______ ____
ROOT
ATOM      1  C   UNL     1      -1.413  -2.063   0.004  0.00  0.00    +0.115 C 
ATOM      2  C   UNL     1      -0.682  -2.594   1.222  0.00  0.00    +0.247 C 
ATOM      3  O   UNL     1      -0.982  -2.430   2.385  0.00  0.00    -0.273 OA
ATOM      4  N   UNL     1       0.371  -3.285   0.742  0.00  0.00    -0.222 N 
ATOM      5  C   UNL     1       0.407  -3.266  -0.595  0.00  0.00    +0.309 C 
ATOM      6  O   UNL     1       1.263  -3.820  -1.256  0.00  0.00    -0.252 OA
ATOM      7  N   UNL     1      -0.612  -2.565  -1.126  0.00  0.00    -0.285 N 
ATOM      8  H   UNL     1      -0.785  -2.418  -2.069  0.00  0.00    +0.151 HD
ENDROOT
BRANCH   1   9
ATOM      9  C   UNL     1      -2.837  -2.619  -0.057  0.00  0.00    +0.024 C 
ATOM     10  C   UNL     1      -3.660  -2.039   1.095  0.00  0.00    +0.025 C 
ATOM     11  C   UNL     1      -5.095  -2.571   1.011  0.00  0.00    +0.108 C 
ATOM     12  N   UNL     1      -5.054  -4.039   0.978  0.00  0.00    -0.299 N 
ATOM     13  C   UNL     1      -4.219  -4.700  -0.035  0.00  0.00    +0.108 C 
ATOM     14  C   UNL     1      -2.794  -4.144   0.062  0.00  0.00    +0.025 C 
ATOM     15  C   UNL     1      -5.768  -4.766   1.860  0.00  0.00    +0.246 C 
ATOM     16  O   UNL     1      -6.453  -4.208   2.691  0.00  0.00    -0.273 OA
BRANCH  15  17
ATOM     17  C   UNL     1      -5.715  -6.271   1.813  0.00  0.00    +0.238 C 
ATOM     18  C   UNL     1      -6.668  -6.809   0.761  0.00  0.00    +0.035 C 
ATOM     19  C   UNL     1      -7.531  -7.551   1.458  0.00  0.00    +0.062 C 
ATOM     20  N   UNL     1      -7.228  -7.531   2.775  0.00  0.00    -0.158 NA
ATOM     21  N   UNL     1      -6.236  -6.849   3.064  0.00  0.00    -0.170 NA
BRANCH  19  22
ATOM     22  C   UNL     1      -8.688  -8.309   0.858  0.00  0.00    +0.060 C 
BRANCH  22  23
ATOM     23  C   UNL     1      -8.267  -9.756   0.592  0.00  0.00    -0.011 C 
ATOM     24  C   UNL     1      -7.971 -10.453   1.922  0.00  0.00    +0.007 C 
ATOM     25  C   UNL     1      -9.397 -10.492  -0.130  0.00  0.00    +0.007 C 
ENDBRANCH  22  23
ENDBRANCH  19  22
ENDBRANCH  15  17
ENDBRANCH   1   9
BRANCH   1  26
ATOM     26  C   UNL     1      -1.433  -0.534   0.013  0.00  0.00    +0.035 C 
BRANCH  26  28
ATOM     27  C   UNL     1      -0.019   1.526   0.010  0.00  0.00    +0.004 C 
ATOM     28  C   UNL     1       0.002  -0.004   0.002  0.00  0.00    -0.001 C 
ENDBRANCH  26  28
ENDBRANCH   1  26
BRANCH   4  29
ATOM     29  C   UNL     1       1.356  -3.972   1.582  0.00  0.00    +0.149 C 
BRANCH  29  30
ATOM     30  C   UNL     1       0.895  -5.409   1.836  0.00  0.00    +0.136 C 
ATOM     31  C   UNL     1       1.906  -6.144   2.752  0.00  0.00    +0.035 C 
ATOM     32  C   UNL     1       0.996  -7.234   3.381  0.00  0.00    +0.031 C 
ATOM     33  C   UNL     1      -0.360  -6.503   3.494  0.00  0.00    +0.160 C 
ATOM     34  O   UNL     1      -0.344  -5.414   2.562  0.00  0.00    -0.375 OA
ENDBRANCH  29  30
ENDBRANCH   4  29
TORSDOF 8
