REMARK  Name = ZINC00823788
REMARK  5 active torsions:
REMARK  status: ('A' for Active; 'I' for Inactive)
REMARK    1  A    between atoms: C_3  and  C_10
REMARK    2  A    between atoms: C_5  and  N_7
REMARK    3  A    between atoms: N_12  and  C_13
REMARK    4  A    between atoms: C_13  and  C_15
REMARK    5  A    between atoms: C_13  and  N_42
REMARK                            x       y       z     vdW  Elec       q    Type
REMARK                         _______ _______ _______ _____ _____    ______ ____
ROOT
ATOM      1  C   UNL     1      -0.582   5.693   0.204  0.00  0.00    +0.243 C 
ATOM      2  O   UNL     1      -1.456   6.530   0.089  0.00  0.00    -0.270 OA
ATOM      3  N   UNL     1       0.713   6.065   0.186  0.00  0.00    -0.321 N 
ATOM      4  H   UNL     1       1.411   5.397   0.278  0.00  0.00    +0.147 HD
ENDROOT
BRANCH   1   7
ATOM      5  C   UNL     1      -0.279   1.975   0.644  0.00  0.00    +0.003 A 
ATOM      6  C   UNL     1       0.062   3.304   0.496  0.00  0.00    +0.013 A 
ATOM      7  C   UNL     1      -0.940   4.267   0.363  0.00  0.00    +0.039 A 
ATOM      8  C   UNL     1      -2.280   3.879   0.382  0.00  0.00    +0.045 A 
ATOM      9  C   UNL     1      -2.607   2.546   0.525  0.00  0.00    +0.127 A 
ATOM     10  C   UNL     1      -1.609   1.597   0.661  0.00  0.00    +0.033 A 
BRANCH   9  11
ATOM     11  N   UNL     1      -4.028   2.132   0.538  0.00  0.00    +0.056 N 
ATOM     12  O   UNL     1      -4.318   0.956   0.669  0.00  0.00    -0.126 OA
ATOM     13  O   UNL     1      -4.907   2.966   0.418  0.00  0.00    -0.126 OA
ENDBRANCH   9  11
ENDBRANCH   1   7
BRANCH   3  14
ATOM     14  C   UNL     1       1.068   7.478   0.029  0.00  0.00    +0.071 C 
BRANCH  14  21
ATOM     15  C   UNL     1       1.973   9.119  -1.518  0.00  0.00    -0.076 C 
ATOM     16  C   UNL     1       2.226   9.471  -2.959  0.00  0.00    -0.018 C 
ATOM     17  C   UNL     1       0.931  10.064  -3.553  0.00  0.00    -0.002 C 
ATOM     18  C   UNL     1      -0.043   9.032  -3.892  0.00  0.00    -0.002 C 
ATOM     19  C   UNL     1      -0.483   8.217  -2.658  0.00  0.00    -0.018 C 
ATOM     20  C   UNL     1       0.593   7.215  -2.340  0.00  0.00    -0.076 C 
ATOM     21  N   UNL     1       1.603   7.675  -1.328  0.00  0.00    +0.395 N 
ATOM     22  H   UNL     1       2.451   7.107  -1.435  0.00  0.00    -0.079 HD
ENDBRANCH  14  21
BRANCH  14  23
ATOM     23  C   UNL     1       2.160   7.845   1.035  0.00  0.00    +0.194 C 
ATOM     24 CL   UNL     1       3.689   6.992   0.600  0.00  0.00    -0.084 Cl
ATOM     25 CL   UNL     1       2.435   9.626   1.000  0.00  0.00    -0.084 Cl
ATOM     26 CL   UNL     1       1.645   7.348   2.690  0.00  0.00    -0.084 Cl
ENDBRANCH  14  23
ENDBRANCH   3  14
TORSDOF 5
