REMARK  Name = ZINC04834215
REMARK  8 active torsions:
REMARK  status: ('A' for Active; 'I' for Inactive)
REMARK    1  A    between atoms: C_1  and  C_2
REMARK    2  A    between atoms: C_5  and  N_11
REMARK    3  A    between atoms: C_6  and  N_8
REMARK    4  A    between atoms: C_12  and  C_14
REMARK    5  A    between atoms: C_14  and  O_15
REMARK    6  A    between atoms: O_15  and  C_16
REMARK    7  A    between atoms: C_18  and  C_24
REMARK    8  A    between atoms: C_20  and  C_22
REMARK                            x       y       z     vdW  Elec       q    Type
REMARK                         _______ _______ _______ _____ _____    ______ ____
ROOT
ATOM      1  N   UNL     1      -6.035   1.391   0.036  0.00  0.00    -0.281 N 
ATOM      2  C   UNL     1      -4.784   0.891   0.031  0.00  0.00    +0.255 C 
ATOM      3  O   UNL     1      -4.610  -0.309   0.038  0.00  0.00    -0.272 OA
ATOM      4  H   UNL     1      -6.176   2.348   0.111  0.00  0.00    +0.155 HD
ENDROOT
BRANCH   1   9
ATOM      5  C   UNL     1     -10.485  -2.103  -0.385  0.00  0.00    +0.044 C 
ATOM      6  C   UNL     1      -9.303  -1.175  -0.274  0.00  0.00    -0.048 A 
ATOM      7  C   UNL     1      -8.075  -1.557  -0.783  0.00  0.00    +0.005 A 
ATOM      8  C   UNL     1      -6.990  -0.709  -0.682  0.00  0.00    +0.026 A 
ATOM      9  C   UNL     1      -7.133   0.529  -0.068  0.00  0.00    +0.064 A 
ATOM     10  C   UNL     1      -8.366   0.907   0.447  0.00  0.00    +0.148 A 
ATOM     11  C   UNL     1      -9.449   0.057   0.338  0.00  0.00    +0.038 A 
BRANCH  10  12
ATOM     12  N   UNL     1      -8.521   2.223   1.107  0.00  0.00    +0.058 N 
ATOM     13  O   UNL     1      -9.577   2.518   1.637  0.00  0.00    -0.126 OA
ATOM     14  O   UNL     1      -7.592   3.011   1.119  0.00  0.00    -0.126 OA
ENDBRANCH  10  12
ENDBRANCH   1   9
BRANCH   2  15
ATOM     15  C   UNL     1      -3.600   1.824   0.017  0.00  0.00    +0.324 C 
BRANCH  15  16
ATOM     16  O   UNL     1      -2.392   1.061   0.014  0.00  0.00    -0.483 OA
BRANCH  16  17
ATOM     17  C   UNL     1      -1.224   1.755   0.002  0.00  0.00    +0.122 A 
ATOM     18  C   UNL     1      -0.013   1.078  -0.001  0.00  0.00    +0.050 A 
ATOM     19  C   UNL     1       1.173   1.785  -0.020  0.00  0.00    -0.033 A 
ATOM     20  C   UNL     1       1.155   3.169  -0.030  0.00  0.00    +0.024 A 
ATOM     21  C   UNL     1      -0.051   3.846  -0.020  0.00  0.00    -0.033 A 
ATOM     22  C   UNL     1      -1.240   3.143  -0.002  0.00  0.00    +0.050 A 
ATOM     23  C   UNL     1      -0.069   5.353  -0.030  0.00  0.00    +0.045 C 
ATOM     24 BR   UNL     1       2.780   4.135  -0.056  0.00  0.00    -0.050 Br
ATOM     25  C   UNL     1       2.488   1.050  -0.029  0.00  0.00    +0.045 C 
ENDBRANCH  16  17
ENDBRANCH  15  16
ENDBRANCH   2  15
TORSDOF 5
