REMARK  Name = ZINC50085276
REMARK  4 active torsions:
REMARK  status: ('A' for Active; 'I' for Inactive)
REMARK    1  A    between atoms: C_1  and  N_2
REMARK    2  A    between atoms: C_3  and  C_5
REMARK    3  A    between atoms: C_7  and  N_12
REMARK    4  A    between atoms: C_19  and  C_21
REMARK                            x       y       z     vdW  Elec       q    Type
REMARK                         _______ _______ _______ _____ _____    ______ ____
ROOT
ATOM      1  N   UNL     1      -0.598  -4.935  -1.125  0.00  0.00    -0.269 N 
ATOM      2  C   UNL     1      -0.472  -6.276  -1.170  0.00  0.00    +0.307 C 
ATOM      3  O   UNL     1       0.073  -6.867  -0.257  0.00  0.00    -0.252 OA
ATOM      4  N   UNL     1      -0.949  -6.963  -2.228  0.00  0.00    -0.282 N 
ATOM      5  C   UNL     1      -1.524  -6.370  -3.449  0.00  0.00    +0.110 C 
ATOM      6  C   UNL     1      -1.335  -7.451  -4.542  0.00  0.00    +0.021 C 
ATOM      7  C   UNL     1      -1.583  -8.754  -3.737  0.00  0.00    +0.024 C 
ATOM      8  C   UNL     1      -0.975  -8.427  -2.357  0.00  0.00    +0.081 C 
ATOM      9  H   UNL     1      -1.087  -4.470  -1.822  0.00  0.00    +0.156 HD
ENDROOT
BRANCH   1  12
ATOM     10  C   UNL     1       1.077  -2.237   0.749  0.00  0.00    +0.074 A 
ATOM     11  C   UNL     1       0.505  -2.954  -0.303  0.00  0.00    +0.039 A 
ATOM     12  C   UNL     1      -0.024  -4.213  -0.071  0.00  0.00    +0.036 A 
ATOM     13  C   UNL     1       0.014  -4.760   1.206  0.00  0.00    +0.026 A 
ATOM     14  C   UNL     1       0.579  -4.053   2.250  0.00  0.00    +0.041 A 
ATOM     15  C   UNL     1       1.116  -2.797   2.030  0.00  0.00    +0.136 A 
ATOM     16  F   UNL     1       1.672  -2.111   3.052  0.00  0.00    -0.205 F 
BRANCH  10  19
ATOM     17  C   UNL     1       2.167   0.975  -0.963  0.00  0.00    +0.128 C 
ATOM     18  N   UNL     1       1.604  -0.356  -0.725  0.00  0.00    -0.314 N 
ATOM     19  C   UNL     1       1.643  -0.894   0.510  0.00  0.00    +0.247 C 
ATOM     20  O   UNL     1       2.145  -0.274   1.427  0.00  0.00    -0.270 OA
ATOM     21  H   UNL     1       1.204  -0.852  -1.457  0.00  0.00    +0.149 HD
ENDBRANCH  10  19
ENDBRANCH   1  12
BRANCH   8  22
ATOM     22  C   UNL     1      -1.844  -9.031  -1.252  0.00  0.00    +0.010 C 
ATOM     23  C   UNL     1      -1.882 -10.553  -1.408  0.00  0.00    +0.005 C 
ATOM     24  C   UNL     1      -2.751 -11.157  -0.303  0.00  0.00    +0.000 C 
ATOM     25  C   UNL     1      -4.171 -10.599  -0.408  0.00  0.00    +0.000 C 
ATOM     26  C   UNL     1      -4.133  -9.077  -0.253  0.00  0.00    +0.000 C 
ATOM     27  C   UNL     1      -3.264  -8.473  -1.357  0.00  0.00    +0.005 C 
ENDBRANCH   8  22
TORSDOF 3
