REMARK  Name = ZINC04507348
REMARK  10 active torsions:
REMARK  status: ('A' for Active; 'I' for Inactive)
REMARK    1  A    between atoms: C_1  and  C_2
REMARK    2  A    between atoms: C_2  and  C_3
REMARK    3  A    between atoms: C_4  and  C_19
REMARK    4  A    between atoms: C_10  and  C_18
REMARK    5  A    between atoms: C_11  and  C_12
REMARK    6  A    between atoms: N_21  and  C_22
REMARK    7  A    between atoms: C_22  and  C_24
REMARK    8  A    between atoms: C_22  and  C_25
REMARK    9  A    between atoms: C_25  and  C_26
REMARK   10  A    between atoms: C_26  and  C_27
REMARK                            x       y       z     vdW  Elec       q    Type
REMARK                         _______ _______ _______ _____ _____    ______ ____
ROOT
ATOM      1  C   UNL     1      -2.145   1.065   1.294  0.00  0.00    +0.058 A 
ATOM      2  C   UNL     1      -3.179   1.829   0.789  0.00  0.00    +0.076 A 
ATOM      3  C   UNL     1      -4.491   1.298   0.798  0.00  0.00    +0.128 A 
ATOM      4  N   UNL     1      -4.710   0.100   1.280  0.00  0.00    -0.235 NA
ATOM      5  C   UNL     1      -3.711  -0.643   1.770  0.00  0.00    +0.164 A 
ATOM      6  N   UNL     1      -2.421  -0.176   1.780  0.00  0.00    -0.217 N 
ATOM      7  N   UNL     1      -1.610  -1.164   2.350  0.00  0.00    -0.169 NA
ATOM      8  C   UNL     1      -2.349  -2.196   2.672  0.00  0.00    +0.070 A 
ATOM      9  C   UNL     1      -3.679  -1.925   2.330  0.00  0.00    +0.049 A 
ATOM     10  C   UNL     1      -1.849  -3.469   3.307  0.00  0.00    +0.068 C 
ENDROOT
BRANCH   9  11
ATOM     11  C   UNL     1      -4.838  -2.827   2.526  0.00  0.00    -0.013 A 
ATOM     12  C   UNL     1      -5.857  -2.475   3.411  0.00  0.00    +0.009 A 
ATOM     13  C   UNL     1      -6.936  -3.317   3.586  0.00  0.00    +0.001 A 
ATOM     14  C   UNL     1      -7.003  -4.513   2.893  0.00  0.00    +0.000 A 
ATOM     15  C   UNL     1      -5.993  -4.870   2.018  0.00  0.00    +0.001 A 
ATOM     16  C   UNL     1      -4.912  -4.034   1.831  0.00  0.00    +0.009 A 
ENDBRANCH   9  11
BRANCH   2  17
ATOM     17  C   UNL     1      -2.920   3.178   0.249  0.00  0.00    +0.247 C 
ATOM     18  O   UNL     1      -1.778   3.582   0.147  0.00  0.00    -0.270 OA
ATOM     19  N   UNL     1      -3.949   3.960  -0.132  0.00  0.00    -0.309 N 
ATOM     20  H   UNL     1      -4.860   3.637  -0.051  0.00  0.00    +0.149 HD
BRANCH  19  21
ATOM     21  C   UNL     1      -3.691   5.299  -0.668  0.00  0.00    +0.070 C 
ATOM     22  C   UNL     1      -3.553   6.293   0.487  0.00  0.00    +0.028 C 
BRANCH  21  23
ATOM     23  C   UNL     1      -4.855   5.721  -1.567  0.00  0.00    +0.026 C 
BRANCH  23  24
ATOM     24  C   UNL     1      -4.915   4.801  -2.788  0.00  0.00    +0.037 C 
BRANCH  24  25
ATOM     25  C   UNL     1      -6.062   5.216  -3.674  0.00  0.00    -0.047 A 
ATOM     26  C   UNL     1      -7.314   4.661  -3.489  0.00  0.00    +0.003 A 
ATOM     27  C   UNL     1      -8.367   5.046  -4.298  0.00  0.00    +0.000 A 
ATOM     28  C   UNL     1      -8.165   5.977  -5.300  0.00  0.00    +0.000 A 
ATOM     29  C   UNL     1      -6.911   6.528  -5.488  0.00  0.00    +0.000 A 
ATOM     30  C   UNL     1      -5.859   6.147  -4.675  0.00  0.00    +0.003 A 
ENDBRANCH  24  25
ENDBRANCH  23  24
ENDBRANCH  21  23
ENDBRANCH  19  21
ENDBRANCH   2  17
BRANCH   1  32
ATOM     31  C   UNL     1      -0.086   1.337  -0.060  0.00  0.00    +0.010 C 
ATOM     32  C   UNL     1      -0.734   1.594   1.301  0.00  0.00    +0.053 C 
ENDBRANCH   1  32
TORSDOF 7
