REMARK  Name = ZINC39711533
REMARK  11 active torsions:
REMARK  status: ('A' for Active; 'I' for Inactive)
REMARK    1  A    between atoms: C_1  and  C_2
REMARK    2  A    between atoms: C_2  and  O_3
REMARK    3  A    between atoms: O_3  and  C_4
REMARK    4  A    between atoms: C_11  and  C_16
REMARK    5  A    between atoms: C_16  and  C_18
REMARK    6  A    between atoms: C_16  and  N_29
REMARK    7  A    between atoms: N_23  and  C_24
REMARK    8  A    between atoms: N_29  and  C_30
REMARK    9  A    between atoms: N_29  and  C_37
REMARK   10  A    between atoms: C_30  and  C_31
REMARK   11  A    between atoms: C_37  and  C_38
REMARK                            x       y       z     vdW  Elec       q    Type
REMARK                         _______ _______ _______ _____ _____    ______ ____
ROOT
ATOM      1  C   UNL     1       4.191  -6.626   3.806  0.00  0.00    -0.008 C 
ENDROOT
BRANCH   1   9
ATOM      2  C   UNL     1       2.030  -1.684   1.573  0.00  0.00    +0.121 A 
ATOM      3  C   UNL     1       1.279  -2.387   0.622  0.00  0.00    +0.047 A 
ATOM      4  C   UNL     1       1.096  -3.731   0.684  0.00  0.00    +0.027 A 
ATOM      5  C   UNL     1       1.666  -4.484   1.728  0.00  0.00    +0.041 A 
ATOM      6  N   UNL     1       1.478  -5.803   1.775  0.00  0.00    -0.285 N 
ATOM      7  C   UNL     1       1.983  -6.571   2.726  0.00  0.00    +0.223 C 
ATOM      8  O   UNL     1       1.777  -7.770   2.716  0.00  0.00    -0.275 OA
ATOM      9  C   UNL     1       2.817  -5.953   3.825  0.00  0.00    +0.088 C 
ATOM     10  C   UNL     1       3.034  -4.453   3.776  0.00  0.00    -0.006 C 
ATOM     11  C   UNL     1       2.461  -3.772   2.743  0.00  0.00    -0.004 A 
ATOM     12  C   UNL     1       2.626  -2.324   2.617  0.00  0.00    +0.055 A 
ATOM     13  H   UNL     1       0.945  -6.220   1.080  0.00  0.00    +0.155 HD
BRANCH   2  14
ATOM     14  O   UNL     1       2.171  -0.338   1.447  0.00  0.00    -0.492 OA
BRANCH  14  16
ATOM     15  C   UNL     1       1.794   1.787   0.360  0.00  0.00    +0.048 C 
ATOM     16  C   UNL     1       1.524   0.281   0.333  0.00  0.00    +0.225 C 
ENDBRANCH  14  16
ENDBRANCH   2  14
ENDBRANCH   1   9
BRANCH   1  17
ATOM     17  C   UNL     1       5.084  -5.992   4.874  0.00  0.00    +0.205 C 
ATOM     18  N   UNL     1       5.419  -4.609   4.509  0.00  0.00    -0.152 NA
ATOM     19  N   UNL     1       6.641  -4.514   4.383  0.00  0.00    -0.070 NA
ATOM     20  N   UNL     1       7.306  -5.717   4.620  0.00  0.00    -0.179 N 
ATOM     21  N   UNL     1       6.388  -6.687   4.936  0.00  0.00    -0.185 NA
ATOM     22  H   UNL     1       8.266  -5.847   4.571  0.00  0.00    +0.191 HD
BRANCH  21  23
ATOM     23  C   UNL     1       6.632  -7.229   6.279  0.00  0.00    +0.080 C 
ATOM     24  C   UNL     1       6.773  -6.078   7.296  0.00  0.00    +0.021 C 
ATOM     25  C   UNL     1       7.872  -6.566   8.272  0.00  0.00    +0.002 C 
ATOM     26  C   UNL     1       8.866  -7.293   7.332  0.00  0.00    +0.002 C 
ATOM     27  C   UNL     1       7.963  -8.002   6.302  0.00  0.00    +0.021 C 
ENDBRANCH  21  23
ENDBRANCH   1  17
BRANCH   1  28
ATOM     28  N   UNL     1       4.038  -8.060   4.084  0.00  0.00    +0.392 N 
ATOM     29  H   UNL     1       3.351  -8.453   3.457  0.00  0.00    -0.080 HD
BRANCH  28  30
ATOM     30  C   UNL     1       5.326  -8.738   3.887  0.00  0.00    -0.040 C 
BRANCH  30  31
ATOM     31  C   UNL     1       5.121 -10.230   3.937  0.00  0.00    -0.046 A 
ATOM     32  C   UNL     1       5.209 -10.911   5.142  0.00  0.00    +0.005 A 
ATOM     33  C   UNL     1       5.013 -12.283   5.140  0.00  0.00    +0.020 A 
ATOM     34  C   UNL     1       4.740 -12.923   3.946  0.00  0.00    +0.111 A 
ATOM     35  N   UNL     1       4.664 -12.244   2.819  0.00  0.00    -0.263 NA
ATOM     36  C   UNL     1       4.838 -10.937   2.784  0.00  0.00    +0.112 A 
ENDBRANCH  30  31
ENDBRANCH  28  30
BRANCH  28  37
ATOM     37  C   UNL     1       3.595  -8.245   5.473  0.00  0.00    -0.002 C 
BRANCH  37  38
ATOM     38  C   UNL     1       2.089  -8.294   5.518  0.00  0.00    +0.089 A 
ATOM     39  C   UNL     1       1.329  -9.373   5.255  0.00  0.00    +0.042 A 
ATOM     40  C   UNL     1      -0.017  -8.973   5.415  0.00  0.00    +0.041 A 
ATOM     41  C   UNL     1       0.000  -7.675   5.766  0.00  0.00    +0.195 A 
ATOM     42  O   UNL     1       1.279  -7.271   5.832  0.00  0.00    -0.470 OA
ENDBRANCH  37  38
ENDBRANCH  28  37
ENDBRANCH   1  28
TORSDOF 10
