REMARK  Name = ZINC38747110
REMARK  5 active torsions:
REMARK  status: ('A' for Active; 'I' for Inactive)
REMARK    1  A    between atoms: C_1  and  C_2
REMARK    2  A    between atoms: C_10  and  S_14
REMARK    3  A    between atoms: S_14  and  C_15
REMARK    4  A    between atoms: C_15  and  C_16
REMARK    5  A    between atoms: N_18  and  C_19
REMARK                            x       y       z     vdW  Elec       q    Type
REMARK                         _______ _______ _______ _____ _____    ______ ____
ROOT
ATOM      1  S   UNL     1       5.751  -6.114   0.827  0.00  0.00    -0.079 S 
ENDROOT
BRANCH   1  10
ATOM      2  C   UNL     1      -0.085   1.469   0.022  0.00  0.00    +0.007 C 
ATOM      3  C   UNL     1      -0.053  -0.060   0.013  0.00  0.00    -0.012 C 
ATOM      4  C   UNL     1       0.648  -0.540  -1.255  0.00  0.00    +0.008 C 
ATOM      5  C   UNL     1       0.625  -2.073  -1.332  0.00  0.00    +0.033 C 
ATOM      6  C   UNL     1       1.200  -2.585  -0.013  0.00  0.00    -0.042 C 
ATOM      7  C   UNL     1       2.220  -3.433   0.091  0.00  0.00    +0.071 C 
ATOM      8  C   UNL     1       2.788  -3.689   1.444  0.00  0.00    +0.112 C 
ATOM      9  N   UNL     1       3.818  -4.471   1.636  0.00  0.00    -0.217 NA
ATOM     10  C   UNL     1       4.367  -5.057   0.560  0.00  0.00    +0.182 C 
ATOM     11  N   UNL     1       3.950  -4.902  -0.681  0.00  0.00    -0.151 NA
ATOM     12  C   UNL     1       2.913  -4.133  -1.043  0.00  0.00    +0.272 C 
ATOM     13  O   UNL     1       2.559  -4.011  -2.204  0.00  0.00    -0.268 OA
ATOM     14  S   UNL     1       1.774  -2.749   2.541  0.00  0.00    -0.097 S 
ATOM     15  C   UNL     1       0.598  -2.084   1.300  0.00  0.00    +0.080 C 
ATOM     16  C   UNL     1       0.678  -0.556   1.265  0.00  0.00    +0.022 C 
ENDBRANCH   1  10
BRANCH   1  17
ATOM     17  C   UNL     1       6.187  -6.693  -0.836  0.00  0.00    +0.173 C 
BRANCH  17  18
ATOM     18  C   UNL     1       7.373  -7.619  -0.750  0.00  0.00    +0.227 C 
ATOM     19  O   UNL     1       7.875  -7.864   0.328  0.00  0.00    -0.275 OA
ATOM     20  N   UNL     1       7.877  -8.175  -1.869  0.00  0.00    -0.284 N 
ATOM     21  H   UNL     1       7.437  -8.032  -2.722  0.00  0.00    +0.155 HD
BRANCH  20  22
ATOM     22  C   UNL     1       9.032  -8.956  -1.802  0.00  0.00    +0.041 A 
ATOM     23  C   UNL     1       9.272  -9.749  -0.700  0.00  0.00    +0.024 A 
ATOM     24  C   UNL     1      10.420 -10.531  -0.623  0.00  0.00    +0.002 A 
ATOM     25  C   UNL     1      11.336 -10.537  -1.631  0.00  0.00    +0.008 A 
ATOM     26  C   UNL     1      11.128  -9.744  -2.772  0.00  0.00    -0.016 A 
ATOM     27  C   UNL     1       9.961  -8.947  -2.864  0.00  0.00    +0.003 A 
ATOM     28  C   UNL     1       9.753  -8.158  -4.007  0.00  0.00    +0.010 A 
ATOM     29  C   UNL     1      10.670  -8.173  -5.012  0.00  0.00    +0.001 A 
ATOM     30  C   UNL     1      11.816  -8.962  -4.925  0.00  0.00    +0.001 A 
ATOM     31  C   UNL     1      12.056  -9.730  -3.828  0.00  0.00    +0.008 A 
ENDBRANCH  20  22
ENDBRANCH  17  18
ENDBRANCH   1  17
TORSDOF 4
