REMARK  Name = ZINC40085641
REMARK  18 active torsions:
REMARK  status: ('A' for Active; 'I' for Inactive)
REMARK    1  A    between atoms: C_1  and  C_2
REMARK    2  A    between atoms: C_2  and  N_3
REMARK    3  A    between atoms: N_3  and  C_4
REMARK    4  A    between atoms: N_3  and  C_6
REMARK    5  A    between atoms: C_4  and  C_5
REMARK    6  A    between atoms: C_9  and  C_12
REMARK    7  A    between atoms: C_14  and  C_26
REMARK    8  A    between atoms: N_18  and  C_19
REMARK    9  A    between atoms: C_19  and  C_20
REMARK   10  A    between atoms: C_20  and  O_21
REMARK   11  A    between atoms: O_21  and  C_22
REMARK   12  A    between atoms: C_22  and  C_23
REMARK   13  A    between atoms: C_23  and  O_24
REMARK   14  A    between atoms: C_26  and  C_28
REMARK   15  A    between atoms: C_31  and  O_35
REMARK   16  A    between atoms: C_32  and  C_34
REMARK   17  A    between atoms: O_35  and  C_36
REMARK   18  A    between atoms: C_36  and  C_37
REMARK                            x       y       z     vdW  Elec       q    Type
REMARK                         _______ _______ _______ _____ _____    ______ ____
ROOT
ATOM      1  C   UNL     1      -2.240  -1.434  -5.918  0.00  0.00    +0.145 C 
ATOM      2  C   UNL     1      -2.385  -2.914  -6.183  0.00  0.00    +0.076 C 
ATOM      3  C   UNL     1      -1.804  -3.156  -7.381  0.00  0.00    +0.249 C 
ATOM      4  C   UNL     1      -1.274  -1.889  -7.928  0.00  0.00    +0.288 C 
ATOM      5  O   UNL     1      -0.697  -1.776  -8.992  0.00  0.00    -0.266 OA
ATOM      6  N   UNL     1      -1.528  -0.878  -7.075  0.00  0.00    -0.281 N 
ATOM      7  O   UNL     1      -1.720  -4.365  -7.983  0.00  0.00    -0.282 OA
ENDROOT
BRANCH   1  11
ATOM      8  C   UNL     1       0.028  -0.796  -2.352  0.00  0.00    +0.030 A 
ATOM      9  C   UNL     1      -1.321  -0.468  -2.387  0.00  0.00    +0.023 A 
ATOM     10  C   UNL     1      -2.051  -0.675  -3.541  0.00  0.00    +0.007 A 
ATOM     11  C   UNL     1      -1.440  -1.209  -4.661  0.00  0.00    -0.022 A 
ATOM     12  C   UNL     1      -0.097  -1.536  -4.630  0.00  0.00    +0.007 A 
ATOM     13  C   UNL     1       0.640  -1.327  -3.481  0.00  0.00    +0.023 A 
BRANCH   8  14
ATOM     14  N   UNL     1       0.769  -0.587  -1.187  0.00  0.00    -0.330 N 
BRANCH  14  16
ATOM     15  C   UNL     1       0.226   1.498  -0.031  0.00  0.00    +0.024 C 
ATOM     16  C   UNL     1       0.122  -0.028   0.002  0.00  0.00    +0.102 C 
ENDBRANCH  14  16
BRANCH  14  17
ATOM     17  C   UNL     1       2.193  -0.928  -1.154  0.00  0.00    +0.102 C 
ATOM     18  C   UNL     1       2.360  -2.378  -0.695  0.00  0.00    +0.024 C 
ENDBRANCH  14  17
ENDBRANCH   8  14
ENDBRANCH   1  11
BRANCH   2  19
ATOM     19  C   UNL     1      -3.031  -3.900  -5.310  0.00  0.00    +0.195 C 
ATOM     20  O   UNL     1      -2.369  -4.780  -4.792  0.00  0.00    -0.287 OA
BRANCH  19  21
ATOM     21  C   UNL     1      -4.484  -3.824  -5.060  0.00  0.00    +0.023 A 
ATOM     22  C   UNL     1      -5.266  -2.891  -5.748  0.00  0.00    +0.015 A 
ATOM     23  C   UNL     1      -6.620  -2.824  -5.512  0.00  0.00    +0.046 A 
ATOM     24  C   UNL     1      -7.211  -3.682  -4.591  0.00  0.00    +0.123 A 
ATOM     25  C   UNL     1      -6.437  -4.611  -3.904  0.00  0.00    -0.008 A 
ATOM     26  C   UNL     1      -5.082  -4.689  -4.139  0.00  0.00    +0.018 A 
ATOM     27  C   UNL     1      -7.082  -5.538  -2.907  0.00  0.00    +0.047 C 
BRANCH  24  28
ATOM     28  O   UNL     1      -8.546  -3.613  -4.361  0.00  0.00    -0.492 OA
BRANCH  28  29
ATOM     29  C   UNL     1      -9.282  -2.635  -5.100  0.00  0.00    +0.225 C 
ATOM     30  C   UNL     1     -10.759  -2.706  -4.709  0.00  0.00    +0.048 C 
ENDBRANCH  28  29
ENDBRANCH  24  28
ENDBRANCH  19  21
ENDBRANCH   2  19
BRANCH   6  31
ATOM     31  C   UNL     1      -1.159   0.527  -7.267  0.00  0.00    +0.137 C 
BRANCH  31  32
ATOM     32  C   UNL     1       0.229   0.775  -6.675  0.00  0.00    +0.179 C 
BRANCH  32  33
ATOM     33  O   UNL     1       1.201   0.026  -7.408  0.00  0.00    -0.376 OA
BRANCH  33  34
ATOM     34  C   UNL     1       2.539   0.188  -6.933  0.00  0.00    +0.187 C 
BRANCH  34  35
ATOM     35  C   UNL     1       3.488  -0.655  -7.787  0.00  0.00    +0.184 C 
BRANCH  35  36
ATOM     36  O   UNL     1       3.499  -0.153  -9.124  0.00  0.00    -0.393 OA
ATOM     37  H   UNL     1       4.081  -0.641  -9.723  0.00  0.00    +0.209 HD
ENDBRANCH  35  36
ENDBRANCH  34  35
ENDBRANCH  33  34
ENDBRANCH  32  33
ENDBRANCH  31  32
ENDBRANCH   6  31
TORSDOF 14
