REMARK  Name = ZINC20905340
REMARK  7 active torsions:
REMARK  status: ('A' for Active; 'I' for Inactive)
REMARK    1  A    between atoms: C_10  and  C_11
REMARK    2  A    between atoms: N_12  and  N_13
REMARK    3  A    between atoms: C_16  and  S_19
REMARK    4  A    between atoms: S_19  and  C_20
REMARK    5  A    between atoms: C_20  and  C_21
REMARK    6  A    between atoms: N_23  and  C_24
REMARK    7  A    between atoms: C_25  and  C_33
REMARK                            x       y       z     vdW  Elec       q    Type
REMARK                         _______ _______ _______ _____ _____    ______ ____
ROOT
ATOM      1  N   UNL     1      -4.374  13.293  -7.081  0.00  0.00    -0.205 N 
ATOM      2  C   UNL     1      -3.981  12.324  -6.169  0.00  0.00    +0.232 A 
ATOM      3  N   UNL     1      -3.757  11.004  -6.444  0.00  0.00    -0.186 NA
ATOM      4  C   UNL     1      -3.387  10.387  -5.283  0.00  0.00    +0.211 A 
ATOM      5  N   UNL     1      -3.386  11.287  -4.328  0.00  0.00    -0.144 NA
ATOM      6  N   UNL     1      -3.758  12.515  -4.891  0.00  0.00    -0.245 N 
ATOM      7  H   UNL     1      -4.533  13.022  -8.135  0.00  0.00    +0.177 HD
ATOM      8  H   UNL     1      -3.877  13.518  -4.455  0.00  0.00    +0.192 HD
ENDROOT
BRANCH   1  10
ATOM      9  C   UNL     1      -4.936  15.522  -7.515  0.00  0.00    +0.139 C 
ATOM     10  N   UNL     1      -4.567  14.615  -6.660  0.00  0.00    -0.188 NA
BRANCH   9  20
ATOM     11  C   UNL     1      -4.866  18.003  -2.993  0.00  0.00    +0.001 A 
ATOM     12  C   UNL     1      -4.667  16.678  -3.373  0.00  0.00    +0.001 A 
ATOM     13  C   UNL     1      -4.751  16.304  -4.681  0.00  0.00    +0.009 A 
ATOM     14  C   UNL     1      -5.040  17.264  -5.658  0.00  0.00    -0.009 A 
ATOM     15  C   UNL     1      -5.243  18.613  -5.276  0.00  0.00    -0.017 A 
ATOM     16  C   UNL     1      -5.149  18.962  -3.917  0.00  0.00    +0.008 A 
ATOM     17  C   UNL     1      -5.534  19.573  -6.258  0.00  0.00    +0.008 A 
ATOM     18  C   UNL     1      -5.622  19.220  -7.570  0.00  0.00    +0.001 A 
ATOM     19  C   UNL     1      -5.424  17.913  -7.992  0.00  0.00    +0.010 A 
ATOM     20  C   UNL     1      -5.139  16.910  -7.073  0.00  0.00    +0.002 A 
ENDBRANCH   9  20
ENDBRANCH   1  10
BRANCH   4  21
ATOM     21  S   UNL     1      -2.987   8.681  -5.099  0.00  0.00    -0.075 S 
BRANCH  21  22
ATOM     22  C   UNL     1      -2.613   8.635  -3.329  0.00  0.00    +0.173 C 
BRANCH  22  23
ATOM     23  C   UNL     1      -2.233   7.232  -2.931  0.00  0.00    +0.228 C 
ATOM     24  O   UNL     1      -2.218   6.349  -3.763  0.00  0.00    -0.275 OA
ATOM     25  N   UNL     1      -1.911   6.958  -1.652  0.00  0.00    -0.278 N 
ATOM     26  H   UNL     1      -1.925   7.758  -0.897  0.00  0.00    +0.155 HD
BRANCH  25  27
ATOM     27  C   UNL     1      -1.562   5.665  -1.286  0.00  0.00    +0.090 A 
ATOM     28  C   UNL     1      -1.203   5.191  -0.033  0.00  0.00    +0.084 A 
ATOM     29  C   UNL     1      -0.880   3.780   0.086  0.00  0.00    -0.018 A 
ATOM     30  C   UNL     1      -0.967   3.072  -1.063  0.00  0.00    -0.004 A 
ATOM     31  S   UNL     1      -1.468   4.252  -2.284  0.00  0.00    -0.077 S 
ATOM     32  C   UNL     1      -0.694   1.611  -1.245  0.00  0.00    +0.043 C 
ATOM     33  C   UNL     1       0.063   1.103  -0.010  0.00  0.00    +0.005 C 
ATOM     34  C   UNL     1      -0.652   1.599   1.250  0.00  0.00    +0.005 C 
ATOM     35  C   UNL     1      -0.470   3.111   1.391  0.00  0.00    +0.037 C 
BRANCH  28  36
ATOM     36  C   UNL     1      -1.153   6.062   1.103  0.00  0.00    +0.102 C 
ATOM     37  N   UNL     1      -1.114   6.752   2.005  0.00  0.00    -0.191 NA
ENDBRANCH  28  36
ENDBRANCH  25  27
ENDBRANCH  22  23
ENDBRANCH  21  22
ENDBRANCH   4  21
TORSDOF 7
