REMARK  Name = ZINC38891612
REMARK  10 active torsions:
REMARK  status: ('A' for Active; 'I' for Inactive)
REMARK    1  A    between atoms: C_1  and  C_2
REMARK    2  A    between atoms: C_2  and  C_3
REMARK    3  A    between atoms: C_3  and  C_5
REMARK    4  A    between atoms: C_3  and  N_12
REMARK    5  A    between atoms: C_8  and  C_11
REMARK    6  A    between atoms: C_13  and  C_15
REMARK    7  A    between atoms: N_20  and  C_22
REMARK    8  A    between atoms: C_22  and  C_23
REMARK    9  A    between atoms: C_25  and  C_28
REMARK   10  A    between atoms: C_31  and  C_34
REMARK                            x       y       z     vdW  Elec       q    Type
REMARK                         _______ _______ _______ _____ _____    ______ ____
ROOT
ATOM      1  C   UNL     1      -3.381   1.458  -2.613  0.00  0.00    +0.058 C 
ATOM      2  C   UNL     1      -2.374   1.437  -3.766  0.00  0.00    +0.009 C 
ATOM      3  C   UNL     1      -3.067   1.916  -5.045  0.00  0.00    -0.018 C 
ATOM      4  C   UNL     1      -3.651   3.311  -4.810  0.00  0.00    -0.078 C 
ATOM      5  N   UNL     1      -4.625   3.260  -3.713  0.00  0.00    +0.386 N 
ATOM      6  C   UNL     1      -3.954   2.870  -2.468  0.00  0.00    -0.065 C 
ATOM      7  H   UNL     1      -5.342   2.584  -3.933  0.00  0.00    -0.081 HD
ENDROOT
BRANCH   1   9
ATOM      8  N   UNL     1      -2.105  -0.148  -1.230  0.00  0.00    -0.308 N 
ATOM      9  C   UNL     1      -2.690   1.062  -1.334  0.00  0.00    +0.215 C 
ATOM     10  O   UNL     1      -2.659   1.832  -0.397  0.00  0.00    -0.276 OA
ATOM     11  H   UNL     1      -2.130  -0.764  -1.980  0.00  0.00    +0.149 HD
BRANCH   8  12
ATOM     12  C   UNL     1      -1.433  -0.534   0.013  0.00  0.00    +0.103 C 
BRANCH  12  13
ATOM     13  C   UNL     1      -1.414  -2.036   0.129  0.00  0.00    -0.027 A 
ATOM     14  C   UNL     1      -1.167  -2.812  -0.989  0.00  0.00    +0.006 A 
ATOM     15  C   UNL     1      -1.149  -4.190  -0.883  0.00  0.00    +0.004 A 
ATOM     16  C   UNL     1      -1.377  -4.792   0.341  0.00  0.00    -0.050 A 
ATOM     17  C   UNL     1      -1.623  -4.016   1.458  0.00  0.00    +0.004 A 
ATOM     18  C   UNL     1      -1.637  -2.638   1.353  0.00  0.00    +0.006 A 
ATOM     19  C   UNL     1      -1.358  -6.295   0.456  0.00  0.00    +0.044 C 
ENDBRANCH  12  13
BRANCH  12  21
ATOM     20  C   UNL     1      -0.019   1.526   0.010  0.00  0.00    +0.006 C 
ATOM     21  C   UNL     1       0.002  -0.004   0.002  0.00  0.00    +0.024 C 
ENDBRANCH  12  21
ENDBRANCH   8  12
ENDBRANCH   1   9
BRANCH   5  22
ATOM     22  C   UNL     1      -5.239   4.583  -3.544  0.00  0.00    +0.022 C 
BRANCH  22  23
ATOM     23  C   UNL     1      -6.039   4.928  -4.773  0.00  0.00    +0.211 A 
ATOM     24  N   UNL     1      -7.299   4.655  -4.963  0.00  0.00    -0.193 NA
ATOM     25  C   UNL     1      -7.691   5.105  -6.168  0.00  0.00    +0.202 A 
ATOM     26  N   UNL     1      -6.668   5.673  -6.756  0.00  0.00    -0.056 NA
ATOM     27  O   UNL     1      -5.577   5.571  -5.853  0.00  0.00    -0.340 OA
BRANCH  25  28
ATOM     28  C   UNL     1      -9.056   4.978  -6.736  0.00  0.00    +0.022 A 
ATOM     29  C   UNL     1     -10.064   4.353  -6.004  0.00  0.00    +0.012 A 
ATOM     30  C   UNL     1     -11.331   4.238  -6.538  0.00  0.00    +0.004 A 
ATOM     31  C   UNL     1     -11.602   4.742  -7.798  0.00  0.00    -0.050 A 
ATOM     32  C   UNL     1     -10.606   5.363  -8.529  0.00  0.00    +0.004 A 
ATOM     33  C   UNL     1      -9.337   5.489  -8.002  0.00  0.00    +0.012 A 
ATOM     34  C   UNL     1     -12.988   4.612  -8.376  0.00  0.00    +0.044 C 
ENDBRANCH  25  28
ENDBRANCH  22  23
ENDBRANCH   5  22
TORSDOF 7
