REMARK  Name = ZINC35705894
REMARK  14 active torsions:
REMARK  status: ('A' for Active; 'I' for Inactive)
REMARK    1  A    between atoms: C_1  and  C_2
REMARK    2  A    between atoms: C_2  and  C_3
REMARK    3  A    between atoms: C_2  and  C_4
REMARK    4  A    between atoms: C_4  and  N_5
REMARK    5  A    between atoms: C_6  and  C_8
REMARK    6  A    between atoms: C_11  and  C_13
REMARK    7  A    between atoms: C_13  and  N_14
REMARK    8  A    between atoms: N_14  and  C_15
REMARK    9  A    between atoms: N_14  and  C_25
REMARK   10  A    between atoms: C_15  and  C_16
REMARK   11  A    between atoms: C_19  and  C_22
REMARK   12  A    between atoms: C_22  and  C_23
REMARK   13  A    between atoms: C_22  and  C_24
REMARK   14  A    between atoms: C_25  and  C_26
REMARK                            x       y       z     vdW  Elec       q    Type
REMARK                         _______ _______ _______ _____ _____    ______ ____
ROOT
ATOM      1  N   UNL     1      -3.308   0.182  -7.025  0.00  0.00    +0.391 N 
ATOM      2  H   UNL     1      -2.551  -0.420  -6.736  0.00  0.00    -0.080 HD
ENDROOT
BRANCH   1   3
ATOM      3  C   UNL     1      -3.760   0.985  -5.880  0.00  0.00    +0.020 C 
BRANCH   3   7
ATOM      4  C   UNL     1      -3.992  -1.143  -2.958  0.00  0.00    +0.163 A 
ATOM      5  C   UNL     1      -5.272  -1.213  -3.413  0.00  0.00    +0.230 A 
ATOM      6  O   UNL     1      -5.336  -0.454  -4.519  0.00  0.00    -0.449 OA
ATOM      7  C   UNL     1      -4.122   0.071  -4.738  0.00  0.00    +0.179 A 
ATOM      8  N   UNL     1      -3.308  -0.330  -3.808  0.00  0.00    -0.210 NA
BRANCH   4  10
ATOM      9  N   UNL     1      -2.154  -1.653  -1.428  0.00  0.00    -0.310 N 
ATOM     10  C   UNL     1      -3.449  -1.818  -1.765  0.00  0.00    +0.266 C 
ATOM     11  O   UNL     1      -4.169  -2.523  -1.084  0.00  0.00    -0.268 OA
ATOM     12  H   UNL     1      -1.580  -1.091  -1.971  0.00  0.00    +0.149 HD
BRANCH   9  13
ATOM     13  C   UNL     1      -1.615  -2.323  -0.242  0.00  0.00    +0.107 C 
BRANCH  13  15
ATOM     14  C   UNL     1       0.008  -0.474   0.194  0.00  0.00    +0.009 C 
ATOM     15  C   UNL     1      -0.134  -1.972  -0.087  0.00  0.00    -0.000 C 
ATOM     16  C   UNL     1       0.460  -2.768   1.077  0.00  0.00    +0.009 C 
ENDBRANCH  13  15
ENDBRANCH   9  13
ENDBRANCH   4  10
ENDBRANCH   3   7
ENDBRANCH   1   3
BRANCH   1  17
ATOM     17  C   UNL     1      -2.842   1.075  -8.095  0.00  0.00    -0.042 C 
BRANCH  17  18
ATOM     18  C   UNL     1      -1.613   1.815  -7.632  0.00  0.00    -0.064 A 
ATOM     19  C   UNL     1      -1.732   3.082  -7.092  0.00  0.00    +0.002 A 
ATOM     20  C   UNL     1      -0.605   3.761  -6.668  0.00  0.00    +0.004 A 
ATOM     21  C   UNL     1       0.641   3.172  -6.783  0.00  0.00    -0.045 A 
ATOM     22  C   UNL     1       0.759   1.904  -7.322  0.00  0.00    +0.004 A 
ATOM     23  C   UNL     1      -0.368   1.224  -7.742  0.00  0.00    +0.002 A 
BRANCH  21  24
ATOM     24  C   UNL     1       1.870   3.912  -6.321  0.00  0.00    +0.013 C 
ATOM     25  C   UNL     1       2.515   3.154  -5.160  0.00  0.00    +0.012 C 
ATOM     26  C   UNL     1       2.866   4.018  -7.478  0.00  0.00    +0.012 C 
ENDBRANCH  21  24
ENDBRANCH  17  18
ENDBRANCH   1  17
BRANCH   1  27
ATOM     27  C   UNL     1      -4.423  -0.635  -7.520  0.00  0.00    -0.042 C 
BRANCH  27  28
ATOM     28  C   UNL     1      -3.929  -1.550  -8.612  0.00  0.00    -0.060 A 
ATOM     29  C   UNL     1      -4.061  -1.176  -9.937  0.00  0.00    +0.005 A 
ATOM     30  C   UNL     1      -3.609  -2.010 -10.941  0.00  0.00    +0.050 A 
ATOM     31  C   UNL     1      -3.023  -3.225 -10.623  0.00  0.00    +0.166 A 
ATOM     32  C   UNL     1      -2.890  -3.601  -9.289  0.00  0.00    +0.166 A 
ATOM     33  C   UNL     1      -3.340  -2.757  -8.287  0.00  0.00    +0.051 A 
ATOM     34  O   UNL     1      -2.288  -4.826  -9.239  0.00  0.00    -0.453 OA
ATOM     35  C   UNL     1      -2.425  -5.375 -10.562  0.00  0.00    +0.466 C 
ATOM     36  O   UNL     1      -2.504  -4.213 -11.409  0.00  0.00    -0.453 OA
ENDBRANCH  27  28
ENDBRANCH   1  27
TORSDOF 10
