REMARK  Name = ZINC30886057
REMARK  12 active torsions:
REMARK  status: ('A' for Active; 'I' for Inactive)
REMARK    1  A    between atoms: C_1  and  C_2
REMARK    2  A    between atoms: C_3  and  C_15
REMARK    3  A    between atoms: C_4  and  C_14
REMARK    4  A    between atoms: C_8  and  O_12
REMARK    5  A    between atoms: N_10  and  C_11
REMARK    6  A    between atoms: O_12  and  C_13
REMARK    7  A    between atoms: C_15  and  C_16
REMARK    8  A    between atoms: C_16  and  C_17
REMARK    9  A    between atoms: N_19  and  C_20
REMARK   10  A    between atoms: N_19  and  C_21
REMARK   11  A    between atoms: C_21  and  C_22
REMARK   12  A    between atoms: N_24  and  C_25
REMARK                            x       y       z     vdW  Elec       q    Type
REMARK                         _______ _______ _______ _____ _____    ______ ____
ROOT
ATOM      1  C   UNL     1      -1.443   0.943   4.280  0.00  0.00    +0.216 C 
ATOM      2  O   UNL     1      -0.389   1.239   4.803  0.00  0.00    -0.276 OA
ATOM      3  N   UNL     1      -2.606   1.258   4.883  0.00  0.00    -0.296 N 
ATOM      4  C   UNL     1      -3.879   0.901   4.252  0.00  0.00    +0.132 C 
ENDROOT
BRANCH   1   5
ATOM      5  C   UNL     1      -1.451   0.222   2.957  0.00  0.00    +0.100 C 
BRANCH   5   6
ATOM      6  C   UNL     1      -0.012  -0.014   2.495  0.00  0.00    +0.046 C 
BRANCH   6   9
ATOM      7  C   UNL     1      -0.043   1.484   0.009  0.00  0.00    +0.045 C 
ATOM      8  C   UNL     1      -0.035  -0.023   0.000  0.00  0.00    -0.030 A 
ATOM      9  C   UNL     1      -0.020  -0.734   1.172  0.00  0.00    -0.022 A 
ATOM     10  C   UNL     1      -0.013  -2.121   1.133  0.00  0.00    +0.044 A 
ATOM     11  N   UNL     1      -0.021  -2.778  -0.007  0.00  0.00    -0.232 NA
ATOM     12  C   UNL     1      -0.035  -2.144  -1.173  0.00  0.00    +0.162 A 
ATOM     13  C   UNL     1      -0.049  -0.735  -1.204  0.00  0.00    +0.085 A 
ATOM     14  C   UNL     1      -0.071  -0.352  -2.615  0.00  0.00    +0.243 A 
ATOM     15  N   UNL     1      -0.076  -1.451  -3.320  0.00  0.00    -0.131 NA
ATOM     16  N   UNL     1      -0.046  -2.564  -2.474  0.00  0.00    -0.246 N 
ATOM     17  C   UNL     1      -0.042  -3.962  -2.913  0.00  0.00    +0.175 C 
ATOM     18  C   UNL     1       0.004  -2.893   2.427  0.00  0.00    +0.066 C 
BRANCH  14  19
ATOM     19  O   UNL     1      -0.086   0.916  -3.103  0.00  0.00    -0.478 OA
ATOM     20  C   UNL     1      -0.107   1.063  -4.525  0.00  0.00    +0.279 C 
ENDBRANCH  14  19
ENDBRANCH   6   9
ENDBRANCH   5   6
ENDBRANCH   1   5
BRANCH   3  21
ATOM     21  C   UNL     1      -2.598   1.959   6.170  0.00  0.00    +0.203 C 
BRANCH  21  22
ATOM     22  C   UNL     1      -2.609   3.447   5.932  0.00  0.00    +0.235 C 
ATOM     23  O   UNL     1      -2.622   3.880   4.798  0.00  0.00    -0.274 OA
ATOM     24  N   UNL     1      -2.603   4.297   6.978  0.00  0.00    -0.282 N 
ATOM     25  H   UNL     1      -2.666   3.906   8.004  0.00  0.00    +0.155 HD
BRANCH  24  26
ATOM     26  C   UNL     1      -2.519   5.679   6.757  0.00  0.00    +0.072 A 
ATOM     27  C   UNL     1      -3.129   6.244   5.646  0.00  0.00    +0.029 A 
ATOM     28  C   UNL     1      -3.049   7.606   5.431  0.00  0.00    +0.043 A 
ATOM     29  C   UNL     1      -2.353   8.409   6.319  0.00  0.00    +0.161 A 
ATOM     30  C   UNL     1      -1.738   7.848   7.428  0.00  0.00    +0.195 A 
ATOM     31  C   UNL     1      -1.820   6.484   7.649  0.00  0.00    +0.182 A 
ATOM     32  F   UNL     1      -1.222   5.936   8.729  0.00  0.00    -0.200 F 
ATOM     33  F   UNL     1      -1.059   8.633   8.293  0.00  0.00    -0.199 F 
ATOM     34  F   UNL     1      -2.273   9.741   6.104  0.00  0.00    -0.202 F 
ENDBRANCH  24  26
ENDBRANCH  21  22
ENDBRANCH   3  21
TORSDOF 7
