REMARK  Name = ZINC01904751
REMARK  12 active torsions:
REMARK  status: ('A' for Active; 'I' for Inactive)
REMARK    1  A    between atoms: C_1  and  C_2
REMARK    2  A    between atoms: C_2  and  O_3
REMARK    3  A    between atoms: O_3  and  C_4
REMARK    4  A    between atoms: C_4  and  C_6
REMARK    5  A    between atoms: C_10  and  N_11
REMARK    6  A    between atoms: C_12  and  C_14
REMARK    7  A    between atoms: C_14  and  C_16
REMARK    8  A    between atoms: C_14  and  N_20
REMARK    9  A    between atoms: C_16  and  C_17
REMARK   10  A    between atoms: C_17  and  C_18
REMARK   11  A    between atoms: C_17  and  C_19
REMARK   12  A    between atoms: C_32  and  C_36
REMARK                            x       y       z     vdW  Elec       q    Type
REMARK                         _______ _______ _______ _____ _____    ______ ____
ROOT
ATOM      1  N   UNL     1      -0.604  -2.455  -3.925  0.00  0.00    -0.278 N 
ATOM      2  C   UNL     1      -1.118  -2.782  -5.127  0.00  0.00    +0.239 C 
ATOM      3  O   UNL     1      -0.397  -3.225  -5.995  0.00  0.00    -0.273 OA
ATOM      4  H   UNL     1      -1.181  -2.101  -3.230  0.00  0.00    +0.155 HD
ENDROOT
BRANCH   1   9
ATOM      5  C   UNL     1       1.449  -2.344  -2.516  0.00  0.00    +0.091 A 
ATOM      6  C   UNL     1       2.876  -2.619  -2.515  0.00  0.00    -0.021 A 
ATOM      7  C   UNL     1       3.342  -3.119  -3.680  0.00  0.00    -0.004 A 
ATOM      8  S   UNL     1       1.922  -3.213  -4.730  0.00  0.00    -0.077 S 
ATOM      9  C   UNL     1       0.750  -2.624  -3.681  0.00  0.00    +0.086 A 
ATOM     10  C   UNL     1       4.756  -3.503  -3.991  0.00  0.00    +0.046 C 
ATOM     11  C   UNL     1       5.532  -3.600  -2.670  0.00  0.00    -0.009 C 
ATOM     12  C   UNL     1       5.244  -2.350  -1.833  0.00  0.00    +0.008 C 
ATOM     13  C   UNL     1       3.799  -2.381  -1.330  0.00  0.00    +0.037 C 
ATOM     14  C   UNL     1       7.031  -3.691  -2.961  0.00  0.00    +0.008 C 
BRANCH   5  15
ATOM     15  C   UNL     1       0.776  -1.800  -1.335  0.00  0.00    +0.342 C 
ATOM     16  O   UNL     1       0.312  -2.552  -0.499  0.00  0.00    -0.245 OA
BRANCH  15  17
ATOM     17  O   UNL     1       0.671  -0.465  -1.174  0.00  0.00    -0.461 OA
BRANCH  17  19
ATOM     18  C   UNL     1      -0.019   1.526   0.010  0.00  0.00    +0.048 C 
ATOM     19  C   UNL     1       0.002  -0.004   0.002  0.00  0.00    +0.229 C 
ENDBRANCH  17  19
ENDBRANCH  15  17
ENDBRANCH   5  15
ENDBRANCH   1   9
BRANCH   2  20
ATOM     20  C   UNL     1      -2.591  -2.598  -5.391  0.00  0.00    +0.171 C 
BRANCH  20  21
ATOM     21  N   UNL     1      -2.898  -3.023  -6.759  0.00  0.00    -0.222 N 
ATOM     22  C   UNL     1      -2.697  -4.266  -7.233  0.00  0.00    +0.254 C 
ATOM     23  O   UNL     1      -2.239  -5.199  -6.604  0.00  0.00    -0.270 OA
ATOM     24  C   UNL     1      -3.127  -4.307  -8.646  0.00  0.00    +0.049 A 
ATOM     25  C   UNL     1      -3.156  -5.291  -9.622  0.00  0.00    +0.014 A 
ATOM     26  C   UNL     1      -3.635  -4.990 -10.887  0.00  0.00    +0.001 A 
ATOM     27  C   UNL     1      -4.085  -3.717 -11.182  0.00  0.00    +0.001 A 
ATOM     28  C   UNL     1      -4.062  -2.723 -10.217  0.00  0.00    +0.014 A 
ATOM     29  C   UNL     1      -3.585  -3.008  -8.947  0.00  0.00    +0.049 A 
ATOM     30  C   UNL     1      -3.423  -2.224  -7.705  0.00  0.00    +0.254 C 
ATOM     31  O   UNL     1      -3.713  -1.053  -7.563  0.00  0.00    -0.270 OA
ENDBRANCH  20  21
BRANCH  20  32
ATOM     32  C   UNL     1      -3.396  -3.442  -4.402  0.00  0.00    +0.035 C 
BRANCH  32  33
ATOM     33  C   UNL     1      -4.888  -3.161  -4.588  0.00  0.00    -0.015 C 
ATOM     34  C   UNL     1      -5.700  -4.094  -3.687  0.00  0.00    +0.007 C 
ATOM     35  C   UNL     1      -5.184  -1.707  -4.213  0.00  0.00    +0.007 C 
ENDBRANCH  32  33
ENDBRANCH  20  32
ENDBRANCH   2  20
TORSDOF 8
