REMARK  Name = ZINC08790655
REMARK  7 active torsions:
REMARK  status: ('A' for Active; 'I' for Inactive)
REMARK    1  A    between atoms: C_1  and  C_2
REMARK    2  A    between atoms: C_2  and  C_3
REMARK    3  A    between atoms: C_17  and  C_19
REMARK    4  A    between atoms: C_19  and  C_20
REMARK    5  A    between atoms: C_20  and  C_21
REMARK    6  A    between atoms: N_26  and  C_29
REMARK    7  A    between atoms: C_29  and  C_30
REMARK                            x       y       z     vdW  Elec       q    Type
REMARK                         _______ _______ _______ _____ _____    ______ ____
ROOT
ATOM      1  C   UNL     1       6.944   5.982  -1.198  0.00  0.00    -0.026 A 
ATOM      2  C   UNL     1       6.833   6.371   0.121  0.00  0.00    +0.005 A 
ATOM      3  C   UNL     1       6.223   5.543   1.045  0.00  0.00    +0.001 A 
ATOM      4  C   UNL     1       5.722   4.316   0.644  0.00  0.00    +0.004 A 
ATOM      5  C   UNL     1       5.831   3.924  -0.670  0.00  0.00    -0.027 A 
ATOM      6  C   UNL     1       6.442   4.750  -1.610  0.00  0.00    +0.039 A 
ATOM      7  N   UNL     1       6.431   4.143  -2.867  0.00  0.00    -0.286 N 
ATOM      8  C   UNL     1       5.842   2.932  -2.841  0.00  0.00    +0.211 C 
ATOM      9  O   UNL     1       5.689   2.180  -3.781  0.00  0.00    -0.277 OA
ATOM     10  C   UNL     1       5.409   2.692  -1.421  0.00  0.00    +0.050 C 
ATOM     11  C   UNL     1       6.059   1.430  -0.842  0.00  0.00    +0.088 C 
ATOM     12  C   UNL     1       4.971   0.820   0.085  0.00  0.00    +0.073 C 
ATOM     13  C   UNL     1       3.771   1.784  -0.024  0.00  0.00    -0.057 C 
ATOM     14  C   UNL     1       4.626  -0.486  -0.594  0.00  0.00    +0.224 C 
ATOM     15  O   UNL     1       3.804  -1.284  -0.199  0.00  0.00    -0.275 OA
ATOM     16  N   UNL     1       5.371  -0.624  -1.697  0.00  0.00    -0.237 N 
ATOM     17  C   UNL     1       6.211   0.391  -1.930  0.00  0.00    +0.225 C 
ATOM     18  O   UNL     1       6.974   0.467  -2.869  0.00  0.00    -0.275 OA
ATOM     19  H   UNL     1       6.805   4.546  -3.666  0.00  0.00    +0.155 HD
ATOM     20  N   UNL     1       3.979   2.466  -1.304  0.00  0.00    +0.394 N 
ATOM     21  H   UNL     1       3.649   1.877  -2.078  0.00  0.00    -0.083 HD
ATOM     22  H   UNL     1       3.476   3.360  -1.316  0.00  0.00    -0.083 HD
ENDROOT
BRANCH   1  24
ATOM     23  C   UNL     1       6.550   7.729  -2.912  0.00  0.00    +0.009 C 
ATOM     24  C   UNL     1       7.612   6.893  -2.196  0.00  0.00    +0.033 C 
ENDBRANCH   1  24
BRANCH  13  25
ATOM     25  C   UNL     1       2.457   1.002  -0.016  0.00  0.00    -0.006 C 
BRANCH  25  26
ATOM     26  C   UNL     1       1.280   1.980   0.001  0.00  0.00    +0.094 C 
BRANCH  26  27
ATOM     27  C   UNL     1      -0.014   1.209   0.009  0.00  0.00    +0.210 C 
ATOM     28  O   UNL     1       0.002  -0.004   0.002  0.00  0.00    -0.276 OA
ATOM     29  N   UNL     1      -1.191   1.867   0.018  0.00  0.00    -0.329 N 
ATOM     30  H   UNL     1      -2.024   1.370   0.019  0.00  0.00    +0.145 HD
ATOM     31  H   UNL     1      -1.204   2.837   0.023  0.00  0.00    +0.145 HD
ENDBRANCH  26  27
ENDBRANCH  25  26
ENDBRANCH  13  25
BRANCH  16  32
ATOM     32  C   UNL     1       5.274  -1.791  -2.577  0.00  0.00    +0.151 C 
BRANCH  32  33
ATOM     33  C   UNL     1       6.246  -2.847  -2.118  0.00  0.00    -0.026 A 
ATOM     34  C   UNL     1       7.532  -2.868  -2.624  0.00  0.00    +0.009 A 
ATOM     35  C   UNL     1       8.429  -3.832  -2.203  0.00  0.00    +0.050 A 
ATOM     36  C   UNL     1       8.037  -4.788  -1.280  0.00  0.00    +0.166 A 
ATOM     37  C   UNL     1       6.739  -4.770  -0.774  0.00  0.00    +0.167 A 
ATOM     38  C   UNL     1       5.848  -3.798  -1.197  0.00  0.00    +0.054 A 
ATOM     39  O   UNL     1       6.601  -5.803   0.108  0.00  0.00    -0.453 OA
ATOM     40  C   UNL     1       7.942  -6.203   0.445  0.00  0.00    +0.466 C 
ATOM     41  O   UNL     1       8.711  -5.831  -0.715  0.00  0.00    -0.453 OA
ENDBRANCH  32  33
ENDBRANCH  16  32
TORSDOF 6
