REMARK  Name = ZINC36504087
REMARK  16 active torsions:
REMARK  status: ('A' for Active; 'I' for Inactive)
REMARK    1  A    between atoms: C_1  and  C_2
REMARK    2  A    between atoms: C_2  and  C_3
REMARK    3  A    between atoms: C_3  and  C_4
REMARK    4  A    between atoms: C_4  and  C_5
REMARK    5  A    between atoms: C_5  and  C_6
REMARK    6  A    between atoms: N_8  and  C_9
REMARK    7  A    between atoms: N_8  and  C_15
REMARK    8  A    between atoms: C_9  and  C_10
REMARK    9  A    between atoms: C_15  and  C_17
REMARK   10  A    between atoms: C_15  and  C_26
REMARK   11  A    between atoms: C_17  and  C_19
REMARK   12  A    between atoms: C_17  and  C_20
REMARK   13  A    between atoms: N_28  and  C_29
REMARK   14  A    between atoms: C_29  and  S_30
REMARK   15  A    between atoms: S_30  and  C_33
REMARK   16  A    between atoms: C_36  and  C_39
REMARK                            x       y       z     vdW  Elec       q    Type
REMARK                         _______ _______ _______ _____ _____    ______ ____
ROOT
ATOM      1  C   UNL     1      -4.075  -6.342   0.086  0.00  0.00    +0.169 C 
ENDROOT
BRANCH   1   2
ATOM      2  C   UNL     1      -4.877  -6.629  -1.158  0.00  0.00    +0.235 C 
ATOM      3  O   UNL     1      -5.153  -5.729  -1.923  0.00  0.00    -0.274 OA
ATOM      4  N   UNL     1      -5.288  -7.886  -1.419  0.00  0.00    -0.295 N 
ATOM      5  H   UNL     1      -5.135  -8.591  -0.771  0.00  0.00    +0.150 HD
BRANCH   4   6
ATOM      6  C   UNL     1      -5.965  -8.187  -2.683  0.00  0.00    +0.278 C 
BRANCH   6   7
ATOM      7  S   UNL     1      -4.754  -8.794  -3.889  0.00  0.00    +0.013 S 
ATOM      8  O   UNL     1      -5.405  -9.150  -5.101  0.00  0.00    -0.168 OA
ATOM      9  O   UNL     1      -3.611  -7.950  -3.902  0.00  0.00    -0.168 OA
BRANCH   7  10
ATOM     10  C   UNL     1      -4.178 -10.320  -3.223  0.00  0.00    +0.090 A 
ATOM     11  C   UNL     1      -3.085 -10.336  -2.376  0.00  0.00    +0.027 A 
ATOM     12  C   UNL     1      -2.633 -11.533  -1.853  0.00  0.00    +0.005 A 
ATOM     13  C   UNL     1      -3.274 -12.714  -2.177  0.00  0.00    -0.050 A 
ATOM     14  C   UNL     1      -4.367 -12.698  -3.023  0.00  0.00    +0.005 A 
ATOM     15  C   UNL     1      -4.822 -11.501  -3.542  0.00  0.00    +0.027 A 
ATOM     16  C   UNL     1      -2.781 -14.020  -1.608  0.00  0.00    +0.044 C 
ENDBRANCH   7  10
ENDBRANCH   6   7
ENDBRANCH   4   6
ENDBRANCH   1   2
BRANCH   1  19
ATOM     17  C   UNL     1      -4.296  -3.917  -0.013  0.00  0.00    +0.217 C 
ATOM     18  O   UNL     1      -5.499  -4.053   0.057  0.00  0.00    -0.276 OA
ATOM     19  N   UNL     1      -3.494  -5.000  -0.007  0.00  0.00    -0.282 N 
BRANCH  17  20
ATOM     20  C   UNL     1      -3.698  -2.537  -0.109  0.00  0.00    +0.096 C 
BRANCH  20  21
ATOM     21  C   UNL     1      -4.817  -1.494  -0.097  0.00  0.00    +0.009 C 
BRANCH  21  22
ATOM     22  C   UNL     1      -4.210  -0.093  -0.193  0.00  0.00    +0.000 C 
BRANCH  22  24
ATOM     23  C   UNL     1      -4.722   2.350  -0.278  0.00  0.00    +0.004 C 
ATOM     24  C   UNL     1      -5.330   0.950  -0.181  0.00  0.00    -0.003 C 
ENDBRANCH  22  24
ENDBRANCH  21  22
ENDBRANCH  20  21
ENDBRANCH  17  20
BRANCH  19  25
ATOM     25  C   UNL     1      -2.041  -4.836  -0.092  0.00  0.00    +0.182 C 
BRANCH  25  26
ATOM     26  C   UNL     1      -1.476  -4.635   1.290  0.00  0.00    +0.122 A 
ATOM     27  C   UNL     1      -0.958  -5.596   2.076  0.00  0.00    +0.046 A 
ATOM     28  C   UNL     1      -0.550  -4.969   3.276  0.00  0.00    +0.041 A 
ATOM     29  C   UNL     1      -0.844  -3.662   3.152  0.00  0.00    +0.195 A 
ATOM     30  O   UNL     1      -1.399  -3.465   1.945  0.00  0.00    -0.466 OA
ENDBRANCH  25  26
ENDBRANCH  19  25
ENDBRANCH   1  19
BRANCH   1  31
ATOM     31  C   UNL     1      -4.989  -6.418   1.311  0.00  0.00    +0.045 C 
ATOM     32  C   UNL     1      -4.205  -6.006   2.558  0.00  0.00    +0.015 C 
BRANCH  31  33
ATOM     33  C   UNL     1      -5.490  -7.830   1.476  0.00  0.00    -0.042 A 
ATOM     34  C   UNL     1      -4.603  -8.848   1.771  0.00  0.00    +0.004 A 
ATOM     35  C   UNL     1      -5.062 -10.143   1.923  0.00  0.00    +0.000 A 
ATOM     36  C   UNL     1      -6.409 -10.419   1.781  0.00  0.00    +0.000 A 
ATOM     37  C   UNL     1      -7.297  -9.401   1.487  0.00  0.00    +0.000 A 
ATOM     38  C   UNL     1      -6.838  -8.106   1.339  0.00  0.00    +0.004 A 
ENDBRANCH  31  33
ENDBRANCH   1  31
TORSDOF 13
