REMARK  Name = ZINC20059206
REMARK  6 active torsions:
REMARK  status: ('A' for Active; 'I' for Inactive)
REMARK    1  A    between atoms: C_4  and  C_7
REMARK    2  A    between atoms: C_7  and  O_9
REMARK    3  A    between atoms: O_9  and  C_10
REMARK    4  A    between atoms: N_18  and  C_19
REMARK    5  A    between atoms: C_22  and  S_25
REMARK    6  A    between atoms: S_25  and  N_28
REMARK                            x       y       z     vdW  Elec       q    Type
REMARK                         _______ _______ _______ _____ _____    ______ ____
ROOT
ATOM      1  C   UNL     1       5.045  -2.660  -0.084  0.00  0.00    +0.422 C 
ATOM      2  C   UNL     1       5.063  -4.137  -0.419  0.00  0.00    +0.147 C 
ATOM      3  C   UNL     1       6.038  -4.691   0.431  0.00  0.00    +0.153 C 
ATOM      4  C   UNL     1       6.570  -3.715   1.202  0.00  0.00    +0.356 C 
ATOM      5  O   UNL     1       7.534  -3.927   2.123  0.00  0.00    -0.244 OA
ATOM      6  O   UNL     1       6.031  -2.507   0.946  0.00  0.00    -0.414 OA
ATOM      7 CL   UNL     1       6.488  -6.367   0.483  0.00  0.00    -0.074 Cl
ATOM      8  N   UNL     1       4.329  -4.764  -1.310  0.00  0.00    -0.243 NA
ENDROOT
BRANCH   8   9
ATOM      9  C   UNL     1       4.368  -6.129  -1.389  0.00  0.00    +0.065 A 
ATOM     10  C   UNL     1       3.847  -6.908  -0.353  0.00  0.00    +0.029 A 
ATOM     11  C   UNL     1       3.889  -8.283  -0.441  0.00  0.00    +0.030 A 
ATOM     12  C   UNL     1       4.447  -8.892  -1.551  0.00  0.00    +0.105 A 
ATOM     13  C   UNL     1       4.965  -8.127  -2.581  0.00  0.00    +0.030 A 
ATOM     14  C   UNL     1       4.925  -6.751  -2.510  0.00  0.00    +0.029 A 
BRANCH  12  15
ATOM     15  S   UNL     1       4.498 -10.651  -1.654  0.00  0.00    +0.056 S 
ATOM     16  O   UNL     1       5.560 -10.975  -2.540  0.00  0.00    -0.153 OA
ATOM     17  O   UNL     1       4.444 -11.137  -0.320  0.00  0.00    -0.153 OA
BRANCH  15  18
ATOM     18  N   UNL     1       3.099 -11.139  -2.392  0.00  0.00    -0.204 NA
ATOM     19  H   UNL     1       3.089 -11.948  -2.927  0.00  0.00    +0.144 HD
ATOM     20  H   UNL     1       2.288 -10.616  -2.290  0.00  0.00    +0.144 HD
ENDBRANCH  15  18
ENDBRANCH  12  15
ENDBRANCH   8   9
BRANCH   1  21
ATOM     21  O   UNL     1       3.756  -2.275   0.400  0.00  0.00    -0.415 OA
BRANCH  21  22
ATOM     22  C   UNL     1       3.537  -0.957   0.575  0.00  0.00    +0.342 C 
ATOM     23  O   UNL     1       4.416  -0.157   0.324  0.00  0.00    -0.245 OA
BRANCH  22  27
ATOM     24  C   UNL     1      -0.225   0.399   2.004  0.00  0.00    +0.000 A 
ATOM     25  C   UNL     1       0.774   1.313   1.719  0.00  0.00    +0.001 A 
ATOM     26  C   UNL     1       1.998   0.879   1.255  0.00  0.00    +0.015 A 
ATOM     27  C   UNL     1       2.228  -0.486   1.072  0.00  0.00    +0.059 A 
ATOM     28  C   UNL     1       1.216  -1.403   1.361  0.00  0.00    +0.015 A 
ATOM     29  C   UNL     1      -0.004  -0.956   1.825  0.00  0.00    +0.001 A 
ENDBRANCH  22  27
ENDBRANCH  21  22
ENDBRANCH   1  21
TORSDOF 6
