REMARK  Name = ZINC48024583
REMARK  7 active torsions:
REMARK  status: ('A' for Active; 'I' for Inactive)
REMARK    1  A    between atoms: C_1  and  C_2
REMARK    2  A    between atoms: C_5  and  N_8
REMARK    3  A    between atoms: C_9  and  C_11
REMARK    4  A    between atoms: C_11  and  C_13
REMARK    5  A    between atoms: C_11  and  N_14
REMARK    6  A    between atoms: C_17  and  C_20
REMARK    7  A    between atoms: C_20  and  C_21
REMARK                            x       y       z     vdW  Elec       q    Type
REMARK                         _______ _______ _______ _____ _____    ______ ____
ROOT
ATOM      1  C   UNL     1      -1.941  -2.293   4.845  0.00  0.00    +0.016 C 
ATOM      2  C   UNL     1      -1.468  -0.913   5.306  0.00  0.00    -0.004 C 
ENDROOT
BRANCH   1   3
ATOM      3  N   UNL     1      -1.748  -3.264   5.931  0.00  0.00    +0.387 N 
ATOM      4  C   UNL     1      -2.526  -2.846   7.103  0.00  0.00    -0.078 C 
ATOM      5  C   UNL     1      -2.265  -3.810   8.263  0.00  0.00    -0.015 C 
ATOM      6  C   UNL     1      -2.684  -5.223   7.849  0.00  0.00    -0.006 C 
ATOM      7  C   UNL     1      -1.921  -5.620   6.582  0.00  0.00    -0.015 C 
ATOM      8  C   UNL     1      -2.194  -4.590   5.484  0.00  0.00    -0.078 C 
ATOM      9  H   UNL     1      -0.770  -3.304   6.175  0.00  0.00    -0.081 HD
BRANCH   6  10
ATOM     10  C   UNL     1      -2.353  -6.206   8.974  0.00  0.00    +0.099 C 
BRANCH  10  11
ATOM     11  C   UNL     1      -2.876  -7.573   8.617  0.00  0.00    +0.211 C 
ATOM     12  O   UNL     1      -3.455  -7.746   7.566  0.00  0.00    -0.276 OA
ATOM     13  N   UNL     1      -2.698  -8.605   9.466  0.00  0.00    -0.329 N 
ATOM     14  H   UNL     1      -2.234  -8.467  10.307  0.00  0.00    +0.145 HD
ATOM     15  H   UNL     1      -3.034  -9.485   9.236  0.00  0.00    +0.145 HD
ENDBRANCH  10  11
ENDBRANCH   6  10
ENDBRANCH   1   3
BRANCH   1  17
ATOM     16  N   UNL     1      -1.558  -2.385   2.403  0.00  0.00    -0.314 N 
ATOM     17  C   UNL     1      -1.143  -2.722   3.641  0.00  0.00    +0.199 C 
ATOM     18  O   UNL     1      -0.128  -3.369   3.785  0.00  0.00    -0.278 OA
ATOM     19  H   UNL     1      -2.370  -1.867   2.288  0.00  0.00    +0.149 HD
BRANCH  16  24
ATOM     20  C   UNL     1      -1.805   0.901  -0.761  0.00  0.00    +0.007 C 
ATOM     21  C   UNL     1      -1.194  -0.478  -0.504  0.00  0.00    -0.014 C 
ATOM     22  C   UNL     1      -2.311  -1.491  -0.246  0.00  0.00    +0.005 C 
ATOM     23  C   UNL     1      -1.700  -2.870   0.011  0.00  0.00    +0.022 C 
ATOM     24  C   UNL     1      -0.782  -2.801   1.232  0.00  0.00    +0.073 C 
ATOM     25  C   UNL     1       0.335  -1.789   0.974  0.00  0.00    +0.022 C 
ATOM     26  C   UNL     1      -0.276  -0.410   0.717  0.00  0.00    +0.005 C 
ENDBRANCH  16  24
ENDBRANCH   1  17
TORSDOF 5
