REMARK  Name = ZINC21807555
REMARK  13 active torsions:
REMARK  status: ('A' for Active; 'I' for Inactive)
REMARK    1  A    between atoms: C_1  and  C_2
REMARK    2  A    between atoms: C_2  and  N_3
REMARK    3  A    between atoms: N_3  and  C_4
REMARK    4  A    between atoms: N_3  and  C_6
REMARK    5  A    between atoms: C_4  and  C_5
REMARK    6  A    between atoms: C_6  and  C_8
REMARK    7  A    between atoms: C_6  and  C_27
REMARK    8  A    between atoms: C_8  and  N_9
REMARK    9  A    between atoms: C_10  and  C_12
REMARK   10  A    between atoms: C_14  and  C_17
REMARK   11  A    between atoms: C_30  and  C_33
REMARK   12  A    between atoms: C_33  and  C_34
REMARK   13  A    between atoms: C_33  and  C_35
REMARK                            x       y       z     vdW  Elec       q    Type
REMARK                         _______ _______ _______ _____ _____    ______ ____
ROOT
ATOM      1  N   UNL     1      -7.423  -3.679  -3.120  0.00  0.00    -0.311 N 
ATOM      2  C   UNL     1      -7.090  -2.675  -3.955  0.00  0.00    +0.266 C 
ATOM      3  O   UNL     1      -7.273  -1.521  -3.622  0.00  0.00    -0.268 OA
ATOM      4  H   UNL     1      -7.258  -4.723  -3.422  0.00  0.00    +0.149 HD
ENDROOT
BRANCH   2   5
ATOM      5  C   UNL     1      -6.501  -2.979  -5.282  0.00  0.00    +0.168 A 
ATOM      6  C   UNL     1      -6.095  -2.042  -6.267  0.00  0.00    +0.086 A 
ATOM      7  C   UNL     1      -5.630  -2.824  -7.289  0.00  0.00    +0.168 A 
ATOM      8  O   UNL     1      -5.766  -4.098  -6.883  0.00  0.00    -0.354 OA
ATOM      9  N   UNL     1      -6.247  -4.167  -5.776  0.00  0.00    -0.073 NA
BRANCH   7  10
ATOM     10  C   UNL     1      -5.081  -2.360  -8.580  0.00  0.00    +0.024 A 
ATOM     11  C   UNL     1      -5.004  -0.994  -8.858  0.00  0.00    +0.015 A 
ATOM     12  C   UNL     1      -4.498  -0.564 -10.065  0.00  0.00    +0.050 A 
ATOM     13  C   UNL     1      -4.054  -1.484 -11.006  0.00  0.00    +0.162 A 
ATOM     14  C   UNL     1      -4.126  -2.848 -10.735  0.00  0.00    +0.163 A 
ATOM     15  C   UNL     1      -4.638  -3.285  -9.526  0.00  0.00    +0.061 A 
ATOM     16  O   UNL     1      -3.695  -3.763 -11.646  0.00  0.00    -0.485 OA
ATOM     17  C   UNL     1      -3.536  -3.304 -12.992  0.00  0.00    +0.270 C 
ATOM     18  C   UNL     1      -2.784  -1.966 -12.958  0.00  0.00    +0.270 C 
ATOM     19  O   UNL     1      -3.558  -1.037 -12.191  0.00  0.00    -0.485 OA
ENDBRANCH   7  10
ENDBRANCH   2   5
BRANCH   1  20
ATOM     20  C   UNL     1      -8.005  -3.378  -1.809  0.00  0.00    +0.094 C 
BRANCH  20  21
ATOM     21  C   UNL     1      -8.288  -4.685  -1.065  0.00  0.00    -0.020 C 
BRANCH  21  22
ATOM     22  C   UNL     1      -9.052  -4.388   0.199  0.00  0.00    -0.059 A 
ATOM     23  C   UNL     1     -10.353  -3.926   0.129  0.00  0.00    +0.002 A 
ATOM     24  C   UNL     1     -11.055  -3.658   1.289  0.00  0.00    +0.004 A 
ATOM     25  C   UNL     1     -10.452  -3.842   2.520  0.00  0.00    -0.045 A 
ATOM     26  C   UNL     1      -9.149  -4.298   2.590  0.00  0.00    +0.004 A 
ATOM     27  C   UNL     1      -8.449  -4.571   1.430  0.00  0.00    +0.002 A 
BRANCH  25  28
ATOM     28  C   UNL     1     -11.216  -3.544   3.784  0.00  0.00    +0.013 C 
ATOM     29  C   UNL     1     -11.634  -2.072   3.793  0.00  0.00    +0.012 C 
ATOM     30  C   UNL     1     -12.462  -4.428   3.848  0.00  0.00    +0.012 C 
ENDBRANCH  25  28
ENDBRANCH  21  22
BRANCH  21  31
ATOM     31  N   UNL     1      -9.086  -5.573  -1.922  0.00  0.00    +0.385 N 
ATOM     32  H   UNL     1      -8.630  -5.576  -2.923  0.00  0.00    -0.081 HD
BRANCH  31  34
ATOM     33  C   UNL     1      -7.650  -7.516  -1.522  0.00  0.00    -0.017 C 
ATOM     34  C   UNL     1      -9.067  -6.951  -1.413  0.00  0.00    -0.081 C 
ENDBRANCH  31  34
BRANCH  31  35
ATOM     35  C   UNL     1     -10.463  -5.079  -2.054  0.00  0.00    -0.081 C 
ATOM     36  C   UNL     1     -10.451  -3.716  -2.748  0.00  0.00    -0.017 C 
ENDBRANCH  31  35
ENDBRANCH  21  31
ENDBRANCH  20  21
ENDBRANCH   1  20
TORSDOF 9
