REMARK  Name = ZINC59170539
REMARK  6 active torsions:
REMARK  status: ('A' for Active; 'I' for Inactive)
REMARK    1  A    between atoms: C_1  and  C_2
REMARK    2  A    between atoms: C_5  and  S_8
REMARK    3  A    between atoms: S_8  and  N_11
REMARK    4  A    between atoms: N_11  and  N_12
REMARK    5  A    between atoms: C_14  and  C_27
REMARK    6  A    between atoms: N_29  and  C_30
REMARK                            x       y       z     vdW  Elec       q    Type
REMARK                         _______ _______ _______ _____ _____    ______ ____
ROOT
ATOM      1  N   UNL     1       3.006  -5.400   1.365  0.00  0.00    -0.260 N 
ATOM      2  C   UNL     1       4.266  -5.553   1.068  0.00  0.00    +0.225 A 
ATOM      3  C   UNL     1       4.689  -6.026  -0.271  0.00  0.00    +0.099 A 
ATOM      4  C   UNL     1       5.957  -5.661  -0.697  0.00  0.00    +0.030 A 
ATOM      5  C   UNL     1       6.765  -4.896   0.178  0.00  0.00    +0.026 A 
ATOM      6  C   UNL     1       8.014  -4.296  -0.291  0.00  0.00    -0.007 A 
ATOM      7  C   UNL     1       8.463  -4.471  -1.603  0.00  0.00    +0.009 A 
ATOM      8  C   UNL     1       9.634  -3.893  -1.998  0.00  0.00    +0.001 A 
ATOM      9  C   UNL     1      10.388  -3.130  -1.111  0.00  0.00    +0.001 A 
ATOM     10  C   UNL     1       9.979  -2.941   0.174  0.00  0.00    +0.008 A 
ATOM     11  C   UNL     1       8.778  -3.521   0.615  0.00  0.00    -0.017 A 
ATOM     12  C   UNL     1       8.323  -3.346   1.934  0.00  0.00    +0.012 A 
ATOM     13  C   UNL     1       7.165  -3.918   2.357  0.00  0.00    +0.047 A 
ATOM     14  C   UNL     1       6.378  -4.697   1.508  0.00  0.00    +0.138 A 
ATOM     15  O   UNL     1       5.246  -5.277   1.977  0.00  0.00    -0.437 OA
ATOM     16  H   UNL     1       2.744  -5.195   2.276  0.00  0.00    +0.189 HD
ENDROOT
BRANCH   3  17
ATOM     17  C   UNL     1       3.804  -6.846  -1.110  0.00  0.00    +0.253 C 
ATOM     18  O   UNL     1       3.578  -8.003  -0.807  0.00  0.00    -0.270 OA
ATOM     19  N   UNL     1       3.242  -6.317  -2.215  0.00  0.00    -0.281 N 
ATOM     20  H   UNL     1       3.351  -5.373  -2.410  0.00  0.00    +0.155 HD
BRANCH  19  21
ATOM     21  C   UNL     1       2.501  -7.129  -3.081  0.00  0.00    +0.034 A 
ATOM     22  C   UNL     1       1.850  -8.254  -2.592  0.00  0.00    +0.025 A 
ATOM     23  C   UNL     1       1.119  -9.054  -3.448  0.00  0.00    +0.022 A 
ATOM     24  C   UNL     1       1.037  -8.736  -4.793  0.00  0.00    +0.041 A 
ATOM     25  C   UNL     1       1.685  -7.616  -5.282  0.00  0.00    +0.022 A 
ATOM     26  C   UNL     1       2.412  -6.809  -4.429  0.00  0.00    +0.025 A 
ATOM     27 CL   UNL     1       0.119  -9.745  -5.867  0.00  0.00    -0.084 Cl
ENDBRANCH  19  21
ENDBRANCH   3  17
BRANCH   1  28
ATOM     28  N   UNL     1       2.031  -5.531   0.367  0.00  0.00    -0.157 N 
ATOM     29  H   UNL     1       2.296  -5.631  -0.560  0.00  0.00    +0.194 HD
BRANCH  28  30
ATOM     30  S   UNL     1       0.425  -5.514   0.772  0.00  0.00    +0.085 S 
ATOM     31  O   UNL     1       0.247  -6.511   1.769  0.00  0.00    -0.149 OA
ATOM     32  O   UNL     1      -0.301  -5.519  -0.449  0.00  0.00    -0.149 OA
BRANCH  30  37
ATOM     33  C   UNL     1      -0.695  -0.210   3.421  0.00  0.00    +0.044 C 
ATOM     34  C   UNL     1      -0.415  -1.534   2.760  0.00  0.00    -0.050 A 
ATOM     35  C   UNL     1      -0.549  -1.665   1.390  0.00  0.00    +0.005 A 
ATOM     36  C   UNL     1      -0.292  -2.880   0.783  0.00  0.00    +0.029 A 
ATOM     37  C   UNL     1       0.099  -3.965   1.546  0.00  0.00    +0.110 A 
ATOM     38  C   UNL     1       0.235  -3.834   2.915  0.00  0.00    +0.029 A 
ATOM     39  C   UNL     1      -0.018  -2.618   3.522  0.00  0.00    +0.005 A 
ENDBRANCH  30  37
ENDBRANCH  28  30
ENDBRANCH   1  28
TORSDOF 5
