REMARK  Name = ZINC04213686
REMARK  12 active torsions:
REMARK  status: ('A' for Active; 'I' for Inactive)
REMARK    1  A    between atoms: C_1  and  C_2
REMARK    2  A    between atoms: C_2  and  C_3
REMARK    3  A    between atoms: C_3  and  C_4
REMARK    4  A    between atoms: C_3  and  C_5
REMARK    5  A    between atoms: C_3  and  N_6
REMARK    6  A    between atoms: C_7  and  C_9
REMARK    7  A    between atoms: C_9  and  N_10
REMARK    8  A    between atoms: N_10  and  C_11
REMARK    9  A    between atoms: C_14  and  C_17
REMARK   10  A    between atoms: C_18  and  C_20
REMARK   11  A    between atoms: C_21  and  N_28
REMARK   12  A    between atoms: C_22  and  C_25
REMARK                            x       y       z     vdW  Elec       q    Type
REMARK                         _______ _______ _______ _____ _____    ______ ____
ROOT
ATOM      1  N   UNL     1      -1.246   2.068   0.102  0.00  0.00    -0.258 N 
ATOM      2  C   UNL     1      -2.393   1.385  -0.081  0.00  0.00    +0.261 C 
ATOM      3  O   UNL     1      -3.441   1.985  -0.239  0.00  0.00    -0.269 OA
ENDROOT
BRANCH   1   4
ATOM      4  C   UNL     1      -0.028   1.385   0.171  0.00  0.00    +0.037 A 
ATOM      5  C   UNL     1       0.527   1.073   1.405  0.00  0.00    +0.024 A 
ATOM      6  C   UNL     1       1.732   0.402   1.468  0.00  0.00    +0.005 A 
ATOM      7  C   UNL     1       2.387   0.041   0.305  0.00  0.00    -0.050 A 
ATOM      8  C   UNL     1       1.837   0.350  -0.925  0.00  0.00    +0.005 A 
ATOM      9  C   UNL     1       0.632   1.021  -0.996  0.00  0.00    +0.024 A 
ATOM     10  C   UNL     1       3.702  -0.691   0.378  0.00  0.00    +0.044 C 
ENDBRANCH   1   4
BRANCH   2  11
ATOM     11  C   UNL     1      -2.380  -0.079  -0.089  0.00  0.00    +0.116 A 
ATOM     12  C   UNL     1      -3.438  -0.972  -0.271  0.00  0.00    +0.076 A 
ATOM     13  C   UNL     1      -3.027  -2.304  -0.215  0.00  0.00    +0.155 A 
ATOM     14  N   UNL     1      -1.759  -2.578   0.001  0.00  0.00    -0.203 NA
ATOM     15  S   UNL     1      -1.013  -1.196   0.138  0.00  0.00    +0.019 S 
BRANCH  13  16
ATOM     16  C   UNL     1      -4.005  -3.393  -0.390  0.00  0.00    +0.262 C 
ATOM     17  O   UNL     1      -5.176  -3.133  -0.588  0.00  0.00    -0.269 OA
ATOM     18  N   UNL     1      -3.601  -4.678  -0.330  0.00  0.00    -0.324 N 
ATOM     19  H   UNL     1      -2.667  -4.886  -0.171  0.00  0.00    +0.145 HD
ATOM     20  H   UNL     1      -4.245  -5.394  -0.445  0.00  0.00    +0.145 HD
ENDBRANCH  13  16
BRANCH  12  21
ATOM     21  N   UNL     1      -4.752  -0.579  -0.487  0.00  0.00    -0.355 N 
ATOM     22  H   UNL     1      -4.976   0.364  -0.518  0.00  0.00    +0.142 HD
ATOM     23  H   UNL     1      -5.444  -1.247  -0.606  0.00  0.00    +0.142 HD
ENDBRANCH  12  21
ENDBRANCH   2  11
BRANCH   1  24
ATOM     24  C   UNL     1      -1.275   3.527   0.231  0.00  0.00    +0.209 C 
BRANCH  24  26
ATOM     25  N   UNL     1      -1.136   5.496  -1.261  0.00  0.00    -0.309 N 
ATOM     26  C   UNL     1      -1.135   4.154  -1.133  0.00  0.00    +0.231 C 
ATOM     27  O   UNL     1      -1.023   3.451  -2.115  0.00  0.00    -0.274 OA
ATOM     28  H   UNL     1      -1.226   6.058  -0.476  0.00  0.00    +0.149 HD
BRANCH  25  29
ATOM     29  C   UNL     1      -1.000   6.105  -2.586  0.00  0.00    +0.029 C 
ATOM     30  C   UNL     1       0.328   5.674  -3.212  0.00  0.00    +0.031 C 
ATOM     31  C   UNL     1      -2.156   5.648  -3.478  0.00  0.00    +0.031 C 
BRANCH  29  33
ATOM     32  C   UNL     1      -0.888   8.265  -3.837  0.00  0.00    +0.006 C 
ATOM     33  C   UNL     1      -1.030   7.629  -2.453  0.00  0.00    +0.022 C 
ENDBRANCH  29  33
ENDBRANCH  25  29
ENDBRANCH  24  26
ENDBRANCH   1  24
TORSDOF 8
