REMARK  Name = ZINC59343123
REMARK  5 active torsions:
REMARK  status: ('A' for Active; 'I' for Inactive)
REMARK    1  A    between atoms: N_10  and  S_11
REMARK    2  A    between atoms: S_11  and  C_14
REMARK    3  A    between atoms: C_17  and  N_20
REMARK    4  A    between atoms: C_21  and  C_23
REMARK    5  A    between atoms: C_24  and  C_25
REMARK                            x       y       z     vdW  Elec       q    Type
REMARK                         _______ _______ _______ _____ _____    ______ ____
ROOT
ATOM      1  C   UNL     1       5.585   0.891   1.119  0.00  0.00    +0.109 A 
ATOM      2  C   UNL     1       5.162   2.157   1.478  0.00  0.00    +0.030 A 
ATOM      3  C   UNL     1       5.610   2.730   2.652  0.00  0.00    +0.025 A 
ATOM      4  C   UNL     1       6.486   2.032   3.473  0.00  0.00    +0.034 A 
ATOM      5  C   UNL     1       6.909   0.760   3.110  0.00  0.00    +0.025 A 
ATOM      6  C   UNL     1       6.453   0.191   1.937  0.00  0.00    +0.030 A 
ENDROOT
BRANCH   4   7
ATOM      7  N   UNL     1       6.942   2.609   4.662  0.00  0.00    -0.282 N 
ATOM      8  C   UNL     1       8.196   2.366   5.092  0.00  0.00    +0.241 C 
ATOM      9  O   UNL     1       8.964   1.725   4.397  0.00  0.00    -0.270 OA
ATOM     10  H   UNL     1       6.355   3.184   5.178  0.00  0.00    +0.155 HD
BRANCH   8  11
ATOM     11  C   UNL     1       8.635   2.873   6.392  0.00  0.00    +0.068 C 
ATOM     12  C   UNL     1       9.890   2.630   6.822  0.00  0.00    +0.014 C 
BRANCH  12  13
ATOM     13  C   UNL     1      10.332   3.140   8.130  0.00  0.00    -0.007 A 
ATOM     14  C   UNL     1       9.451   3.872   8.933  0.00  0.00    +0.009 A 
ATOM     15  C   UNL     1       9.872   4.345  10.157  0.00  0.00    +0.001 A 
ATOM     16  C   UNL     1      11.163   4.099  10.593  0.00  0.00    +0.001 A 
ATOM     17  C   UNL     1      12.041   3.376   9.806  0.00  0.00    +0.020 A 
ATOM     18  C   UNL     1      11.634   2.890   8.579  0.00  0.00    +0.048 A 
ATOM     19 CL   UNL     1      12.734   1.977   7.595  0.00  0.00    -0.083 Cl
ENDBRANCH  12  13
ENDBRANCH   8  11
ENDBRANCH   4   7
BRANCH   1  20
ATOM     20  S   UNL     1       5.011   0.164  -0.380  0.00  0.00    +0.075 S 
ATOM     21  O   UNL     1       5.976  -0.809  -0.755  0.00  0.00    -0.150 OA
ATOM     22  O   UNL     1       4.639   1.236  -1.235  0.00  0.00    -0.150 OA
BRANCH  20  32
ATOM     23  C   UNL     1      -0.028   1.346   0.027  0.00  0.00    +0.000 A 
ATOM     24  C   UNL     1       1.157   2.059   0.013  0.00  0.00    +0.002 A 
ATOM     25  C   UNL     1       2.363   1.389  -0.002  0.00  0.00    +0.025 A 
ATOM     26  C   UNL     1       2.387  -0.001  -0.003  0.00  0.00    +0.054 A 
ATOM     27  C   UNL     1       1.199  -0.715   0.015  0.00  0.00    -0.025 A 
ATOM     28  C   UNL     1      -0.007  -0.035   0.027  0.00  0.00    +0.005 A 
ATOM     29  C   UNL     1       1.186  -2.221   0.025  0.00  0.00    +0.038 C 
ATOM     30  C   UNL     1       2.516  -2.772  -0.490  0.00  0.00    +0.025 C 
ATOM     31  C   UNL     1       3.662  -2.099   0.277  0.00  0.00    +0.132 C 
ATOM     32  N   UNL     1       3.620  -0.662  -0.023  0.00  0.00    -0.203 N 
ENDBRANCH  20  32
ENDBRANCH   1  20
TORSDOF 5
