REMARK  Name = ZINC13399230
REMARK  7 active torsions:
REMARK  status: ('A' for Active; 'I' for Inactive)
REMARK    1  A    between atoms: C_1  and  C_2
REMARK    2  A    between atoms: C_2  and  C_5
REMARK    3  A    between atoms: N_3  and  O_4
REMARK    4  A    between atoms: C_10  and  C_30
REMARK    5  A    between atoms: C_20  and  C_29
REMARK    6  A    between atoms: C_21  and  O_28
REMARK    7  A    between atoms: C_24  and  O_27
REMARK                            x       y       z     vdW  Elec       q    Type
REMARK                         _______ _______ _______ _____ _____    ______ ____
ROOT
ATOM      1  C   UNL     1      -1.422  -0.336   0.343  0.00  0.00    -0.021 C 
ATOM      2  C   UNL     1      -1.926   0.665   1.089  0.00  0.00    -0.021 C 
ATOM      3  C   UNL     1      -0.862   1.750   1.278  0.00  0.00    +0.032 C 
ATOM      4  C   UNL     1      -0.019   1.546   0.011  0.00  0.00    +0.007 C 
ATOM      5  C   UNL     1       0.002  -0.004   0.002  0.00  0.00    -0.002 C 
ATOM      6  C   UNL     1       0.562  -0.482  -1.309  0.00  0.00    +0.012 C 
ATOM      7  C   UNL     1       1.914   0.159  -1.608  0.00  0.00    +0.005 C 
ATOM      8  C   UNL     1       2.038   1.651  -1.331  0.00  0.00    +0.005 C 
ATOM      9  C   UNL     1       1.396   2.045  -0.000  0.00  0.00    +0.001 C 
ATOM     10  C   UNL     1       1.494   3.544   0.253  0.00  0.00    +0.031 C 
ATOM     11  C   UNL     1       1.062   4.330  -0.943  0.00  0.00    -0.027 C 
ATOM     12  C   UNL     1       1.141   3.875  -2.155  0.00  0.00    -0.062 C 
ATOM     13  C   UNL     1       1.631   2.501  -2.511  0.00  0.00    +0.018 C 
ATOM     14  C   UNL     1       2.821   2.666  -3.470  0.00  0.00    +0.127 C 
ATOM     15  C   UNL     1       2.445   3.535  -4.664  0.00  0.00    +0.063 C 
ATOM     16  C   UNL     1       1.950   4.914  -4.243  0.00  0.00    +0.121 C 
ATOM     17  C   UNL     1       0.752   4.798  -3.298  0.00  0.00    +0.062 C 
ATOM     18  C   UNL     1       0.513   1.818  -3.300  0.00  0.00    +0.018 C 
ATOM     19  C   UNL     1       0.863  -0.560   1.138  0.00  0.00    +0.016 C 
ENDROOT
BRANCH   1  21
ATOM     20  C   UNL     1      -3.569  -1.759   0.345  0.00  0.00    +0.069 C 
ATOM     21  C   UNL     1      -2.135  -1.551  -0.068  0.00  0.00    +0.080 C 
ATOM     22  N   UNL     1      -1.532  -2.444  -0.787  0.00  0.00    -0.092 NA
BRANCH  22  23
ATOM     23  O   UNL     1      -2.221  -3.616  -1.183  0.00  0.00    -0.409 OA
ATOM     24  H   UNL     1      -1.709  -4.375  -1.794  0.00  0.00    +0.328 HD
ENDBRANCH  22  23
ENDBRANCH   1  21
BRANCH  16  25
ATOM     25  O   UNL     1       3.000   5.640  -3.601  0.00  0.00    -0.391 OA
ATOM     26  H   UNL     1       2.817   6.659  -3.232  0.00  0.00    +0.210 HD
ENDBRANCH  16  25
BRANCH  14  27
ATOM     27  O   UNL     1       3.920   3.253  -2.770  0.00  0.00    -0.391 OA
ATOM     28  H   UNL     1       4.866   3.448  -3.296  0.00  0.00    +0.210 HD
ENDBRANCH  14  27
TORSDOF 4
