REMARK  Name = ZINC39203587
REMARK  9 active torsions:
REMARK  status: ('A' for Active; 'I' for Inactive)
REMARK    1  A    between atoms: C_1  and  O_2
REMARK    2  A    between atoms: O_2  and  C_3
REMARK    3  A    between atoms: C_8  and  C_9
REMARK    4  A    between atoms: C_10  and  C_11
REMARK    5  A    between atoms: C_16  and  N_19
REMARK    6  A    between atoms: C_24  and  O_31
REMARK    7  A    between atoms: C_25  and  O_29
REMARK    8  A    between atoms: O_29  and  C_30
REMARK    9  A    between atoms: O_31  and  C_32
REMARK                            x       y       z     vdW  Elec       q    Type
REMARK                         _______ _______ _______ _____ _____    ______ ____
ROOT
ATOM      1  C   UNL     1       1.090  -4.964  -0.039  0.00  0.00    +0.239 C 
ATOM      2  O   UNL     1       0.053  -4.333   0.059  0.00  0.00    -0.271 OA
ATOM      3  N   UNL     1       1.054  -6.307  -0.146  0.00  0.00    -0.298 N 
ATOM      4  C   UNL     1      -0.227  -7.013  -0.279  0.00  0.00    +0.106 C 
ATOM      5  C   UNL     1      -0.310  -8.093   0.804  0.00  0.00    +0.004 C 
ATOM      6  C   UNL     1       0.920  -8.999   0.712  0.00  0.00    -0.065 C 
ATOM      7  C   UNL     1       2.185  -8.171   0.950  0.00  0.00    +0.004 C 
ATOM      8  C   UNL     1       2.296  -7.092  -0.137  0.00  0.00    +0.106 C 
ENDROOT
BRANCH   6   9
ATOM      9  N   UNL     1       0.828 -10.056   1.728  0.00  0.00    +0.385 N 
ATOM     10  C   UNL     1       2.042 -10.886   1.687  0.00  0.00    -0.073 C 
ATOM     11  C   UNL     1       2.069 -11.771   2.933  0.00  0.00    +0.017 C 
ATOM     12  C   UNL     1       0.752 -12.491   3.076  0.00  0.00    -0.044 A 
ATOM     13  C   UNL     1       0.684 -13.588   3.923  0.00  0.00    +0.053 A 
ATOM     14  C   UNL     1      -0.506 -14.273   4.084  0.00  0.00    +0.162 A 
ATOM     15  C   UNL     1      -1.641 -13.857   3.393  0.00  0.00    +0.162 A 
ATOM     16  C   UNL     1      -1.567 -12.764   2.549  0.00  0.00    +0.051 A 
ATOM     17  C   UNL     1      -0.370 -12.080   2.389  0.00  0.00    -0.057 A 
ATOM     18  C   UNL     1      -0.337 -10.901   1.452  0.00  0.00    -0.042 C 
ATOM     19  H   UNL     1       0.734  -9.638   2.642  0.00  0.00    -0.081 HD
BRANCH  15  20
ATOM     20  O   UNL     1      -2.816 -14.524   3.545  0.00  0.00    -0.491 OA
ATOM     21  C   UNL     1      -3.938 -14.040   2.804  0.00  0.00    +0.277 C 
ENDBRANCH  15  20
BRANCH  14  22
ATOM     22  O   UNL     1      -0.568 -15.349   4.914  0.00  0.00    -0.491 OA
ATOM     23  C   UNL     1       0.636 -15.717   5.590  0.00  0.00    +0.277 C 
ENDBRANCH  14  22
ENDBRANCH   6   9
BRANCH   1  25
ATOM     24  C   UNL     1       2.407  -2.914  -0.034  0.00  0.00    +0.016 C 
ATOM     25  C   UNL     1       2.374  -4.264  -0.041  0.00  0.00    +0.068 C 
BRANCH  24  31
ATOM     26  C   UNL     1       3.737  -0.808  -0.029  0.00  0.00    +0.127 A 
ATOM     27  C   UNL     1       4.960  -0.156  -0.025  0.00  0.00    +0.047 A 
ATOM     28  C   UNL     1       6.134  -0.883  -0.033  0.00  0.00    +0.019 A 
ATOM     29  C   UNL     1       6.101  -2.269  -0.046  0.00  0.00    +0.019 A 
ATOM     30  C   UNL     1       4.894  -2.936  -0.051  0.00  0.00    +0.026 A 
ATOM     31  C   UNL     1       3.698  -2.211  -0.035  0.00  0.00    +0.018 A 
ATOM     32 BR   UNL     1       7.718  -3.249  -0.058  0.00  0.00    -0.050 Br
BRANCH  26  34
ATOM     33  C   UNL     1       2.702   1.331  -0.014  0.00  0.00    +0.277 C 
ATOM     34  O   UNL     1       2.584  -0.094  -0.020  0.00  0.00    -0.495 OA
ENDBRANCH  26  34
ENDBRANCH  24  31
ENDBRANCH   1  25
TORSDOF 6
