REMARK  Name = ZINC39456173
REMARK  2 active torsions:
REMARK  status: ('A' for Active; 'I' for Inactive)
REMARK    1  A    between atoms: C_4  and  S_7
REMARK    2  A    between atoms: S_7  and  C_10
REMARK                            x       y       z     vdW  Elec       q    Type
REMARK                         _______ _______ _______ _____ _____    ______ ____
ROOT
ATOM      1  C   UNL     1       4.359  -1.068   1.707  0.00  0.00    +0.227 C 
ATOM      2  C   UNL     1       5.686  -1.827   1.818  0.00  0.00    +0.127 C 
ATOM      3  C   UNL     1       5.492  -3.243   1.341  0.00  0.00    +0.186 C 
ATOM      4  O   UNL     1       6.422  -3.840   0.837  0.00  0.00    -0.290 OA
ATOM      5  C   UNL     1       4.239  -3.883   1.475  0.00  0.00    +0.122 A 
ATOM      6  C   UNL     1       3.165  -3.187   1.992  0.00  0.00    +0.083 A 
ATOM      7  C   UNL     1       1.859  -3.854   2.138  0.00  0.00    +0.100 A 
ATOM      8  C   UNL     1       1.754  -5.208   1.724  0.00  0.00    +0.068 A 
ATOM      9  C   UNL     1       0.546  -5.883   1.837  0.00  0.00    +0.028 A 
ATOM     10  C   UNL     1      -0.546  -5.183   2.368  0.00  0.00    +0.036 A 
ATOM     11  C   UNL     1      -0.364  -3.787   2.776  0.00  0.00    +0.075 A 
ATOM     12  N   UNL     1       0.826  -3.203   2.639  0.00  0.00    -0.245 NA
ATOM     13  C   UNL     1      -1.466  -3.094   3.308  0.00  0.00    +0.028 A 
ATOM     14  C   UNL     1      -2.665  -3.727   3.431  0.00  0.00    +0.005 A 
ATOM     15  C   UNL     1      -2.838  -5.052   3.043  0.00  0.00    +0.039 A 
ATOM     16  C   UNL     1      -1.810  -5.782   2.520  0.00  0.00    +0.133 A 
ATOM     17  F   UNL     1      -2.005  -7.067   2.151  0.00  0.00    -0.205 F 
ATOM     18  C   UNL     1       2.945  -5.876   1.175  0.00  0.00    +0.271 A 
ATOM     19  O   UNL     1       2.877  -7.036   0.812  0.00  0.00    -0.266 OA
ATOM     20  N   UNL     1       4.106  -5.208   1.073  0.00  0.00    -0.237 N 
ATOM     21 BR   UNL     1       5.580  -6.081   0.374  0.00  0.00    +0.058 Br
ATOM     22  N   UNL     1       3.315  -1.866   2.368  0.00  0.00    -0.319 N 
ATOM     23  H   UNL     1       2.747  -1.474   3.050  0.00  0.00    +0.148 HD
ENDROOT
BRANCH   1  24
ATOM     24  S   UNL     1       3.934  -0.832  -0.041  0.00  0.00    +0.016 S 
ATOM     25  O   UNL     1       3.641  -2.083  -0.647  0.00  0.00    -0.168 OA
ATOM     26  O   UNL     1       4.846   0.072  -0.648  0.00  0.00    -0.168 OA
BRANCH  24  30
ATOM     27  C   UNL     1      -0.017   1.378   0.010  0.00  0.00    +0.000 A 
ATOM     28  C   UNL     1       1.171   2.086   0.002  0.00  0.00    +0.002 A 
ATOM     29  C   UNL     1       2.377   1.411  -0.013  0.00  0.00    +0.027 A 
ATOM     30  C   UNL     1       2.396   0.029  -0.020  0.00  0.00    +0.090 A 
ATOM     31  C   UNL     1       1.208  -0.679  -0.012  0.00  0.00    +0.027 A 
ATOM     32  C   UNL     1       0.002  -0.004   0.002  0.00  0.00    +0.002 A 
ENDBRANCH  24  30
ENDBRANCH   1  24
TORSDOF 2
