REMARK  Name = ZINC36945193
REMARK  6 active torsions:
REMARK  status: ('A' for Active; 'I' for Inactive)
REMARK    1  A    between atoms: C_1  and  C_2
REMARK    2  A    between atoms: C_2  and  C_4
REMARK    3  A    between atoms: C_2  and  N_11
REMARK    4  A    between atoms: C_9  and  O_10
REMARK    5  A    between atoms: N_11  and  C_12
REMARK    6  A    between atoms: C_12  and  C_19
REMARK                            x       y       z     vdW  Elec       q    Type
REMARK                         _______ _______ _______ _____ _____    ______ ____
ROOT
ATOM      1  N   UNL     1       0.593  -0.528  -1.301  0.00  0.00    +0.388 N 
ATOM      2  H   UNL     1       0.483  -1.470  -1.643  0.00  0.00    -0.084 HD
ATOM      3  H   UNL     1       0.096   0.110  -1.906  0.00  0.00    -0.084 HD
ENDROOT
BRANCH   1   4
ATOM      4  C   UNL     1       2.019  -0.176  -1.285  0.00  0.00    -0.049 C 
ATOM      5  C   UNL     1       2.644  -0.606  -2.611  0.00  0.00    +0.011 C 
ATOM      6  C   UNL     1       2.556   0.548  -3.648  0.00  0.00    +0.164 C 
ATOM      7  S   UNL     1       2.924   1.982  -2.545  0.00  0.00    -0.032 S 
ATOM      8  O   UNL     1       2.192   3.116  -2.992  0.00  0.00    -0.174 OA
ATOM      9  O   UNL     1       4.329   2.081  -2.359  0.00  0.00    -0.174 OA
ATOM     10  C   UNL     1       2.152   1.333  -1.004  0.00  0.00    +0.153 C 
ATOM     11  C   UNL     1       2.700  -0.948  -0.153  0.00  0.00    -0.008 C 
ENDBRANCH   1   4
BRANCH   1  13
ATOM     12  C   UNL     1       0.022   1.032   0.499  0.00  0.00    -0.009 C 
ATOM     13  C   UNL     1       0.050  -0.434   0.061  0.00  0.00    -0.040 C 
BRANCH  13  14
ATOM     14  C   UNL     1      -1.349  -0.992   0.083  0.00  0.00    -0.020 A 
ATOM     15  C   UNL     1      -2.067  -1.105  -1.092  0.00  0.00    +0.005 A 
ATOM     16  C   UNL     1      -3.352  -1.617  -1.072  0.00  0.00    +0.000 A 
ATOM     17  C   UNL     1      -3.921  -2.017   0.123  0.00  0.00    +0.004 A 
ATOM     18  C   UNL     1      -3.207  -1.906   1.300  0.00  0.00    +0.045 A 
ATOM     19  C   UNL     1      -1.916  -1.398   1.282  0.00  0.00    +0.118 A 
BRANCH  19  20
ATOM     20  O   UNL     1      -1.210  -1.294   2.439  0.00  0.00    -0.507 OA
ATOM     21  H   UNL     1      -1.327  -0.450   2.896  0.00  0.00    +0.292 HD
ENDBRANCH  19  20
ENDBRANCH  13  14
ENDBRANCH   1  13
TORSDOF 4
