REMARK  Name = ZINC20155014
REMARK  8 active torsions:
REMARK  status: ('A' for Active; 'I' for Inactive)
REMARK    1  A    between atoms: C_3  and  C_6
REMARK    2  A    between atoms: C_6  and  N_7
REMARK    3  A    between atoms: N_7  and  C_8
REMARK    4  A    between atoms: C_8  and  C_9
REMARK    5  A    between atoms: N_11  and  C_12
REMARK    6  A    between atoms: C_15  and  N_31
REMARK    7  A    between atoms: C_17  and  C_18
REMARK    8  A    between atoms: N_20  and  C_21
REMARK                            x       y       z     vdW  Elec       q    Type
REMARK                         _______ _______ _______ _____ _____    ______ ____
ROOT
ATOM      1  C   UNL     1       4.955  -4.130   0.146  0.00  0.00    +0.046 A 
ATOM      2  C   UNL     1       6.168  -4.798   0.241  0.00  0.00    +0.026 A 
ATOM      3  C   UNL     1       7.345  -4.084   0.342  0.00  0.00    +0.034 A 
ATOM      4  C   UNL     1       7.326  -2.698   0.344  0.00  0.00    +0.127 A 
ATOM      5  C   UNL     1       6.132  -2.018   0.244  0.00  0.00    +0.047 A 
ATOM      6  C   UNL     1       4.933  -2.728   0.141  0.00  0.00    +0.060 A 
ENDROOT
BRANCH   1   9
ATOM      7  C   UNL     1       3.735  -6.012  -0.631  0.00  0.00    +0.200 C 
ATOM      8  O   UNL     1       4.758  -6.474  -1.090  0.00  0.00    -0.278 OA
ATOM      9  N   UNL     1       3.766  -4.850   0.050  0.00  0.00    -0.286 N 
ATOM     10  H   UNL     1       2.852  -4.468   0.530  0.00  0.00    +0.155 HD
BRANCH   7  11
ATOM     11  C   UNL     1       2.428  -6.739  -0.822  0.00  0.00    +0.016 C 
BRANCH  11  12
ATOM     12  N   UNL     1       2.660  -7.969  -1.590  0.00  0.00    +0.389 N 
ATOM     13  H   UNL     1       3.369  -8.602  -1.038  0.00  0.00    -0.085 HD
ATOM     14  H   UNL     1       3.091  -7.700  -2.566  0.00  0.00    -0.085 HD
BRANCH  12  15
ATOM     15  C   UNL     1       1.405  -8.705  -1.796  0.00  0.00    -0.006 C 
BRANCH  15  18
ATOM     16  C   UNL     1       2.170 -12.041  -3.163  0.00  0.00    +0.041 A 
ATOM     17  C   UNL     1       1.995 -11.160  -2.071  0.00  0.00    +0.042 A 
ATOM     18  C   UNL     1       1.682  -9.958  -2.587  0.00  0.00    +0.088 A 
ATOM     19  O   UNL     1       1.652 -10.065  -3.925  0.00  0.00    -0.470 OA
ATOM     20  C   UNL     1       1.952 -11.325  -4.280  0.00  0.00    +0.195 A 
ENDBRANCH  15  18
ENDBRANCH  12  15
ENDBRANCH  11  12
ENDBRANCH   7  11
ENDBRANCH   1   9
BRANCH   6  21
ATOM     21  C   UNL     1       3.651  -2.006   0.035  0.00  0.00    +0.250 C 
ATOM     22  O   UNL     1       2.603  -2.624   0.036  0.00  0.00    -0.270 OA
ATOM     23  N   UNL     1       3.640  -0.662  -0.065  0.00  0.00    -0.281 N 
ATOM     24  H   UNL     1       4.587  -0.109  -0.143  0.00  0.00    +0.155 HD
BRANCH  23  25
ATOM     25  C   UNL     1       2.423   0.029  -0.070  0.00  0.00    +0.037 A 
ATOM     26  C   UNL     1       2.330   1.276   0.535  0.00  0.00    +0.027 A 
ATOM     27  C   UNL     1       1.129   1.958   0.532  0.00  0.00    +0.051 A 
ATOM     28  C   UNL     1       0.013   1.402  -0.075  0.00  0.00    +0.162 A 
ATOM     29  C   UNL     1       0.103   0.156  -0.684  0.00  0.00    +0.164 A 
ATOM     30  C   UNL     1       1.308  -0.530  -0.679  0.00  0.00    +0.072 A 
ATOM     31  O   UNL     1      -0.979  -0.402  -1.293  0.00  0.00    -0.485 OA
ATOM     32  C   UNL     1      -2.259   0.141  -0.955  0.00  0.00    +0.270 C 
ATOM     33  C   UNL     1      -2.160   1.672  -1.004  0.00  0.00    +0.270 C 
ATOM     34  O   UNL     1      -1.165   2.086  -0.061  0.00  0.00    -0.485 OA
ENDBRANCH  23  25
ENDBRANCH   6  21
BRANCH   4  35
ATOM     35  N   UNL     1       8.596  -1.945   0.453  0.00  0.00    +0.056 N 
ATOM     36  O   UNL     1       8.582  -0.727   0.454  0.00  0.00    -0.126 OA
ATOM     37  O   UNL     1       9.653  -2.542   0.540  0.00  0.00    -0.126 OA
ENDBRANCH   4  35
TORSDOF 8
