REMARK  Name = ZINC62825244
REMARK  3 active torsions:
REMARK  status: ('A' for Active; 'I' for Inactive)
REMARK    1  A    between atoms: C_4  and  C_7
REMARK    2  A    between atoms: C_9  and  C_12
REMARK    3  A    between atoms: C_17  and  N_18
REMARK                            x       y       z     vdW  Elec       q    Type
REMARK                         _______ _______ _______ _____ _____    ______ ____
ROOT
ATOM      1  C   UNL     1       4.241  -0.436   0.591  0.00  0.00    +0.240 A 
ATOM      2  N   UNL     1       4.188  -1.774   0.502  0.00  0.00    -0.184 NA
ATOM      3  C   UNL     1       5.383  -2.252   0.236  0.00  0.00    +0.261 A 
ATOM      4  O   UNL     1       6.239  -1.219   0.148  0.00  0.00    -0.332 OA
ATOM      5  N   UNL     1       5.473  -0.045   0.377  0.00  0.00    -0.052 NA
ENDROOT
BRANCH   3   6
ATOM      6  C   UNL     1       5.726  -3.677   0.065  0.00  0.00    +0.062 A 
ATOM      7  C   UNL     1       5.263  -4.625   0.980  0.00  0.00    +0.030 A 
ATOM      8  C   UNL     1       5.586  -5.956   0.815  0.00  0.00    +0.020 A 
ATOM      9  C   UNL     1       6.370  -6.358  -0.256  0.00  0.00    +0.032 A 
ATOM     10  C   UNL     1       6.834  -5.431  -1.168  0.00  0.00    +0.040 A 
ATOM     11  C   UNL     1       6.513  -4.087  -1.020  0.00  0.00    +0.051 A 
ATOM     12 BR   UNL     1       7.902  -5.992  -2.624  0.00  0.00    -0.048 Br
ATOM     13 BR   UNL     1       4.958  -7.238   2.055  0.00  0.00    -0.050 Br
BRANCH  11  14
ATOM     14  N   UNL     1       6.975  -3.152  -1.942  0.00  0.00    -0.357 N 
ATOM     15  H   UNL     1       6.676  -2.231  -1.890  0.00  0.00    +0.142 HD
ATOM     16  H   UNL     1       7.596  -3.422  -2.636  0.00  0.00    +0.142 HD
ENDBRANCH  11  14
ENDBRANCH   3   6
BRANCH   1  20
ATOM     17  C   UNL     1       1.014   2.067   1.395  0.00  0.00    +0.039 A 
ATOM     18  C   UNL     1       2.281   2.590   1.185  0.00  0.00    +0.115 A 
ATOM     19  N   UNL     1       3.284   1.767   0.932  0.00  0.00    -0.233 NA
ATOM     20  C   UNL     1       3.089   0.457   0.878  0.00  0.00    +0.201 A 
ATOM     21  N   UNL     1       1.892  -0.075   1.074  0.00  0.00    -0.233 NA
ATOM     22  C   UNL     1       0.846   0.691   1.331  0.00  0.00    +0.115 A 
ENDBRANCH   1  20
TORSDOF 3
