REMARK  Name = ZINC12930105
REMARK  9 active torsions:
REMARK  status: ('A' for Active; 'I' for Inactive)
REMARK    1  A    between atoms: C_1  and  C_2
REMARK    2  A    between atoms: C_6  and  N_9
REMARK    3  A    between atoms: C_7  and  C_8
REMARK    4  A    between atoms: C_10  and  C_12
REMARK    5  A    between atoms: C_12  and  N_49
REMARK    6  A    between atoms: C_13  and  N_49
REMARK    7  A    between atoms: C_14  and  C_15
REMARK    8  A    between atoms: C_14  and  N_49
REMARK    9  A    between atoms: C_18  and  C_20
REMARK                            x       y       z     vdW  Elec       q    Type
REMARK                         _______ _______ _______ _____ _____    ______ ____
ROOT
ATOM      1  C   UNL     1      -0.004  -0.018  -0.002  0.00  0.00    -0.095 C 
ATOM      2  N   UNL     1      -0.027   1.460   0.025  0.00  0.00    +0.387 N 
ATOM      3  H   UNL     1      -0.477   1.770   0.894  0.00  0.00    -0.081 HD
ENDROOT
BRANCH   2   4
ATOM      4  C   UNL     1      -0.799   1.974  -1.125  0.00  0.00    +0.019 C 
BRANCH   4   6
ATOM      5  N   UNL     1      -3.161   1.982  -1.860  0.00  0.00    -0.287 N 
ATOM      6  C   UNL     1      -2.249   1.605  -0.943  0.00  0.00    +0.201 C 
ATOM      7  O   UNL     1      -2.595   0.969   0.030  0.00  0.00    -0.278 OA
ATOM      8  H   UNL     1      -2.900   2.558  -2.596  0.00  0.00    +0.155 HD
BRANCH   5  14
ATOM      9  C   UNL     1      -7.933   2.643  -2.841  0.00  0.00    +0.044 C 
ATOM     10  C   UNL     1      -6.818   1.843  -2.218  0.00  0.00    -0.046 A 
ATOM     11  C   UNL     1      -7.103   0.673  -1.539  0.00  0.00    +0.004 A 
ATOM     12  C   UNL     1      -6.083  -0.063  -0.965  0.00  0.00    +0.002 A 
ATOM     13  C   UNL     1      -4.775   0.368  -1.070  0.00  0.00    +0.023 A 
ATOM     14  C   UNL     1      -4.485   1.542  -1.752  0.00  0.00    +0.036 A 
ATOM     15  C   UNL     1      -5.513   2.283  -2.321  0.00  0.00    -0.026 A 
ATOM     16  C   UNL     1      -5.204   3.562  -3.056  0.00  0.00    +0.046 C 
ENDBRANCH   5  14
ENDBRANCH   4   6
ENDBRANCH   2   4
BRANCH   2  17
ATOM     17  C   UNL     1       1.353   1.987  -0.015  0.00  0.00    -0.022 C 
BRANCH  17  18
ATOM     18  C   UNL     1       2.048   1.631   1.273  0.00  0.00    +0.033 A 
ATOM     19  C   UNL     1       2.827   0.519   1.342  0.00  0.00    +0.068 A 
ATOM     20  S   UNL     1       3.371   0.602   3.044  0.00  0.00    -0.075 S 
ATOM     21  C   UNL     1       2.497   2.100   3.479  0.00  0.00    +0.108 A 
ATOM     22  N   UNL     1       1.897   2.391   2.333  0.00  0.00    -0.246 NA
BRANCH  21  23
ATOM     23  C   UNL     1       2.454   2.821   4.769  0.00  0.00    +0.008 A 
ATOM     24  C   UNL     1       1.703   3.991   4.894  0.00  0.00    +0.010 A 
ATOM     25  C   UNL     1       1.663   4.655   6.102  0.00  0.00    +0.002 A 
ATOM     26  C   UNL     1       2.373   4.171   7.186  0.00  0.00    +0.015 A 
ATOM     27  C   UNL     1       3.124   3.014   7.068  0.00  0.00    +0.019 A 
ATOM     28  C   UNL     1       3.168   2.337   5.866  0.00  0.00    +0.025 A 
ATOM     29 BR   UNL     1       4.092   2.361   8.556  0.00  0.00    -0.050 Br
ENDBRANCH  21  23
ENDBRANCH  17  18
ENDBRANCH   2  17
TORSDOF 6
