REMARK  Name = ZINC01197295
REMARK  13 active torsions:
REMARK  status: ('A' for Active; 'I' for Inactive)
REMARK    1  A    between atoms: C_1  and  C_2
REMARK    2  A    between atoms: C_2  and  O_3
REMARK    3  A    between atoms: O_3  and  C_4
REMARK    4  A    between atoms: C_6  and  C_11
REMARK    5  A    between atoms: C_9  and  O_10
REMARK    6  A    between atoms: C_18  and  C_35
REMARK    7  A    between atoms: C_19  and  C_30
REMARK    8  A    between atoms: C_20  and  C_22
REMARK    9  A    between atoms: C_25  and  O_28
REMARK   10  A    between atoms: O_28  and  C_29
REMARK   11  A    between atoms: C_30  and  O_32
REMARK   12  A    between atoms: O_32  and  C_33
REMARK   13  A    between atoms: C_33  and  C_34
REMARK                            x       y       z     vdW  Elec       q    Type
REMARK                         _______ _______ _______ _____ _____    ______ ____
ROOT
ATOM      1  C   UNL     1       4.837   1.202  -0.036  0.00  0.00    +0.028 C 
ATOM      2  C   UNL     1       6.032   1.837  -0.146  0.00  0.00    +0.081 A 
ATOM      3  C   UNL     1       7.382   1.272  -0.274  0.00  0.00    +0.268 A 
ATOM      4  O   UNL     1       7.558   0.067  -0.295  0.00  0.00    -0.266 OA
ATOM      5  N   UNL     1       8.413   2.121  -0.372  0.00  0.00    -0.275 N 
ATOM      6  C   UNL     1       8.160   3.473  -0.336  0.00  0.00    +0.178 A 
ATOM      7  N   UNL     1       9.087   4.394  -0.416  0.00  0.00    -0.228 NA
ATOM      8  C   UNL     1      10.385   4.153  -0.542  0.00  0.00    +0.053 C 
ATOM      9  C   UNL     1      10.852   2.869  -0.598  0.00  0.00    +0.085 C 
ATOM     10  C   UNL     1       9.848   1.743  -0.512  0.00  0.00    +0.162 C 
ATOM     11  C   UNL     1      11.354   5.304  -0.625  0.00  0.00    +0.066 C 
ATOM     12  S   UNL     1       6.390   3.587  -0.165  0.00  0.00    -0.046 S 
ENDROOT
BRANCH   1  15
ATOM     13  C   UNL     1       2.412   4.004  -0.610  0.00  0.00    +0.162 A 
ATOM     14  C   UNL     1       3.588   3.282  -0.577  0.00  0.00    +0.057 A 
ATOM     15  C   UNL     1       3.588   1.973  -0.079  0.00  0.00    -0.020 A 
ATOM     16  C   UNL     1       2.393   1.401   0.374  0.00  0.00    +0.012 A 
ATOM     17  C   UNL     1       1.224   2.128   0.333  0.00  0.00    +0.050 A 
ATOM     18  C   UNL     1       1.226   3.427  -0.158  0.00  0.00    +0.158 A 
BRANCH  18  19
ATOM     19  O   UNL     1       0.069   4.138  -0.196  0.00  0.00    -0.503 OA
ATOM     20  H   UNL     1      -0.427   4.038  -1.020  0.00  0.00    +0.292 HD
ENDBRANCH  18  19
BRANCH  13  21
ATOM     21  O   UNL     1       2.408   5.277  -1.089  0.00  0.00    -0.489 OA
BRANCH  21  23
ATOM     22  C   UNL     1       3.458   7.237  -2.036  0.00  0.00    +0.048 C 
ATOM     23  C   UNL     1       3.659   5.805  -1.536  0.00  0.00    +0.226 C 
ENDBRANCH  21  23
ENDBRANCH  13  21
ENDBRANCH   1  15
BRANCH  10  24
ATOM     24  C   UNL     1      10.217   0.881   0.667  0.00  0.00    -0.020 A 
ATOM     25  C   UNL     1       9.870   1.276   1.946  0.00  0.00    +0.009 A 
ATOM     26  C   UNL     1      10.204   0.485   3.029  0.00  0.00    +0.046 A 
ATOM     27  C   UNL     1      10.896  -0.701   2.833  0.00  0.00    +0.120 A 
ATOM     28  C   UNL     1      11.248  -1.092   1.549  0.00  0.00    +0.046 A 
ATOM     29  C   UNL     1      10.908  -0.300   0.469  0.00  0.00    +0.009 A 
BRANCH  27  30
ATOM     30  O   UNL     1      11.229  -1.478   3.896  0.00  0.00    -0.495 OA
ATOM     31  C   UNL     1      10.835  -1.014   5.189  0.00  0.00    +0.277 C 
ENDBRANCH  27  30
ENDBRANCH  10  24
BRANCH   9  32
ATOM     32  C   UNL     1      12.225   2.605  -0.731  0.00  0.00    +0.339 C 
ATOM     33  O   UNL     1      13.019   3.526  -0.798  0.00  0.00    -0.245 OA
BRANCH  32  34
ATOM     34  O   UNL     1      12.664   1.329  -0.784  0.00  0.00    -0.462 OA
BRANCH  34  35
ATOM     35  C   UNL     1      14.073   1.133  -0.920  0.00  0.00    +0.229 C 
ATOM     36  C   UNL     1      14.378  -0.366  -0.962  0.00  0.00    +0.048 C 
ENDBRANCH  34  35
ENDBRANCH  32  34
ENDBRANCH   9  32
TORSDOF 9
