REMARK  Name = ZINC38650872
REMARK  17 active torsions:
REMARK  status: ('A' for Active; 'I' for Inactive)
REMARK    1  A    between atoms: C_1  and  C_2
REMARK    2  A    between atoms: C_2  and  C_3
REMARK    3  A    between atoms: C_3  and  C_4
REMARK    4  A    between atoms: C_4  and  O_5
REMARK    5  A    between atoms: O_5  and  C_6
REMARK    6  A    between atoms: C_9  and  C_12
REMARK    7  A    between atoms: C_17  and  O_26
REMARK    8  A    between atoms: C_21  and  N_25
REMARK    9  A    between atoms: C_22  and  C_23
REMARK   10  A    between atoms: O_26  and  C_27
REMARK   11  A    between atoms: C_27  and  C_29
REMARK   12  A    between atoms: C_29  and  C_31
REMARK   13  A    between atoms: C_29  and  O_32
REMARK   14  A    between atoms: O_32  and  C_33
REMARK   15  A    between atoms: C_36  and  C_39
REMARK   16  A    between atoms: C_39  and  C_40
REMARK   17  A    between atoms: C_39  and  C_41
REMARK                            x       y       z     vdW  Elec       q    Type
REMARK                         _______ _______ _______ _____ _____    ______ ____
ROOT
ATOM      1  C   UNL     1       1.843  -8.228   2.897  0.00  0.00    +0.098 C 
ATOM      2  C   UNL     1       3.305  -8.581   2.959  0.00  0.00    +0.008 A 
ATOM      3  C   UNL     1       4.053  -8.592   1.794  0.00  0.00    +0.012 A 
ATOM      4  C   UNL     1       5.395  -8.913   1.832  0.00  0.00    +0.047 A 
ATOM      5  C   UNL     1       6.000  -9.226   3.042  0.00  0.00    +0.135 A 
ATOM      6  C   UNL     1       5.254  -9.215   4.209  0.00  0.00    +0.093 A 
ATOM      7  C   UNL     1       3.904  -8.892   4.170  0.00  0.00    +0.138 A 
ATOM      8  O   UNL     1       3.188  -8.886   5.321  0.00  0.00    -0.441 OA
ATOM      9  C   UNL     1       1.848  -8.963   5.277  0.00  0.00    +0.199 C 
ATOM     10  C   UNL     1       1.152  -8.664   4.159  0.00  0.00    +0.098 C 
ENDROOT
BRANCH   1  14
ATOM     11  C   UNL     1       1.423  -4.000   2.441  0.00  0.00    +0.121 A 
ATOM     12  C   UNL     1       0.917  -4.856   1.474  0.00  0.00    +0.046 A 
ATOM     13  C   UNL     1       1.054  -6.223   1.624  0.00  0.00    +0.008 A 
ATOM     14  C   UNL     1       1.695  -6.737   2.736  0.00  0.00    -0.034 A 
ATOM     15  C   UNL     1       2.200  -5.885   3.701  0.00  0.00    +0.008 A 
ATOM     16  C   UNL     1       2.071  -4.518   3.553  0.00  0.00    +0.046 A 
BRANCH  11  17
ATOM     17  O   UNL     1       1.290  -2.655   2.296  0.00  0.00    -0.492 OA
BRANCH  17  18
ATOM     18  C   UNL     1       0.613  -2.193   1.126  0.00  0.00    +0.229 C 
BRANCH  18  19
ATOM     19  C   UNL     1       0.560  -0.664   1.137  0.00  0.00    +0.041 C 
BRANCH  19  21
ATOM     20  C   UNL     1      -0.217   1.360  -0.104  0.00  0.00    +0.004 C 
ATOM     21  C   UNL     1      -0.165  -0.169  -0.116  0.00  0.00    -0.000 C 
ENDBRANCH  19  21
ENDBRANCH  18  19
ENDBRANCH  17  18
ENDBRANCH  11  17
ENDBRANCH   1  14
BRANCH   9  22
ATOM     22  N   UNL     1       1.166  -9.357   6.401  0.00  0.00    -0.328 N 
ATOM     23  H   UNL     1       1.652  -9.575   7.212  0.00  0.00    +0.145 HD
ATOM     24  H   UNL     1       0.198  -9.418   6.385  0.00  0.00    +0.145 HD
ENDBRANCH   9  22
BRANCH  10  25
ATOM     25  C   UNL     1      -0.276  -8.764   4.178  0.00  0.00    +0.101 C 
ATOM     26  N   UNL     1      -1.409  -8.844   4.193  0.00  0.00    -0.191 NA
ENDBRANCH  10  25
BRANCH   5  27
ATOM     27  O   UNL     1       7.321  -9.542   3.081  0.00  0.00    -0.423 OA
BRANCH  27  28
ATOM     28  C   UNL     1       7.660 -10.793   3.432  0.00  0.00    +0.353 C 
ATOM     29  O   UNL     1       6.800 -11.624   3.610  0.00  0.00    -0.246 OA
BRANCH  28  30
ATOM     30  C   UNL     1       9.111 -11.161   3.603  0.00  0.00    +0.279 C 
ATOM     31  C   UNL     1       9.827 -11.053   2.255  0.00  0.00    +0.064 C 
BRANCH  30  32
ATOM     32  O   UNL     1       9.208 -12.502   4.087  0.00  0.00    -0.478 OA
BRANCH  32  33
ATOM     33  C   UNL     1      10.238 -12.781   4.928  0.00  0.00    +0.122 A 
ATOM     34  C   UNL     1      11.206 -11.820   5.184  0.00  0.00    +0.046 A 
ATOM     35  C   UNL     1      12.252 -12.106   6.040  0.00  0.00    +0.007 A 
ATOM     36  C   UNL     1      12.335 -13.348   6.642  0.00  0.00    -0.045 A 
ATOM     37  C   UNL     1      11.371 -14.307   6.389  0.00  0.00    +0.007 A 
ATOM     38  C   UNL     1      10.320 -14.024   5.538  0.00  0.00    +0.046 A 
BRANCH  36  39
ATOM     39  C   UNL     1      13.477 -13.657   7.575  0.00  0.00    +0.013 C 
ATOM     40  C   UNL     1      12.925 -14.001   8.960  0.00  0.00    +0.012 C 
ATOM     41  C   UNL     1      14.272 -14.846   7.032  0.00  0.00    +0.012 C 
ENDBRANCH  36  39
ENDBRANCH  32  33
ENDBRANCH  30  32
ENDBRANCH  28  30
ENDBRANCH  27  28
ENDBRANCH   5  27
TORSDOF 13
