REMARK  Name = ZINC35483687
REMARK  9 active torsions:
REMARK  status: ('A' for Active; 'I' for Inactive)
REMARK    1  A    between atoms: C_1  and  C_2
REMARK    2  A    between atoms: C_2  and  O_3
REMARK    3  A    between atoms: O_3  and  C_4
REMARK    4  A    between atoms: C_6  and  C_11
REMARK    5  A    between atoms: C_9  and  O_10
REMARK    6  A    between atoms: C_13  and  C_14
REMARK    7  A    between atoms: C_14  and  C_15
REMARK    8  A    between atoms: C_16  and  C_25
REMARK    9  A    between atoms: C_21  and  C_24
REMARK                            x       y       z     vdW  Elec       q    Type
REMARK                         _______ _______ _______ _____ _____    ______ ____
ROOT
ATOM      1  C   UNL     1      -0.760  -4.947   0.210  0.00  0.00    +0.152 C 
ATOM      2  C   UNL     1      -2.228  -5.222  -0.024  0.00  0.00    +0.078 C 
ATOM      3  C   UNL     1      -2.426  -6.535   0.242  0.00  0.00    +0.250 C 
ATOM      4  O   UNL     1      -3.611  -7.182   0.152  0.00  0.00    -0.282 OA
ATOM      5  C   UNL     1      -1.145  -7.148   0.644  0.00  0.00    +0.293 C 
ATOM      6  O   UNL     1      -0.995  -8.315   0.946  0.00  0.00    -0.266 OA
ATOM      7  N   UNL     1      -0.167  -6.223   0.627  0.00  0.00    -0.232 N 
ATOM      8  C   UNL     1       1.166  -6.439   0.947  0.00  0.00    +0.168 A 
ATOM      9  N   UNL     1       2.156  -5.572   0.952  0.00  0.00    -0.233 NA
ATOM     10  C   UNL     1       3.380  -5.936   1.283  0.00  0.00    +0.120 A 
ATOM     11  C   UNL     1       3.567  -7.237   1.617  0.00  0.00    +0.068 A 
ATOM     12  S   UNL     1       1.908  -7.870   1.431  0.00  0.00    -0.060 S 
ENDROOT
BRANCH   1  15
ATOM     13  C   UNL     1       0.665  -2.671  -2.447  0.00  0.00    +0.162 A 
ATOM     14  C   UNL     1       0.071  -3.114  -1.276  0.00  0.00    +0.055 A 
ATOM     15  C   UNL     1      -0.114  -4.468  -1.064  0.00  0.00    -0.018 A 
ATOM     16  C   UNL     1       0.294  -5.382  -2.018  0.00  0.00    +0.009 A 
ATOM     17  C   UNL     1       0.887  -4.947  -3.188  0.00  0.00    +0.049 A 
ATOM     18  C   UNL     1       1.070  -3.591  -3.410  0.00  0.00    +0.158 A 
BRANCH  18  19
ATOM     19  O   UNL     1       1.649  -3.161  -4.563  0.00  0.00    -0.503 OA
ATOM     20  H   UNL     1       2.611  -3.085  -4.515  0.00  0.00    +0.292 HD
ENDBRANCH  18  19
BRANCH  13  21
ATOM     21  O   UNL     1       0.848  -1.340  -2.658  0.00  0.00    -0.489 OA
BRANCH  21  23
ATOM     22  C   UNL     1       0.667   0.990  -2.041  0.00  0.00    +0.048 C 
ATOM     23  C   UNL     1       0.517  -0.462  -1.580  0.00  0.00    +0.226 C 
ENDBRANCH  21  23
ENDBRANCH  13  21
ENDBRANCH   1  15
BRANCH   2  24
ATOM     24  C   UNL     1      -3.240  -4.254  -0.455  0.00  0.00    +0.215 C 
ATOM     25  O   UNL     1      -2.962  -3.071  -0.522  0.00  0.00    -0.285 OA
BRANCH  24  26
ATOM     26  C   UNL     1      -4.598  -4.714  -0.807  0.00  0.00    +0.133 A 
ATOM     27  C   UNL     1      -5.668  -3.908  -1.127  0.00  0.00    +0.051 A 
ATOM     28  N   UNL     1      -6.722  -4.732  -1.383  0.00  0.00    -0.303 N 
ATOM     29  C   UNL     1      -8.017  -4.482  -1.744  0.00  0.00    +0.093 A 
ATOM     30  C   UNL     1      -8.883  -5.497  -1.942  0.00  0.00    +0.018 A 
ATOM     31  C   UNL     1      -8.465  -6.829  -1.781  0.00  0.00    +0.008 A 
ATOM     32  C   UNL     1      -7.181  -7.094  -1.423  0.00  0.00    -0.008 A 
ATOM     33  C   UNL     1      -6.284  -6.023  -1.217  0.00  0.00    +0.141 A 
ATOM     34  N   UNL     1      -5.006  -5.994  -0.877  0.00  0.00    -0.224 NA
ATOM     35  C   UNL     1      -6.718  -8.517  -1.246  0.00  0.00    +0.047 C 
ATOM     36  C   UNL     1      -5.673  -2.402  -1.182  0.00  0.00    +0.066 C 
ENDBRANCH  24  26
ENDBRANCH   2  24
TORSDOF 6
