REMARK  Name = ZINC06501064
REMARK  11 active torsions:
REMARK  status: ('A' for Active; 'I' for Inactive)
REMARK    1  A    between atoms: C_1  and  C_2
REMARK    2  A    between atoms: C_2  and  C_3
REMARK    3  A    between atoms: C_3  and  C_4
REMARK    4  A    between atoms: C_4  and  C_6
REMARK    5  A    between atoms: C_4  and  N_14
REMARK    6  A    between atoms: N_8  and  C_9
REMARK    7  A    between atoms: N_14  and  C_15
REMARK    8  A    between atoms: C_22  and  C_24
REMARK    9  A    between atoms: C_24  and  N_25
REMARK   10  A    between atoms: C_27  and  C_30
REMARK   11  A    between atoms: C_33  and  C_35
REMARK                            x       y       z     vdW  Elec       q    Type
REMARK                         _______ _______ _______ _____ _____    ______ ____
ROOT
ATOM      1  N   UNL     1      -0.087   0.026   0.008  0.00  0.00    -0.258 N 
ATOM      2  C   UNL     1       0.915  -0.747  -0.455  0.00  0.00    +0.244 C 
ATOM      3  O   UNL     1       2.040  -0.299  -0.533  0.00  0.00    -0.273 OA
ENDROOT
BRANCH   1   4
ATOM      4  C   UNL     1      -1.363  -0.519   0.195  0.00  0.00    +0.037 A 
ATOM      5  C   UNL     1      -1.588  -1.425   1.223  0.00  0.00    +0.026 A 
ATOM      6  C   UNL     1      -2.849  -1.958   1.409  0.00  0.00    +0.040 A 
ATOM      7  C   UNL     1      -3.885  -1.599   0.564  0.00  0.00    +0.124 A 
ATOM      8  C   UNL     1      -3.662  -0.700  -0.465  0.00  0.00    +0.040 A 
ATOM      9  C   UNL     1      -2.404  -0.160  -0.651  0.00  0.00    +0.026 A 
ATOM     10  F   UNL     1      -5.116  -2.125   0.744  0.00  0.00    -0.205 F 
ENDBRANCH   1   4
BRANCH   1  11
ATOM     11  C   UNL     1       0.158   1.438   0.316  0.00  0.00    +0.167 C 
BRANCH  11  12
ATOM     12  C   UNL     1      -0.164   1.700   1.764  0.00  0.00    +0.234 C 
ATOM     13  O   UNL     1      -0.560   0.796   2.470  0.00  0.00    -0.274 OA
ATOM     14  N   UNL     1      -0.013   2.938   2.275  0.00  0.00    -0.311 N 
ATOM     15  H   UNL     1       0.304   3.660   1.710  0.00  0.00    +0.149 HD
BRANCH  14  16
ATOM     16  C   UNL     1      -0.326   3.192   3.683  0.00  0.00    +0.073 C 
ATOM     17  C   UNL     1      -1.819   3.548   3.837  0.00  0.00    +0.022 C 
ATOM     18  C   UNL     1      -1.840   4.633   4.941  0.00  0.00    +0.002 C 
ATOM     19  C   UNL     1      -0.568   5.461   4.631  0.00  0.00    +0.002 C 
ATOM     20  C   UNL     1       0.470   4.409   4.188  0.00  0.00    +0.022 C 
ENDBRANCH  14  16
ENDBRANCH  11  12
BRANCH  11  21
ATOM     21  C   UNL     1      -0.729   2.314  -0.571  0.00  0.00    +0.032 C 
BRANCH  21  23
ATOM     22  C   UNL     1      -1.228   2.991  -2.924  0.00  0.00    +0.004 C 
ATOM     23  C   UNL     1      -0.341   2.114  -2.037  0.00  0.00    -0.001 C 
ENDBRANCH  21  23
ENDBRANCH  11  21
ENDBRANCH   1  11
BRANCH   2  24
ATOM     24  C   UNL     1       0.639  -2.167  -0.875  0.00  0.00    +0.264 C 
BRANCH  24  25
ATOM     25  N   UNL     1       1.895  -2.818  -1.254  0.00  0.00    -0.154 N 
ATOM     26  N   UNL     1       2.397  -2.833  -2.441  0.00  0.00    -0.127 NA
ATOM     27  C   UNL     1       3.530  -3.509  -2.391  0.00  0.00    +0.239 A 
ATOM     28  N   UNL     1       3.683  -3.908  -1.119  0.00  0.00    -0.105 NA
ATOM     29  N   UNL     1       2.667  -3.468  -0.456  0.00  0.00    -0.045 NA
BRANCH  27  30
ATOM     30  C   UNL     1       4.449  -3.779  -3.518  0.00  0.00    +0.175 A 
ATOM     31  C   UNL     1       5.612  -4.477  -3.449  0.00  0.00    +0.053 A 
ATOM     32  C   UNL     1       6.157  -4.489  -4.749  0.00  0.00    +0.045 A 
ATOM     33  C   UNL     1       5.311  -3.798  -5.537  0.00  0.00    +0.103 A 
ATOM     34  O   UNL     1       4.280  -3.370  -4.790  0.00  0.00    -0.457 OA
ATOM     35  C   UNL     1       5.493  -3.546  -7.012  0.00  0.00    +0.086 C 
ENDBRANCH  27  30
ENDBRANCH  24  25
ENDBRANCH   2  24
TORSDOF 9
