REMARK  Name = ZINC08252238
REMARK  10 active torsions:
REMARK  status: ('A' for Active; 'I' for Inactive)
REMARK    1  A    between atoms: C_1  and  C_2
REMARK    2  A    between atoms: C_4  and  O_11
REMARK    3  A    between atoms: C_7  and  N_8
REMARK    4  A    between atoms: O_11  and  C_12
REMARK    5  A    between atoms: C_12  and  C_13
REMARK    6  A    between atoms: N_15  and  C_16
REMARK    7  A    between atoms: C_17  and  C_29
REMARK    8  A    between atoms: C_18  and  C_28
REMARK    9  A    between atoms: C_19  and  C_27
REMARK   10  A    between atoms: N_20  and  C_21
REMARK                            x       y       z     vdW  Elec       q    Type
REMARK                         _______ _______ _______ _____ _____    ______ ____
ROOT
ATOM      1  C   UNL     1      -5.985   2.680  -2.591  0.00  0.00    +0.256 C 
ATOM      2  O   UNL     1      -6.734   2.595  -3.541  0.00  0.00    -0.272 OA
ATOM      3  N   UNL     1      -6.207   3.607  -1.639  0.00  0.00    -0.268 N 
ATOM      4  H   UNL     1      -5.601   3.682  -0.884  0.00  0.00    +0.156 HD
ENDROOT
BRANCH   3   5
ATOM      5  C   UNL     1      -7.300   4.455  -1.737  0.00  0.00    +0.124 A 
ATOM      6  C   UNL     1      -8.629   4.067  -1.830  0.00  0.00    +0.095 A 
ATOM      7  C   UNL     1      -9.408   5.309  -1.912  0.00  0.00    -0.011 A 
ATOM      8  C   UNL     1      -8.526   6.321  -1.865  0.00  0.00    +0.022 A 
ATOM      9  N   UNL     1      -7.259   5.813  -1.754  0.00  0.00    -0.329 N 
ATOM     10  C   UNL     1      -8.876   7.786  -1.918  0.00  0.00    +0.064 C 
ATOM     11  C   UNL     1     -10.906   5.426  -2.027  0.00  0.00    +0.047 C 
BRANCH   9  12
ATOM     12  C   UNL     1      -6.037   6.617  -1.671  0.00  0.00    +0.089 C 
ATOM     13  C   UNL     1      -5.038   6.136  -2.724  0.00  0.00    +0.025 C 
ATOM     14  C   UNL     1      -3.762   6.976  -2.637  0.00  0.00    +0.002 C 
ATOM     15  C   UNL     1      -3.147   6.825  -1.244  0.00  0.00    +0.000 C 
ATOM     16  C   UNL     1      -4.146   7.306  -0.190  0.00  0.00    +0.002 C 
ATOM     17  C   UNL     1      -5.422   6.466  -0.278  0.00  0.00    +0.025 C 
ENDBRANCH   9  12
BRANCH   6  18
ATOM     18  C   UNL     1      -9.137   2.728  -1.843  0.00  0.00    +0.103 C 
ATOM     19  N   UNL     1      -9.540   1.666  -1.854  0.00  0.00    -0.191 NA
ENDBRANCH   6  18
ENDBRANCH   3   5
BRANCH   1  20
ATOM     20  C   UNL     1      -4.807   1.747  -2.475  0.00  0.00    +0.324 C 
BRANCH  20  21
ATOM     21  O   UNL     1      -4.718   0.944  -3.654  0.00  0.00    -0.483 OA
BRANCH  21  25
ATOM     22  C   UNL     1      -2.361  -2.566  -6.093  0.00  0.00    +0.046 C 
ATOM     23  C   UNL     1      -2.522  -1.684  -4.882  0.00  0.00    -0.017 A 
ATOM     24  C   UNL     1      -3.555  -0.769  -4.826  0.00  0.00    +0.051 A 
ATOM     25  C   UNL     1      -3.702   0.043  -3.711  0.00  0.00    +0.122 A 
ATOM     26  C   UNL     1      -2.812  -0.069  -2.652  0.00  0.00    +0.048 A 
ATOM     27  C   UNL     1      -1.778  -0.982  -2.715  0.00  0.00    +0.036 A 
ATOM     28  C   UNL     1      -1.634  -1.790  -3.828  0.00  0.00    +0.129 A 
BRANCH  28  29
ATOM     29  N   UNL     1      -0.527  -2.772  -3.890  0.00  0.00    +0.057 N 
ATOM     30  O   UNL     1      -0.700  -3.851  -4.427  0.00  0.00    -0.126 OA
ATOM     31  O   UNL     1       0.556  -2.500  -3.403  0.00  0.00    -0.126 OA
ENDBRANCH  28  29
ENDBRANCH  21  25
ENDBRANCH  20  21
ENDBRANCH   1  20
TORSDOF 7
