REMARK  Name = ZINC01283566
REMARK  14 active torsions:
REMARK  status: ('A' for Active; 'I' for Inactive)
REMARK    1  A    between atoms: C_1  and  C_2
REMARK    2  A    between atoms: C_2  and  O_3
REMARK    3  A    between atoms: O_3  and  C_4
REMARK    4  A    between atoms: C_7  and  C_13
REMARK    5  A    between atoms: C_9  and  O_10
REMARK    6  A    between atoms: O_10  and  C_11
REMARK    7  A    between atoms: C_11  and  C_12
REMARK    8  A    between atoms: C_15  and  C_33
REMARK    9  A    between atoms: C_16  and  C_32
REMARK   10  A    between atoms: C_21  and  S_23
REMARK   11  A    between atoms: S_23  and  C_24
REMARK   12  A    between atoms: C_24  and  C_25
REMARK   13  A    between atoms: C_33  and  O_35
REMARK   14  A    between atoms: O_35  and  C_36
REMARK                            x       y       z     vdW  Elec       q    Type
REMARK                         _______ _______ _______ _____ _____    ______ ____
ROOT
ATOM      1  C   UNL     1      -1.944  -6.021  -0.002  0.00  0.00    +0.179 C 
ATOM      2  C   UNL     1      -1.245  -6.489  -1.250  0.00  0.00    +0.082 C 
ATOM      3  C   UNL     1      -0.150  -7.266  -1.229  0.00  0.00    +0.020 C 
ATOM      4  N   UNL     1       0.412  -7.705  -0.057  0.00  0.00    -0.287 N 
ATOM      5  C   UNL     1      -0.328  -7.545   1.107  0.00  0.00    +0.219 A 
ATOM      6  N   UNL     1      -1.436  -6.765   1.148  0.00  0.00    -0.220 N 
ATOM      7  N   UNL     1      -1.929  -6.839   2.450  0.00  0.00    -0.141 NA
ATOM      8  C   UNL     1      -1.118  -7.631   3.117  0.00  0.00    +0.211 A 
ATOM      9  N   UNL     1      -0.147  -8.055   2.294  0.00  0.00    -0.187 NA
ATOM     10  C   UNL     1       0.482  -7.670  -2.536  0.00  0.00    +0.061 C 
ATOM     11  H   UNL     1       1.293  -8.110  -0.041  0.00  0.00    +0.155 HD
ENDROOT
BRANCH   1  15
ATOM     12  C   UNL     1      -1.205  -1.847   0.563  0.00  0.00    +0.162 A 
ATOM     13  C   UNL     1      -0.148  -2.743   0.529  0.00  0.00    +0.050 A 
ATOM     14  C   UNL     1      -0.390  -4.091   0.347  0.00  0.00    +0.010 A 
ATOM     15  C   UNL     1      -1.686  -4.550   0.197  0.00  0.00    -0.015 A 
ATOM     16  C   UNL     1      -2.745  -3.662   0.229  0.00  0.00    +0.055 A 
ATOM     17  C   UNL     1      -2.509  -2.309   0.418  0.00  0.00    +0.162 A 
BRANCH  12  18
ATOM     18  O   UNL     1      -0.968  -0.520   0.743  0.00  0.00    -0.489 OA
BRANCH  18  20
ATOM     19  C   UNL     1       0.463   1.399   1.076  0.00  0.00    +0.048 C 
ATOM     20  C   UNL     1       0.396  -0.118   0.884  0.00  0.00    +0.226 C 
ENDBRANCH  18  20
ENDBRANCH  12  18
BRANCH  17  21
ATOM     21  O   UNL     1      -3.550  -1.435   0.455  0.00  0.00    -0.489 OA
BRANCH  21  22
ATOM     22  C   UNL     1      -4.862  -1.981   0.299  0.00  0.00    +0.226 C 
ATOM     23  C   UNL     1      -5.895  -0.854   0.369  0.00  0.00    +0.048 C 
ENDBRANCH  21  22
ENDBRANCH  17  21
ENDBRANCH   1  15
BRANCH   2  24
ATOM     24  C   UNL     1      -1.765  -6.093  -2.502  0.00  0.00    +0.339 C 
ATOM     25  O   UNL     1      -2.784  -6.605  -2.928  0.00  0.00    -0.245 OA
BRANCH  24  26
ATOM     26  O   UNL     1      -1.132  -5.146  -3.227  0.00  0.00    -0.465 OA
ATOM     27  C   UNL     1      -1.714  -4.794  -4.484  0.00  0.00    +0.280 C 
ENDBRANCH  24  26
ENDBRANCH   2  24
BRANCH   8  28
ATOM     28  S   UNL     1      -1.281  -8.066   4.817  0.00  0.00    -0.080 S 
BRANCH  28  29
ATOM     29  C   UNL     1       0.127  -9.167   5.125  0.00  0.00    +0.114 C 
BRANCH  29  30
ATOM     30  C   UNL     1       0.107  -9.617   6.563  0.00  0.00    -0.019 A 
ATOM     31  C   UNL     1       0.763  -8.878   7.529  0.00  0.00    +0.006 A 
ATOM     32  C   UNL     1       0.745  -9.291   8.848  0.00  0.00    +0.000 A 
ATOM     33  C   UNL     1       0.069 -10.445   9.202  0.00  0.00    +0.001 A 
ATOM     34  C   UNL     1      -0.587 -11.185   8.237  0.00  0.00    +0.020 A 
ATOM     35  C   UNL     1      -0.574 -10.768   6.918  0.00  0.00    +0.045 A 
ATOM     36 CL   UNL     1      -1.404 -11.694   5.707  0.00  0.00    -0.083 Cl
ENDBRANCH  29  30
ENDBRANCH  28  29
ENDBRANCH   8  28
TORSDOF 10
