REMARK  Name = ZINC37527347
REMARK  3 active torsions:
REMARK  status: ('A' for Active; 'I' for Inactive)
REMARK    1  A    between atoms: C_3  and  S_10
REMARK    2  A    between atoms: C_6  and  C_7
REMARK    3  A    between atoms: S_10  and  C_11
REMARK                            x       y       z     vdW  Elec       q    Type
REMARK                         _______ _______ _______ _____ _____    ______ ____
ROOT
ATOM      1  C   UNL     1      -0.017   1.397   0.010  0.00  0.00    +0.039 A 
ATOM      2  C   UNL     1       1.196   2.063   0.002  0.00  0.00    +0.039 A 
ATOM      3  C   UNL     1       2.363   1.300  -0.013  0.00  0.00    +0.127 A 
ATOM      4  N   UNL     1       2.288  -0.028  -0.020  0.00  0.00    -0.142 NA
ATOM      5  N   UNL     1       1.165  -0.649  -0.013  0.00  0.00    -0.141 NA
ATOM      6  C   UNL     1       0.002  -0.004   0.002  0.00  0.00    +0.174 A 
ENDROOT
BRANCH   6   7
ATOM      7  C   UNL     1      -1.264  -0.762   0.011  0.00  0.00    +0.406 C 
ATOM      8  O   UNL     1      -2.333  -0.167   0.024  0.00  0.00    -0.239 OA
ATOM      9  O   UNL     1      -1.245  -1.984   0.004  0.00  0.00    -0.239 OA
ENDBRANCH   6   7
BRANCH   3  10
ATOM     10  S   UNL     1       3.936   2.094  -0.025  0.00  0.00    -0.030 S 
BRANCH  10  11
ATOM     11  C   UNL     1       5.087   0.760  -0.043  0.00  0.00    +0.175 A 
ATOM     12  N   UNL     1       4.641  -0.481  -0.045  0.00  0.00    -0.231 NA
ATOM     13  C   UNL     1       5.476  -1.517  -0.059  0.00  0.00    +0.119 A 
ATOM     14  C   UNL     1       6.825  -1.310  -0.071  0.00  0.00    +0.090 A 
ATOM     15  C   UNL     1       7.310   0.011  -0.069  0.00  0.00    +0.252 A 
ATOM     16  N   UNL     1       6.422   1.028  -0.060  0.00  0.00    -0.302 N 
ATOM     17  O   UNL     1       8.509   0.233  -0.079  0.00  0.00    -0.268 OA
ATOM     18  H   UNL     1       6.734   1.946  -0.062  0.00  0.00    +0.171 HD
ENDBRANCH  10  11
ENDBRANCH   3  10
TORSDOF 3
