REMARK  Name = ZINC02186707
REMARK  7 active torsions:
REMARK  status: ('A' for Active; 'I' for Inactive)
REMARK    1  A    between atoms: C_1  and  C_2
REMARK    2  A    between atoms: C_3  and  C_22
REMARK    3  A    between atoms: C_4  and  N_21
REMARK    4  A    between atoms: C_6  and  C_7
REMARK    5  A    between atoms: N_9  and  N_10
REMARK    6  A    between atoms: C_11  and  C_12
REMARK    7  A    between atoms: C_17  and  N_18
REMARK                            x       y       z     vdW  Elec       q    Type
REMARK                         _______ _______ _______ _____ _____    ______ ____
ROOT
ATOM      1  C   UNL     1       3.719   7.082  -0.988  0.00  0.00    +0.270 C 
ATOM      2  O   UNL     1       2.695   7.729  -0.857  0.00  0.00    -0.268 OA
ATOM      3  N   UNL     1       3.685   5.739  -0.882  0.00  0.00    -0.203 N 
ATOM      4  H   UNL     1       4.500   5.223  -0.986  0.00  0.00    +0.178 HD
ENDROOT
BRANCH   1  10
ATOM      5  C   UNL     1       4.105  10.110  -1.281  0.00  0.00    +0.046 C 
ATOM      6  C   UNL     1       5.221   9.104  -1.401  0.00  0.00    -0.012 A 
ATOM      7  C   UNL     1       6.522   9.504  -1.659  0.00  0.00    +0.083 A 
ATOM      8  C   UNL     1       7.502   8.510  -1.757  0.00  0.00    +0.081 A 
ATOM      9  S   UNL     1       6.604   7.053  -1.483  0.00  0.00    -0.068 S 
ATOM     10  C   UNL     1       4.984   7.762  -1.260  0.00  0.00    +0.081 A 
BRANCH   8  11
ATOM     11  N   UNL     1       8.849   8.654  -2.004  0.00  0.00    -0.352 N 
ATOM     12  H   UNL     1       9.226   9.538  -2.136  0.00  0.00    +0.143 HD
ATOM     13  H   UNL     1       9.421   7.872  -2.046  0.00  0.00    +0.143 HD
ENDBRANCH   8  11
BRANCH   7  14
ATOM     14  C   UNL     1       6.853  10.888  -1.821  0.00  0.00    +0.102 C 
ATOM     15  N   UNL     1       7.115  11.986  -1.949  0.00  0.00    -0.191 NA
ENDBRANCH   7  14
ENDBRANCH   1  10
BRANCH   3  16
ATOM     16  N   UNL     1       2.473   5.087  -0.621  0.00  0.00    -0.187 NA
ATOM     17  C   UNL     1       2.440   3.793  -0.519  0.00  0.00    +0.140 C 
BRANCH  17  18
ATOM     18  C   UNL     1       1.164   3.107  -0.244  0.00  0.00    +0.025 A 
ATOM     19  C   UNL     1       1.143   1.729  -0.016  0.00  0.00    +0.012 A 
ATOM     20  C   UNL     1      -0.054   1.094   0.241  0.00  0.00    +0.001 A 
ATOM     21  C   UNL     1      -1.233   1.818   0.267  0.00  0.00    +0.002 A 
ATOM     22  C   UNL     1      -1.220   3.184   0.048  0.00  0.00    +0.033 A 
ATOM     23  C   UNL     1      -0.029   3.832  -0.210  0.00  0.00    +0.135 A 
BRANCH  23  24
ATOM     24  N   UNL     1      -0.017   5.293  -0.450  0.00  0.00    +0.057 N 
ATOM     25  O   UNL     1      -0.541   6.046   0.351  0.00  0.00    -0.126 OA
ATOM     26  O   UNL     1       0.517   5.742  -1.449  0.00  0.00    -0.126 OA
ENDBRANCH  23  24
ENDBRANCH  17  18
ENDBRANCH   3  16
TORSDOF 6
