REMARK  Name = ZINC63637754
REMARK  9 active torsions:
REMARK  status: ('A' for Active; 'I' for Inactive)
REMARK    1  A    between atoms: C_1  and  N_2
REMARK    2  A    between atoms: N_2  and  C_3
REMARK    3  A    between atoms: N_2  and  C_4
REMARK    4  A    between atoms: C_7  and  C_10
REMARK    5  A    between atoms: C_27  and  C_30
REMARK    6  A    between atoms: C_33  and  O_38
REMARK    7  A    between atoms: C_34  and  O_36
REMARK    8  A    between atoms: O_36  and  C_37
REMARK    9  A    between atoms: O_38  and  C_39
REMARK                            x       y       z     vdW  Elec       q    Type
REMARK                         _______ _______ _______ _____ _____    ______ ____
ROOT
ATOM      1  C   UNL     1      -4.870  -2.906   0.033  0.00  0.00    +0.073 C 
ATOM      2  C   UNL     1      -5.679  -2.550  -1.216  0.00  0.00    +0.148 C 
ATOM      3  C   UNL     1      -6.268  -1.176  -0.998  0.00  0.00    +0.106 C 
ATOM      4  N   UNL     1      -6.050  -0.190  -1.811  0.00  0.00    -0.151 NA
ATOM      5  C   UNL     1      -5.267  -0.306  -2.893  0.00  0.00    +0.331 C 
ATOM      6  O   UNL     1      -5.125   0.652  -3.629  0.00  0.00    -0.250 OA
ATOM      7  N   UNL     1      -4.636  -1.455  -3.184  0.00  0.00    -0.238 N 
ATOM      8  C   UNL     1      -4.789  -2.558  -2.425  0.00  0.00    +0.231 C 
ATOM      9  O   UNL     1      -4.196  -3.574  -2.717  0.00  0.00    -0.275 OA
ATOM     10  N   UNL     1      -7.040  -1.018   0.120  0.00  0.00    -0.307 N 
ATOM     11  C   UNL     1      -6.655  -1.666   1.274  0.00  0.00    +0.017 C 
ATOM     12  C   UNL     1      -5.652  -2.558   1.278  0.00  0.00    +0.021 C 
ATOM     13  C   UNL     1      -5.281  -3.213   2.471  0.00  0.00    +0.162 C 
ATOM     14  O   UNL     1      -4.387  -4.035   2.445  0.00  0.00    -0.292 OA
ATOM     15  C   UNL     1      -5.968  -2.915   3.775  0.00  0.00    +0.088 C 
ATOM     16  C   UNL     1      -6.494  -1.476   3.741  0.00  0.00    +0.032 C 
ATOM     17  C   UNL     1      -7.413  -1.337   2.538  0.00  0.00    +0.059 C 
ATOM     18  H   UNL     1      -4.058  -1.494  -3.962  0.00  0.00    +0.159 HD
ATOM     19  H   UNL     1      -7.836  -0.465   0.102  0.00  0.00    +0.153 HD
ENDROOT
BRANCH   1  23
ATOM     20  C   UNL     1      -1.198  -0.719   0.010  0.00  0.00    +0.029 A 
ATOM     21  C   UNL     1      -1.181  -2.108   0.008  0.00  0.00    +0.023 A 
ATOM     22  C   UNL     1      -2.369  -2.812   0.016  0.00  0.00    +0.006 A 
ATOM     23  C   UNL     1      -3.575  -2.135   0.025  0.00  0.00    -0.039 A 
ATOM     24  C   UNL     1      -3.596  -0.752   0.027  0.00  0.00    +0.006 A 
ATOM     25  C   UNL     1      -2.411  -0.042   0.025  0.00  0.00    +0.023 A 
BRANCH  20  27
ATOM     26  C   UNL     1      -0.018   1.461   0.010  0.00  0.00    +0.129 C 
ATOM     27  N   UNL     1       0.002  -0.004   0.002  0.00  0.00    -0.336 N 
ATOM     28  C   UNL     1       1.281  -0.719  -0.014  0.00  0.00    +0.129 C 
ENDBRANCH  20  27
ENDBRANCH   1  23
BRANCH  16  29
ATOM     29  C   UNL     1      -7.261  -1.185   5.005  0.00  0.00    -0.040 A 
ATOM     30  C   UNL     1      -8.373  -1.942   5.325  0.00  0.00    +0.008 A 
ATOM     31  C   UNL     1      -9.081  -1.680   6.484  0.00  0.00    +0.049 A 
ATOM     32  C   UNL     1      -8.676  -0.657   7.326  0.00  0.00    +0.161 A 
ATOM     33  C   UNL     1      -7.557   0.104   7.004  0.00  0.00    +0.162 A 
ATOM     34  C   UNL     1      -6.849  -0.167   5.844  0.00  0.00    +0.053 A 
BRANCH  33  35
ATOM     35  O   UNL     1      -7.156   1.109   7.828  0.00  0.00    -0.491 OA
ATOM     36  C   UNL     1      -5.998   1.848   7.433  0.00  0.00    +0.277 C 
ENDBRANCH  33  35
BRANCH  32  37
ATOM     37  O   UNL     1      -9.372  -0.398   8.466  0.00  0.00    -0.491 OA
ATOM     38  C   UNL     1     -10.510  -1.219   8.732  0.00  0.00    +0.277 C 
ENDBRANCH  32  37
ENDBRANCH  16  29
TORSDOF 5
