REMARK  Name = ZINC39574268
REMARK  8 active torsions:
REMARK  status: ('A' for Active; 'I' for Inactive)
REMARK    1  A    between atoms: C_1  and  C_2
REMARK    2  A    between atoms: C_2  and  C_3
REMARK    3  A    between atoms: C_2  and  C_4
REMARK    4  A    between atoms: C_6  and  C_10
REMARK    5  A    between atoms: N_12  and  N_13
REMARK    6  A    between atoms: C_14  and  C_15
REMARK    7  A    between atoms: C_14  and  C_16
REMARK    8  A    between atoms: C_19  and  N_22
REMARK                            x       y       z     vdW  Elec       q    Type
REMARK                         _______ _______ _______ _____ _____    ______ ____
ROOT
ATOM      1  C   UNL     1      -3.603  -3.012  -0.224  0.00  0.00    +0.263 C 
ATOM      2  O   UNL     1      -3.562  -3.459   0.903  0.00  0.00    -0.271 OA
ATOM      3  N   UNL     1      -3.865  -3.828  -1.264  0.00  0.00    -0.205 N 
ATOM      4  H   UNL     1      -3.898  -3.470  -2.165  0.00  0.00    +0.177 HD
ENDROOT
BRANCH   1   7
ATOM      5  C   UNL     1      -1.412  -0.526   0.013  0.00  0.00    +0.064 C 
ATOM      6  C   UNL     1      -1.940  -1.303  -0.935  0.00  0.00    +0.036 C 
ATOM      7  C   UNL     1      -3.362  -1.543  -0.460  0.00  0.00    +0.240 C 
ATOM      8  N   UNL     1      -3.420  -0.792   0.805  0.00  0.00    -0.170 NA
ATOM      9  N   UNL     1      -2.315  -0.275   0.986  0.00  0.00    -0.158 NA
BRANCH   5  11
ATOM     10  C   UNL     1      -0.019   1.526   0.010  0.00  0.00    +0.014 C 
ATOM     11  C   UNL     1       0.002  -0.004   0.002  0.00  0.00    +0.033 C 
ATOM     12  C   UNL     1       0.742  -0.511   1.242  0.00  0.00    +0.014 C 
ENDBRANCH   5  11
ENDBRANCH   1   7
BRANCH   3  13
ATOM     13  N   UNL     1      -4.089  -5.194  -1.044  0.00  0.00    -0.184 NA
ATOM     14  C   UNL     1      -4.341  -5.980  -2.045  0.00  0.00    +0.063 C 
ATOM     15  C   UNL     1      -4.392  -5.424  -3.445  0.00  0.00    +0.068 C 
BRANCH  14  16
ATOM     16  C   UNL     1      -4.577  -7.416  -1.814  0.00  0.00    -0.002 A 
ATOM     17  C   UNL     1      -4.843  -8.265  -2.892  0.00  0.00    +0.011 A 
ATOM     18  C   UNL     1      -5.062  -9.607  -2.671  0.00  0.00    +0.023 A 
ATOM     19  C   UNL     1      -5.021 -10.117  -1.378  0.00  0.00    +0.025 A 
ATOM     20  C   UNL     1      -4.757  -9.275  -0.303  0.00  0.00    +0.023 A 
ATOM     21  C   UNL     1      -4.530  -7.933  -0.516  0.00  0.00    +0.011 A 
BRANCH  19  22
ATOM     22  N   UNL     1      -5.244 -11.476  -1.159  0.00  0.00    -0.358 N 
ATOM     23  H   UNL     1      -5.428 -12.064  -1.908  0.00  0.00    +0.142 HD
ATOM     24  H   UNL     1      -5.215 -11.833  -0.258  0.00  0.00    +0.142 HD
ENDBRANCH  19  22
ENDBRANCH  14  16
ENDBRANCH   3  13
TORSDOF 5
