REMARK  Name = ZINC33781116
REMARK  7 active torsions:
REMARK  status: ('A' for Active; 'I' for Inactive)
REMARK    1  A    between atoms: C_1  and  C_2
REMARK    2  A    between atoms: C_2  and  C_3
REMARK    3  A    between atoms: C_3  and  N_4
REMARK    4  A    between atoms: N_4  and  C_5
REMARK    5  A    between atoms: C_6  and  C_17
REMARK    6  A    between atoms: C_11  and  C_16
REMARK    7  A    between atoms: N_21  and  C_25
REMARK                            x       y       z     vdW  Elec       q    Type
REMARK                         _______ _______ _______ _____ _____    ______ ____
ROOT
ATOM      1  C   UNL     1      -0.074   1.179   2.810  0.00  0.00    +0.134 A 
ATOM      2  C   UNL     1      -0.834   1.790   3.836  0.00  0.00    +0.081 A 
ATOM      3  C   UNL     1      -0.364   1.695   5.167  0.00  0.00    +0.267 A 
ATOM      4  O   UNL     1      -0.986   2.206   6.082  0.00  0.00    -0.267 OA
ATOM      5  N   UNL     1       0.786   1.028   5.407  0.00  0.00    -0.267 N 
ATOM      6  C   UNL     1       1.246   0.931   6.687  0.00  0.00    +0.099 A 
ATOM      7  C   UNL     1       2.393   0.271   6.962  0.00  0.00    -0.034 A 
ATOM      8  C   UNL     1       3.126  -0.325   5.927  0.00  0.00    +0.008 A 
ATOM      9  C   UNL     1       2.675  -0.234   4.643  0.00  0.00    +0.047 A 
ATOM     10  C   UNL     1       1.479   0.457   4.377  0.00  0.00    +0.142 A 
ATOM     11  N   UNL     1       1.043   0.537   3.119  0.00  0.00    -0.214 NA
ATOM     12  C   UNL     1       2.884   0.175   8.383  0.00  0.00    +0.045 C 
ENDROOT
BRANCH   2  13
ATOM     13  C   UNL     1      -2.033   2.478   3.538  0.00  0.00    +0.037 C 
ATOM     14  C   UNL     1      -3.227   1.999   3.995  0.00  0.00    +0.077 C 
ATOM     15  C   UNL     1      -3.514   0.778   4.670  0.00  0.00    +0.259 C 
ATOM     16  O   UNL     1      -2.630  -0.021   4.922  0.00  0.00    -0.269 OA
ATOM     17  N   UNL     1      -4.766   0.539   5.020  0.00  0.00    -0.252 N 
ATOM     18  C   UNL     1      -5.748   1.423   4.734  0.00  0.00    +0.121 C 
ATOM     19  S   UNL     1      -7.421   1.319   5.081  0.00  0.00    -0.027 S 
ATOM     20  S   UNL     1      -4.856   2.728   3.902  0.00  0.00    -0.061 S 
BRANCH  17  21
ATOM     21  C   UNL     1      -5.095  -0.704   5.721  0.00  0.00    +0.083 C 
ATOM     22  C   UNL     1      -6.144  -1.502   4.919  0.00  0.00    +0.023 C 
ATOM     23  C   UNL     1      -7.056  -2.126   6.004  0.00  0.00    +0.002 C 
ATOM     24  C   UNL     1      -7.146  -1.002   7.065  0.00  0.00    +0.002 C 
ATOM     25  C   UNL     1      -5.732  -0.386   7.085  0.00  0.00    +0.023 C 
ENDBRANCH  17  21
ENDBRANCH   2  13
BRANCH   1  26
ATOM     26  N   UNL     1      -0.495   1.248   1.500  0.00  0.00    -0.328 N 
ATOM     27  H   UNL     1      -1.426   1.778   1.249  0.00  0.00    +0.147 HD
BRANCH  26  28
ATOM     28  C   UNL     1       0.295   0.614   0.442  0.00  0.00    +0.102 C 
BRANCH  28  30
ATOM     29  C   UNL     1       0.437   0.173  -2.013  0.00  0.00    +0.005 C 
ATOM     30  C   UNL     1      -0.388   0.836  -0.908  0.00  0.00    +0.015 C 
ENDBRANCH  28  30
ENDBRANCH  26  28
ENDBRANCH   1  26
TORSDOF 5
