REMARK  Name = ZINC31557609
REMARK  8 active torsions:
REMARK  status: ('A' for Active; 'I' for Inactive)
REMARK    1  A    between atoms: C_4  and  S_7
REMARK    2  A    between atoms: S_7  and  C_8
REMARK    3  A    between atoms: C_13  and  N_14
REMARK    4  A    between atoms: C_15  and  C_17
REMARK    5  A    between atoms: C_17  and  N_18
REMARK    6  A    between atoms: C_22  and  C_24
REMARK    7  A    between atoms: N_26  and  C_27
REMARK    8  A    between atoms: C_27  and  C_28
REMARK                            x       y       z     vdW  Elec       q    Type
REMARK                         _______ _______ _______ _____ _____    ______ ____
ROOT
ATOM      1  N   UNL     1      -0.176   1.375  -0.386  0.00  0.00    -0.286 N 
ATOM      2  C   UNL     1       0.831   2.243  -0.606  0.00  0.00    +0.201 C 
ATOM      3  O   UNL     1       1.957   1.831  -0.791  0.00  0.00    -0.278 OA
ATOM      4  H   UNL     1      -1.210   1.742  -0.298  0.00  0.00    +0.155 HD
ENDROOT
BRANCH   1  10
ATOM      5  C   UNL     1      -0.659  -0.784   0.602  0.00  0.00    +0.034 A 
ATOM      6  C   UNL     1      -0.391  -2.142   0.708  0.00  0.00    +0.017 A 
ATOM      7  C   UNL     1       0.625  -2.706  -0.039  0.00  0.00    +0.001 A 
ATOM      8  C   UNL     1       1.374  -1.922  -0.899  0.00  0.00    +0.002 A 
ATOM      9  C   UNL     1       1.110  -0.570  -1.015  0.00  0.00    +0.024 A 
ATOM     10  C   UNL     1       0.092   0.005  -0.269  0.00  0.00    +0.047 A 
BRANCH   5  11
ATOM     11  S   UNL     1      -1.950  -0.061   1.559  0.00  0.00    -0.088 S 
BRANCH  11  15
ATOM     12  C   UNL     1       0.235   2.119   4.874  0.00  0.00    +0.000 A 
ATOM     13  C   UNL     1      -1.137   2.244   4.754  0.00  0.00    +0.001 A 
ATOM     14  C   UNL     1      -1.806   1.581   3.744  0.00  0.00    +0.015 A 
ATOM     15  C   UNL     1      -1.100   0.787   2.849  0.00  0.00    +0.013 A 
ATOM     16  C   UNL     1       0.278   0.659   2.976  0.00  0.00    +0.015 A 
ATOM     17  C   UNL     1       0.942   1.330   3.985  0.00  0.00    +0.001 A 
ENDBRANCH  11  15
ENDBRANCH   5  11
ENDBRANCH   1  10
BRANCH   2  18
ATOM     18  C   UNL     1       0.558   3.725  -0.624  0.00  0.00    +0.020 C 
BRANCH  18  19
ATOM     19  N   UNL     1       1.809   4.450  -0.881  0.00  0.00    +0.393 N 
ATOM     20  C   UNL     1       2.264   4.243  -2.268  0.00  0.00    -0.077 C 
ATOM     21  C   UNL     1       2.401   5.636  -2.918  0.00  0.00    -0.020 C 
ATOM     22  C   UNL     1       2.564   6.577  -1.695  0.00  0.00    -0.008 C 
ATOM     23  C   UNL     1       1.637   5.901  -0.654  0.00  0.00    +0.020 C 
ATOM     24  H   UNL     1       2.559   4.049  -0.183  0.00  0.00    -0.080 HD
BRANCH  23  25
ATOM     25  C   UNL     1       2.063   6.267   0.744  0.00  0.00    +0.200 C 
ATOM     26  O   UNL     1       2.475   5.410   1.496  0.00  0.00    -0.278 OA
ATOM     27  N   UNL     1       1.986   7.548   1.158  0.00  0.00    -0.310 N 
ATOM     28  H   UNL     1       1.612   8.325   0.475  0.00  0.00    +0.149 HD
BRANCH  27  29
ATOM     29  C   UNL     1       2.401   7.904   2.517  0.00  0.00    +0.178 C 
BRANCH  29  30
ATOM     30  C   UNL     1       2.217   9.385   2.726  0.00  0.00    +0.122 A 
ATOM     31  C   UNL     1       1.103   9.982   3.187  0.00  0.00    +0.046 A 
ATOM     32  C   UNL     1       1.370  11.370   3.227  0.00  0.00    +0.041 A 
ATOM     33  C   UNL     1       2.627  11.539   2.781  0.00  0.00    +0.195 A 
ATOM     34  O   UNL     1       3.136  10.333   2.480  0.00  0.00    -0.466 OA
ENDBRANCH  29  30
ENDBRANCH  27  29
ENDBRANCH  23  25
ENDBRANCH  18  19
ENDBRANCH   2  18
TORSDOF 8
