REMARK  Name = ZINC08771729
REMARK  7 active torsions:
REMARK  status: ('A' for Active; 'I' for Inactive)
REMARK    1  A    between atoms: C_1  and  N_55
REMARK    2  A    between atoms: C_12  and  C_15
REMARK    3  A    between atoms: C_18  and  O_21
REMARK    4  A    between atoms: O_21  and  C_22
REMARK    5  A    between atoms: C_22  and  C_24
REMARK    6  A    between atoms: C_27  and  O_30
REMARK    7  A    between atoms: O_30  and  C_31
REMARK                            x       y       z     vdW  Elec       q    Type
REMARK                         _______ _______ _______ _____ _____    ______ ____
ROOT
ATOM      1  C   UNL     1      12.578  -6.703  -5.626  0.00  0.00    -0.096 C 
ATOM      2  C   UNL     1      11.266  -4.990  -6.725  0.00  0.00    -0.074 C 
ATOM      3  C   UNL     1      10.383  -4.728  -7.948  0.00  0.00    +0.018 C 
ATOM      4  C   UNL     1       9.125  -5.579  -7.819  0.00  0.00    -0.027 A 
ATOM      5  C   UNL     1       9.104  -6.629  -6.966  0.00  0.00    -0.021 A 
ATOM      6  S   UNL     1       7.482  -7.323  -7.134  0.00  0.00    -0.080 S 
ATOM      7  C   UNL     1       6.852  -6.247  -8.309  0.00  0.00    +0.080 A 
ATOM      8  C   UNL     1       7.899  -5.347  -8.562  0.00  0.00    +0.068 A 
ATOM      9  C   UNL     1       7.654  -4.276  -9.555  0.00  0.00    +0.248 C 
ATOM     10  O   UNL     1       8.546  -3.532  -9.919  0.00  0.00    -0.270 OA
ATOM     11  N   UNL     1       6.400  -4.157 -10.040  0.00  0.00    -0.289 N 
ATOM     12  C   UNL     1       5.250  -4.857  -9.477  0.00  0.00    +0.190 C 
ATOM     13  N   UNL     1       5.636  -6.174  -8.938  0.00  0.00    -0.316 N 
ATOM     14  C   UNL     1      10.227  -7.083  -6.086  0.00  0.00    -0.036 C 
ATOM     15  H   UNL     1       6.256  -3.575 -10.802  0.00  0.00    +0.151 HD
ATOM     16  H   UNL     1       5.059  -6.949  -9.023  0.00  0.00    +0.149 HD
ATOM     17  N   UNL     1      11.473  -6.445  -6.574  0.00  0.00    +0.381 N 
ATOM     18  H   UNL     1      11.718  -6.844  -7.488  0.00  0.00    -0.082 HD
ENDROOT
BRANCH  12  19
ATOM     19  C   UNL     1       4.657  -4.024  -8.370  0.00  0.00    -0.009 A 
ATOM     20  C   UNL     1       4.752  -2.645  -8.417  0.00  0.00    +0.010 A 
ATOM     21  C   UNL     1       4.211  -1.879  -7.403  0.00  0.00    +0.047 A 
ATOM     22  C   UNL     1       3.570  -2.495  -6.337  0.00  0.00    +0.132 A 
ATOM     23  C   UNL     1       3.481  -3.878  -6.290  0.00  0.00    +0.047 A 
ATOM     24  C   UNL     1       4.020  -4.639  -7.309  0.00  0.00    +0.010 A 
BRANCH  22  25
ATOM     25  O   UNL     1       3.037  -1.743  -5.338  0.00  0.00    -0.422 OA
BRANCH  25  26
ATOM     26  C   UNL     1       1.864  -1.131  -5.593  0.00  0.00    +0.344 C 
ATOM     27  O   UNL     1       1.376  -1.190  -6.704  0.00  0.00    -0.245 OA
BRANCH  26  28
ATOM     28  C   UNL     1       1.172  -0.388  -4.523  0.00  0.00    +0.060 A 
ATOM     29  C   UNL     1      -0.045   0.248  -4.785  0.00  0.00    +0.018 A 
ATOM     30  C   UNL     1      -0.687   0.940  -3.783  0.00  0.00    +0.046 A 
ATOM     31  C   UNL     1      -0.128   1.006  -2.512  0.00  0.00    +0.120 A 
ATOM     32  C   UNL     1       1.085   0.380  -2.249  0.00  0.00    +0.046 A 
ATOM     33  C   UNL     1       1.731  -0.319  -3.244  0.00  0.00    +0.018 A 
BRANCH  31  34
ATOM     34  O   UNL     1      -0.765   1.689  -1.528  0.00  0.00    -0.495 OA
ATOM     35  C   UNL     1      -0.135   1.717  -0.245  0.00  0.00    +0.277 C 
ENDBRANCH  31  34
ENDBRANCH  26  28
ENDBRANCH  25  26
ENDBRANCH  22  25
ENDBRANCH  12  19
TORSDOF 5
