REMARK  Name = ZINC35867505
REMARK  6 active torsions:
REMARK  status: ('A' for Active; 'I' for Inactive)
REMARK    1  A    between atoms: C_1  and  C_2
REMARK    2  A    between atoms: C_2  and  C_3
REMARK    3  A    between atoms: C_3  and  C_4
REMARK    4  A    between atoms: C_14  and  C_18
REMARK    5  A    between atoms: N_27  and  C_28
REMARK    6  A    between atoms: C_31  and  C_34
REMARK                            x       y       z     vdW  Elec       q    Type
REMARK                         _______ _______ _______ _____ _____    ______ ____
ROOT
ATOM      1  C   UNL     1       0.801  -1.335  -0.698  0.00  0.00    +0.132 A 
ATOM      2  N   UNL     1       1.814  -2.031  -0.213  0.00  0.00    -0.217 NA
ATOM      3  C   UNL     1       2.021  -3.296  -0.540  0.00  0.00    +0.133 A 
ATOM      4  C   UNL     1       1.125  -3.933  -1.443  0.00  0.00    +0.051 A 
ATOM      5  C   UNL     1       1.153  -5.308  -1.945  0.00  0.00    -0.025 A 
ATOM      6  C   UNL     1       0.175  -5.666  -2.802  0.00  0.00    -0.004 A 
ATOM      7  S   UNL     1      -0.829  -4.217  -2.990  0.00  0.00    -0.073 S 
ATOM      8  C   UNL     1       0.070  -3.128  -1.916  0.00  0.00    +0.114 A 
ATOM      9  N   UNL     1      -0.066  -1.873  -1.534  0.00  0.00    -0.225 NA
ATOM     10  C   UNL     1      -0.017  -7.002  -3.453  0.00  0.00    +0.046 C 
ATOM     11  C   UNL     1       1.280  -7.809  -3.295  0.00  0.00    -0.009 C 
ATOM     12  C   UNL     1       1.737  -7.721  -1.836  0.00  0.00    +0.008 C 
ATOM     13  C   UNL     1       2.231  -6.306  -1.531  0.00  0.00    +0.037 C 
ATOM     14  C   UNL     1       1.023  -9.270  -3.668  0.00  0.00    +0.008 C 
ATOM     15  N   UNL     1       3.094  -3.990  -0.011  0.00  0.00    -0.312 N 
ATOM     16  C   UNL     1       4.348  -4.119  -0.766  0.00  0.00    +0.125 C 
ATOM     17  C   UNL     1       5.499  -3.596   0.102  0.00  0.00    +0.128 C 
ATOM     18  N   UNL     1       5.406  -4.218   1.430  0.00  0.00    -0.282 N 
ATOM     19  C   UNL     1       4.152  -4.089   2.186  0.00  0.00    +0.128 C 
ATOM     20  C   UNL     1       3.002  -4.608   1.320  0.00  0.00    +0.125 C 
ATOM     21  C   UNL     1       6.451  -4.894   1.946  0.00  0.00    +0.307 C 
ATOM     22  O   UNL     1       7.523  -4.886   1.372  0.00  0.00    -0.252 OA
ATOM     23  N   UNL     1       6.308  -5.580   3.097  0.00  0.00    -0.269 N 
ATOM     24  H   UNL     1       5.427  -5.700   3.484  0.00  0.00    +0.156 HD
ENDROOT
BRANCH  23  25
ATOM     25  C   UNL     1       7.431  -6.120   3.734  0.00  0.00    +0.035 A 
ATOM     26  C   UNL     1       8.574  -6.412   3.001  0.00  0.00    +0.023 A 
ATOM     27  C   UNL     1       9.681  -6.944   3.632  0.00  0.00    +0.005 A 
ATOM     28  C   UNL     1       9.652  -7.186   4.994  0.00  0.00    -0.050 A 
ATOM     29  C   UNL     1       8.516  -6.896   5.727  0.00  0.00    +0.005 A 
ATOM     30  C   UNL     1       7.408  -6.359   5.102  0.00  0.00    +0.023 A 
ATOM     31  C   UNL     1      10.862  -7.766   5.680  0.00  0.00    +0.044 C 
ENDBRANCH  23  25
BRANCH   1  32
ATOM     32  C   UNL     1       0.628   0.103  -0.281  0.00  0.00    +0.076 C 
BRANCH  32  34
ATOM     33  C   UNL     1      -0.420   1.629   1.397  0.00  0.00    +0.004 C 
ATOM     34  C   UNL     1      -0.244   0.169   0.974  0.00  0.00    +0.004 C 
ENDBRANCH  32  34
ENDBRANCH   1  32
TORSDOF 3
