REMARK  Name = ZINC36627111
REMARK  9 active torsions:
REMARK  status: ('A' for Active; 'I' for Inactive)
REMARK    1  A    between atoms: C_1  and  C_2
REMARK    2  A    between atoms: C_2  and  O_3
REMARK    3  A    between atoms: O_3  and  C_4
REMARK    4  A    between atoms: C_4  and  C_6
REMARK    5  A    between atoms: C_7  and  C_20
REMARK    6  A    between atoms: C_12  and  C_14
REMARK    7  A    between atoms: C_20  and  N_21
REMARK    8  A    between atoms: C_24  and  C_28
REMARK    9  A    between atoms: C_24  and  C_29
REMARK                            x       y       z     vdW  Elec       q    Type
REMARK                         _______ _______ _______ _____ _____    ______ ____
ROOT
ATOM      1  C   UNL     1      -2.650  -2.627  -0.242  0.00  0.00    +0.080 C 
ATOM      2  C   UNL     1      -2.943  -3.944  -0.292  0.00  0.00    +0.042 C 
ATOM      3  N   UNL     1      -4.237  -4.380  -0.269  0.00  0.00    -0.271 N 
ATOM      4  C   UNL     1      -5.295  -3.562  -0.196  0.00  0.00    +0.304 C 
ATOM      5  O   UNL     1      -6.411  -4.043  -0.180  0.00  0.00    -0.252 OA
ATOM      6  N   UNL     1      -5.162  -2.222  -0.140  0.00  0.00    -0.288 N 
ATOM      7  C   UNL     1      -3.805  -1.650  -0.153  0.00  0.00    +0.144 C 
ATOM      8  H   UNL     1      -4.399  -5.335  -0.306  0.00  0.00    +0.156 HD
ATOM      9  H   UNL     1      -5.942  -1.647  -0.088  0.00  0.00    +0.151 HD
ENDROOT
BRANCH   7  10
ATOM     10  C   UNL     1      -3.627  -0.834   1.101  0.00  0.00    -0.022 A 
ATOM     11  C   UNL     1      -3.991  -1.360   2.326  0.00  0.00    +0.006 A 
ATOM     12  C   UNL     1      -3.828  -0.611   3.476  0.00  0.00    +0.000 A 
ATOM     13  C   UNL     1      -3.300   0.665   3.401  0.00  0.00    +0.000 A 
ATOM     14  C   UNL     1      -2.936   1.191   2.176  0.00  0.00    +0.000 A 
ATOM     15  C   UNL     1      -3.095   0.440   1.026  0.00  0.00    +0.006 A 
ENDBRANCH   7  10
BRANCH   1  16
ATOM     16  C   UNL     1      -1.310  -2.175  -0.267  0.00  0.00    +0.339 C 
ATOM     17  O   UNL     1      -0.762  -1.839   0.767  0.00  0.00    -0.245 OA
BRANCH  16  18
ATOM     18  O   UNL     1      -0.639  -2.115  -1.436  0.00  0.00    -0.462 OA
BRANCH  18  20
ATOM     19  C   UNL     1       1.304  -1.651  -2.797  0.00  0.00    +0.048 C 
ATOM     20  C   UNL     1       0.711  -1.649  -1.386  0.00  0.00    +0.229 C 
ENDBRANCH  18  20
ENDBRANCH  16  18
ENDBRANCH   1  16
BRANCH   2  21
ATOM     21  C   UNL     1      -1.824  -4.950  -0.376  0.00  0.00    +0.169 C 
BRANCH  21  22
ATOM     22  N   UNL     1      -1.810  -5.768   0.839  0.00  0.00    -0.218 N 
ATOM     23  C   UNL     1      -1.115  -5.458   1.952  0.00  0.00    +0.251 C 
ATOM     24  O   UNL     1      -0.411  -4.487   2.129  0.00  0.00    -0.272 OA
ATOM     25  C   UNL     1      -1.399  -6.575   2.936  0.00  0.00    +0.136 C 
ATOM     26  N   UNL     1      -2.305  -7.468   2.194  0.00  0.00    -0.281 N 
ATOM     27  C   UNL     1      -2.490  -6.911   0.984  0.00  0.00    +0.310 C 
ATOM     28  O   UNL     1      -3.193  -7.393   0.118  0.00  0.00    -0.252 OA
ATOM     29  C   UNL     1      -2.087  -6.028   4.188  0.00  0.00    +0.047 C 
ATOM     30  H   UNL     1      -2.695  -8.296   2.517  0.00  0.00    +0.152 HD
BRANCH  25  31
ATOM     31  C   UNL     1      -0.126  -7.295   3.301  0.00  0.00    -0.008 A 
ATOM     32  C   UNL     1       0.032  -8.610   2.984  0.00  0.00    +0.007 A 
ATOM     33  C   UNL     1       1.201  -9.292   3.313  0.00  0.00    +0.001 A 
ATOM     34  C   UNL     1       2.219  -8.665   3.963  0.00  0.00    +0.008 A 
ATOM     35  C   UNL     1       2.093  -7.308   4.307  0.00  0.00    -0.018 A 
ATOM     36  C   UNL     1       0.906  -6.612   3.966  0.00  0.00    -0.012 A 
ATOM     37  C   UNL     1       0.782  -5.254   4.306  0.00  0.00    +0.009 A 
ATOM     38  C   UNL     1       1.803  -4.625   4.950  0.00  0.00    +0.001 A 
ATOM     39  C   UNL     1       2.973  -5.308   5.279  0.00  0.00    +0.001 A 
ATOM     40  C   UNL     1       3.123  -6.627   4.979  0.00  0.00    +0.008 A 
ENDBRANCH  25  31
ENDBRANCH  21  22
ENDBRANCH   2  21
TORSDOF 7
