REMARK  Name = ZINC02429907
REMARK  7 active torsions:
REMARK  status: ('A' for Active; 'I' for Inactive)
REMARK    1  A    between atoms: C_1  and  C_2
REMARK    2  A    between atoms: C_10  and  C_18
REMARK    3  A    between atoms: C_21  and  O_26
REMARK    4  A    between atoms: C_22  and  O_24
REMARK    5  A    between atoms: O_24  and  C_25
REMARK    6  A    between atoms: O_26  and  C_27
REMARK    7  A    between atoms: C_28  and  C_31
REMARK                            x       y       z     vdW  Elec       q    Type
REMARK                         _______ _______ _______ _____ _____    ______ ____
ROOT
ATOM      1  C   UNL     1       0.032   1.423  -0.374  0.00  0.00    +0.044 C 
ATOM      2  C   UNL     1       0.039  -0.082  -0.291  0.00  0.00    -0.050 A 
ATOM      3  C   UNL     1       0.030  -0.836  -1.451  0.00  0.00    +0.007 A 
ATOM      4  C   UNL     1       0.037  -2.218  -1.390  0.00  0.00    +0.046 A 
ATOM      5  C   UNL     1       0.053  -2.853  -0.161  0.00  0.00    +0.131 A 
ATOM      6  C   UNL     1       0.060  -2.089   1.013  0.00  0.00    +0.043 A 
ATOM      7  C   UNL     1       0.060  -0.703   0.944  0.00  0.00    +0.017 A 
ATOM      8  C   UNL     1       0.072  -2.801   2.317  0.00  0.00    +0.083 C 
ATOM      9  C   UNL     1      -0.251  -4.110   2.312  0.00  0.00    +0.027 C 
ATOM     10  C   UNL     1      -0.235  -4.851   3.631  0.00  0.00    +0.159 C 
ATOM     11  N   UNL     1       0.135  -4.058   4.809  0.00  0.00    -0.208 N 
ATOM     12  C   UNL     1       0.435  -2.720   4.647  0.00  0.00    +0.237 C 
ATOM     13  N   UNL     1       0.396  -2.154   3.463  0.00  0.00    -0.213 NA
ATOM     14  N   UNL     1       0.736  -2.233   5.871  0.00  0.00    -0.205 NA
ATOM     15  C   UNL     1       0.644  -3.174   6.769  0.00  0.00    +0.203 C 
ATOM     16  N   UNL     1       0.273  -4.340   6.170  0.00  0.00    -0.251 N 
ATOM     17  C   UNL     1      -0.621  -4.803   1.033  0.00  0.00    +0.234 C 
ATOM     18  O   UNL     1       0.063  -4.208  -0.071  0.00  0.00    -0.479 OA
ATOM     19  H   UNL     1       0.132  -5.196   6.604  0.00  0.00    +0.171 HD
ENDROOT
BRANCH  17  20
ATOM     20  C   UNL     1      -2.108  -4.685   0.816  0.00  0.00    -0.002 A 
ATOM     21  C   UNL     1      -2.648  -3.495   0.364  0.00  0.00    +0.007 A 
ATOM     22  C   UNL     1      -4.012  -3.387   0.165  0.00  0.00    +0.002 A 
ATOM     23  C   UNL     1      -4.836  -4.468   0.416  0.00  0.00    +0.020 A 
ATOM     24  C   UNL     1      -4.295  -5.659   0.868  0.00  0.00    +0.041 A 
ATOM     25  C   UNL     1      -2.929  -5.769   1.062  0.00  0.00    +0.027 A 
ATOM     26 CL   UNL     1      -5.329  -7.017   1.184  0.00  0.00    -0.084 Cl
ENDBRANCH  17  20
BRANCH  10  27
ATOM     27  C   UNL     1       0.738  -5.997   3.515  0.00  0.00    -0.017 A 
ATOM     28  C   UNL     1       2.094  -5.766   3.655  0.00  0.00    +0.009 A 
ATOM     29  C   UNL     1       2.990  -6.813   3.550  0.00  0.00    +0.050 A 
ATOM     30  C   UNL     1       2.530  -8.097   3.304  0.00  0.00    +0.162 A 
ATOM     31  C   UNL     1       1.166  -8.329   3.164  0.00  0.00    +0.162 A 
ATOM     32  C   UNL     1       0.272  -7.276   3.276  0.00  0.00    +0.055 A 
BRANCH  31  33
ATOM     33  O   UNL     1       0.709  -9.587   2.923  0.00  0.00    -0.491 OA
ATOM     34  C   UNL     1      -0.704  -9.751   2.791  0.00  0.00    +0.277 C 
ENDBRANCH  31  33
BRANCH  30  35
ATOM     35  O   UNL     1       3.411  -9.128   3.200  0.00  0.00    -0.491 OA
ATOM     36  C   UNL     1       4.797  -8.816   3.354  0.00  0.00    +0.277 C 
ENDBRANCH  30  35
ENDBRANCH  10  27
TORSDOF 4
