REMARK  Name = ZINC29500369
REMARK  9 active torsions:
REMARK  status: ('A' for Active; 'I' for Inactive)
REMARK    1  A    between atoms: C_1  and  C_2
REMARK    2  A    between atoms: C_2  and  C_3
REMARK    3  A    between atoms: C_2  and  C_4
REMARK    4  A    between atoms: C_2  and  N_5
REMARK    5  A    between atoms: C_6  and  S_8
REMARK    6  A    between atoms: S_8  and  C_9
REMARK    7  A    between atoms: C_9  and  C_10
REMARK    8  A    between atoms: C_13  and  C_23
REMARK    9  A    between atoms: C_16  and  C_18
REMARK                            x       y       z     vdW  Elec       q    Type
REMARK                         _______ _______ _______ _____ _____    ______ ____
ROOT
ATOM      1  C   UNL     1      -3.095   3.911   4.260  0.00  0.00    +0.246 C 
ATOM      2  O   UNL     1      -2.745   3.795   5.416  0.00  0.00    -0.273 OA
ATOM      3  N   UNL     1      -4.195   4.628   3.957  0.00  0.00    -0.181 N 
ATOM      4  C   UNL     1      -5.063   5.314   4.927  0.00  0.00    +0.173 C 
ATOM      5  C   UNL     1      -6.147   5.966   4.046  0.00  0.00    +0.090 C 
ATOM      6  C   UNL     1      -5.768   5.559   2.640  0.00  0.00    +0.075 C 
ATOM      7  N   UNL     1      -4.699   4.835   2.675  0.00  0.00    -0.180 NA
ENDROOT
BRANCH   6   8
ATOM      8  C   UNL     1      -6.501   5.929   1.425  0.00  0.00    +0.035 A 
ATOM      9  C   UNL     1      -6.228   5.603   0.108  0.00  0.00    +0.017 A 
ATOM     10  C   UNL     1      -7.072   6.074  -0.870  0.00  0.00    +0.008 A 
ATOM     11  C   UNL     1      -8.138   6.838  -0.517  0.00  0.00    +0.046 A 
ATOM     12  S   UNL     1      -7.982   6.912   1.260  0.00  0.00    -0.095 S 
ENDBRANCH   6   8
BRANCH   4  13
ATOM     13  C   UNL     1      -4.290   6.367   5.678  0.00  0.00    +0.128 A 
ATOM     14  C   UNL     1      -4.423   6.659   6.985  0.00  0.00    +0.046 A 
ATOM     15  C   UNL     1      -3.511   7.702   7.267  0.00  0.00    +0.041 A 
ATOM     16  C   UNL     1      -2.875   7.985   6.116  0.00  0.00    +0.195 A 
ATOM     17  O   UNL     1      -3.347   7.170   5.158  0.00  0.00    -0.466 OA
ENDBRANCH   4  13
BRANCH   1  18
ATOM     18  C   UNL     1      -2.298   3.253   3.163  0.00  0.00    +0.174 C 
BRANCH  18  19
ATOM     19  S   UNL     1      -0.891   2.372   3.884  0.00  0.00    -0.084 S 
BRANCH  19  21
ATOM     20  N   UNL     1      -0.695   1.961   1.258  0.00  0.00    -0.363 N 
ATOM     21  C   UNL     1      -0.158   1.718   2.421  0.00  0.00    +0.126 C 
ATOM     22  N   UNL     1       0.981   0.952   2.507  0.00  0.00    -0.339 N 
ATOM     23  H   UNL     1       1.434   0.747   3.488  0.00  0.00    +0.144 HD
ATOM     24  H   UNL     1       1.439   0.543   1.594  0.00  0.00    +0.144 HD
ATOM     25  H   UNL     1      -1.663   2.479   1.196  0.00  0.00    +0.162 HD
BRANCH  20  27
ATOM     26  C   UNL     1       0.091   0.017  -0.001  0.00  0.00    +0.033 C 
ATOM     27  C   UNL     1      -0.008   1.543   0.033  0.00  0.00    +0.032 C 
ATOM     28  C   UNL     1       1.397   2.147   0.005  0.00  0.00    +0.033 C 
ATOM     29  C   UNL     1      -0.797   2.030  -1.185  0.00  0.00    +0.033 C 
ENDBRANCH  20  27
ENDBRANCH  19  21
ENDBRANCH  18  19
ENDBRANCH   1  18
TORSDOF 6
