REMARK  Name = ZINC09344407
REMARK  8 active torsions:
REMARK  status: ('A' for Active; 'I' for Inactive)
REMARK    1  A    between atoms: C_1  and  C_2
REMARK    2  A    between atoms: C_2  and  C_34
REMARK    3  A    between atoms: C_9  and  C_19
REMARK    4  A    between atoms: C_9  and  N_23
REMARK    5  A    between atoms: N_12  and  C_13
REMARK    6  A    between atoms: N_23  and  S_24
REMARK    7  A    between atoms: S_24  and  C_27
REMARK    8  A    between atoms: C_30  and  N_33
REMARK                            x       y       z     vdW  Elec       q    Type
REMARK                         _______ _______ _______ _____ _____    ______ ____
ROOT
ATOM      1  C   UNL     1      -1.122   5.851   2.507  0.00  0.00    +0.011 C 
ATOM      2  C   UNL     1      -0.596   6.086   1.090  0.00  0.00    -0.023 C 
ATOM      3  C   UNL     1       0.468   5.032   0.762  0.00  0.00    +0.058 C 
ATOM      4  C   UNL     1      -0.203   3.673   0.752  0.00  0.00    +0.028 C 
ATOM      5  C   UNL     1      -1.526   3.535   0.467  0.00  0.00    +0.052 C 
ATOM      6  C   UNL     1      -2.368   4.612   0.153  0.00  0.00    +0.164 C 
ATOM      7  O   UNL     1      -3.551   4.439  -0.067  0.00  0.00    -0.292 OA
ATOM      8  C   UNL     1      -1.757   5.995   0.098  0.00  0.00    +0.086 C 
ATOM      9  C   UNL     1      -1.837   2.067   0.554  0.00  0.00    +0.240 C 
ATOM     10  C   UNL     1      -0.501   1.449   0.928  0.00  0.00    +0.259 C 
ATOM     11  O   UNL     1      -0.269   0.273   1.109  0.00  0.00    -0.272 OA
ATOM     12  N   UNL     1       0.375   2.470   1.012  0.00  0.00    -0.241 N 
ATOM     13  C   UNL     1       0.029   7.480   1.006  0.00  0.00    +0.011 C 
ENDROOT
BRANCH  12  14
ATOM     14  C   UNL     1       1.729   2.309   1.331  0.00  0.00    +0.041 A 
ATOM     15  C   UNL     1       2.708   2.827   0.494  0.00  0.00    +0.024 A 
ATOM     16  C   UNL     1       4.042   2.672   0.815  0.00  0.00    +0.002 A 
ATOM     17  C   UNL     1       4.404   1.991   1.963  0.00  0.00    +0.000 A 
ATOM     18  C   UNL     1       3.432   1.469   2.796  0.00  0.00    +0.002 A 
ATOM     19  C   UNL     1       2.095   1.626   2.483  0.00  0.00    +0.024 A 
ENDBRANCH  12  14
BRANCH   9  20
ATOM     20  C   UNL     1      -2.878   1.803   1.645  0.00  0.00    +0.422 C 
ATOM     21  F   UNL     1      -2.502   2.465   2.818  0.00  0.00    -0.168 F 
ATOM     22  F   UNL     1      -4.126   2.273   1.222  0.00  0.00    -0.168 F 
ATOM     23  F   UNL     1      -2.957   0.428   1.890  0.00  0.00    -0.168 F 
ENDBRANCH   9  20
BRANCH   9  24
ATOM     24  N   UNL     1      -2.300   1.556  -0.739  0.00  0.00    -0.162 NA
ATOM     25  H   UNL     1      -3.181   1.159  -0.816  0.00  0.00    +0.150 HD
BRANCH  24  26
ATOM     26  S   UNL     1      -1.318   1.657  -2.068  0.00  0.00    +0.060 S 
ATOM     27  O   UNL     1      -2.098   1.245  -3.182  0.00  0.00    -0.153 OA
ATOM     28  O   UNL     1      -0.685   2.929  -2.010  0.00  0.00    -0.153 OA
BRANCH  26  29
ATOM     29  C   UNL     1      -0.047   0.453  -1.870  0.00  0.00    +0.105 A 
ATOM     30  C   UNL     1       1.195   0.833  -1.394  0.00  0.00    +0.030 A 
ATOM     31  C   UNL     1       2.192  -0.110  -1.232  0.00  0.00    +0.024 A 
ATOM     32  C   UNL     1       1.949  -1.438  -1.559  0.00  0.00    +0.025 A 
ATOM     33  C   UNL     1       0.702  -1.815  -2.042  0.00  0.00    +0.024 A 
ATOM     34  C   UNL     1      -0.292  -0.868  -2.196  0.00  0.00    +0.030 A 
BRANCH  32  35
ATOM     35  N   UNL     1       2.956  -2.393  -1.401  0.00  0.00    -0.358 N 
ATOM     36  H   UNL     1       2.785  -3.320  -1.629  0.00  0.00    +0.142 HD
ATOM     37  H   UNL     1       3.826  -2.128  -1.064  0.00  0.00    +0.142 HD
ENDBRANCH  32  35
ENDBRANCH  26  29
ENDBRANCH  24  26
ENDBRANCH   9  24
TORSDOF 6
