REMARK  Name = ZINC15903940
REMARK  9 active torsions:
REMARK  status: ('A' for Active; 'I' for Inactive)
REMARK    1  A    between atoms: C_1  and  C_2
REMARK    2  A    between atoms: C_5  and  C_8
REMARK    3  A    between atoms: N_10  and  N_11
REMARK    4  A    between atoms: C_12  and  C_14
REMARK    5  A    between atoms: C_18  and  S_20
REMARK    6  A    between atoms: S_20  and  N_23
REMARK    7  A    between atoms: N_23  and  C_24
REMARK    8  A    between atoms: C_29  and  O_30
REMARK    9  A    between atoms: O_30  and  C_31
REMARK                            x       y       z     vdW  Elec       q    Type
REMARK                         _______ _______ _______ _____ _____    ______ ____
ROOT
ATOM      1  C   UNL     1       3.611  -6.550  -0.343  0.00  0.00    +0.040 A 
ATOM      2  C   UNL     1       2.446  -7.318  -0.341  0.00  0.00    +0.013 A 
ATOM      3  C   UNL     1       2.531  -8.694  -0.284  0.00  0.00    +0.003 A 
ATOM      4  C   UNL     1       3.767  -9.312  -0.220  0.00  0.00    +0.029 A 
ATOM      5  C   UNL     1       4.926  -8.556  -0.216  0.00  0.00    +0.109 A 
ATOM      6  C   UNL     1       4.855  -7.179  -0.278  0.00  0.00    +0.042 A 
ENDROOT
BRANCH   1   8
ATOM      7  N   UNL     1       2.325  -4.470  -0.472  0.00  0.00    -0.230 N 
ATOM      8  C   UNL     1       3.528  -5.075  -0.409  0.00  0.00    +0.260 C 
ATOM      9  O   UNL     1       4.544  -4.408  -0.406  0.00  0.00    -0.269 OA
ATOM     10  H   UNL     1       1.514  -5.002  -0.475  0.00  0.00    +0.173 HD
BRANCH   7  13
ATOM     11  C   UNL     1       1.043  -2.468  -0.598  0.00  0.00    +0.260 C 
ATOM     12  O   UNL     1       0.027  -3.135  -0.601  0.00  0.00    -0.269 OA
ATOM     13  N   UNL     1       2.246  -3.073  -0.535  0.00  0.00    -0.230 N 
ATOM     14  H   UNL     1       3.057  -2.541  -0.533  0.00  0.00    +0.173 HD
BRANCH  11  19
ATOM     15  C   UNL     1       0.718   3.272  -0.854  0.00  0.00    +0.044 C 
ATOM     16  C   UNL     1       0.803   1.769  -0.787  0.00  0.00    -0.050 A 
ATOM     17  C   UNL     1      -0.355   1.012  -0.791  0.00  0.00    +0.004 A 
ATOM     18  C   UNL     1      -0.285  -0.364  -0.730  0.00  0.00    +0.013 A 
ATOM     19  C   UNL     1       0.959  -0.993  -0.664  0.00  0.00    +0.038 A 
ATOM     20  C   UNL     1       2.124  -0.225  -0.660  0.00  0.00    +0.013 A 
ATOM     21  C   UNL     1       2.039   1.151  -0.722  0.00  0.00    +0.004 A 
ENDBRANCH  11  19
ENDBRANCH   7  13
ENDBRANCH   1   8
BRANCH   5  22
ATOM     22  S   UNL     1       6.495  -9.352  -0.134  0.00  0.00    +0.072 S 
ATOM     23  O   UNL     1       6.309 -10.669  -0.634  0.00  0.00    -0.150 OA
ATOM     24  O   UNL     1       7.439  -8.450  -0.694  0.00  0.00    -0.150 OA
BRANCH  22  25
ATOM     25  N   UNL     1       6.882  -9.506   1.469  0.00  0.00    -0.213 N 
ATOM     26  H   UNL     1       7.683  -9.083   1.818  0.00  0.00    +0.174 HD
BRANCH  25  27
ATOM     27  C   UNL     1       6.054 -10.246   2.321  0.00  0.00    +0.090 A 
ATOM     28  C   UNL     1       5.412 -11.383   1.853  0.00  0.00    +0.028 A 
ATOM     29  C   UNL     1       4.599 -12.114   2.697  0.00  0.00    +0.002 A 
ATOM     30  C   UNL     1       4.415 -11.710   4.007  0.00  0.00    +0.004 A 
ATOM     31  C   UNL     1       5.048 -10.575   4.479  0.00  0.00    +0.047 A 
ATOM     32  C   UNL     1       5.868  -9.839   3.641  0.00  0.00    +0.142 A 
BRANCH  32  33
ATOM     33  O   UNL     1       6.490  -8.722   4.104  0.00  0.00    -0.493 OA
ATOM     34  C   UNL     1       6.253  -8.365   5.467  0.00  0.00    +0.277 C 
ENDBRANCH  32  33
ENDBRANCH  25  27
ENDBRANCH  22  25
ENDBRANCH   5  22
TORSDOF 7
