REMARK  Name = ZINC20082627
REMARK  9 active torsions:
REMARK  status: ('A' for Active; 'I' for Inactive)
REMARK    1  A    between atoms: C_1  and  C_2
REMARK    2  A    between atoms: C_7  and  C_14
REMARK    3  A    between atoms: C_14  and  C_16
REMARK    4  A    between atoms: C_14  and  N_27
REMARK    5  A    between atoms: N_20  and  C_21
REMARK    6  A    between atoms: N_27  and  C_28
REMARK    7  A    between atoms: N_27  and  C_35
REMARK    8  A    between atoms: C_28  and  C_29
REMARK    9  A    between atoms: C_35  and  C_36
REMARK                            x       y       z     vdW  Elec       q    Type
REMARK                         _______ _______ _______ _____ _____    ______ ____
ROOT
ATOM      1  C   UNL     1       3.185  -2.032  -2.163  0.00  0.00    +0.163 C 
ENDROOT
BRANCH   1   8
ATOM      2  C   UNL     1      -3.803  -0.223  -5.557  0.00  0.00    +0.044 C 
ATOM      3  C   UNL     1      -2.424  -0.652  -5.125  0.00  0.00    -0.048 A 
ATOM      4  C   UNL     1      -1.583  -1.278  -6.034  0.00  0.00    +0.004 A 
ATOM      5  C   UNL     1      -0.330  -1.676  -5.662  0.00  0.00    +0.010 A 
ATOM      6  C   UNL     1       0.109  -1.450  -4.353  0.00  0.00    -0.001 A 
ATOM      7  C   UNL     1       1.448  -1.859  -3.922  0.00  0.00    +0.021 A 
ATOM      8  C   UNL     1       1.816  -1.619  -2.640  0.00  0.00    +0.042 A 
ATOM      9  C   UNL     1       0.925  -0.979  -1.752  0.00  0.00    +0.254 A 
ATOM     10  O   UNL     1       1.279  -0.769  -0.604  0.00  0.00    -0.268 OA
ATOM     11  N   UNL     1      -0.303  -0.596  -2.140  0.00  0.00    -0.322 N 
ATOM     12  H   UNL     1      -0.976  -0.098  -1.425  0.00  0.00    +0.169 HD
ATOM     13  C   UNL     1      -0.741  -0.816  -3.429  0.00  0.00    +0.049 A 
ATOM     14  C   UNL     1      -2.013  -0.420  -3.830  0.00  0.00    +0.029 A 
ENDBRANCH   1   8
BRANCH   1  15
ATOM     15  C   UNL     1       3.047  -3.074  -1.083  0.00  0.00    +0.173 A 
ATOM     16  N   UNL     1       2.917  -2.856   0.203  0.00  0.00    -0.111 NA
ATOM     17  N   UNL     1       2.828  -3.998   0.793  0.00  0.00    -0.023 NA
ATOM     18  N   UNL     1       2.899  -4.939  -0.083  0.00  0.00    -0.044 NA
ATOM     19  N   UNL     1       3.029  -4.409  -1.252  0.00  0.00    -0.224 N 
BRANCH  19  20
ATOM     20  C   UNL     1       3.140  -5.126  -2.525  0.00  0.00    +0.111 C 
ATOM     21  C   UNL     1       1.821  -5.843  -2.823  0.00  0.00    +0.027 C 
ATOM     22  C   UNL     1       1.937  -6.592  -4.152  0.00  0.00    +0.002 C 
ATOM     23  C   UNL     1       3.067  -7.620  -4.062  0.00  0.00    +0.000 C 
ATOM     24  C   UNL     1       4.385  -6.902  -3.764  0.00  0.00    +0.002 C 
ATOM     25  C   UNL     1       4.270  -6.154  -2.435  0.00  0.00    +0.027 C 
ENDBRANCH  19  20
ENDBRANCH   1  15
BRANCH   1  26
ATOM     26  N   UNL     1       3.890  -0.860  -1.625  0.00  0.00    -0.280 NA
BRANCH  26  27
ATOM     27  C   UNL     1       5.332  -1.119  -1.514  0.00  0.00    +0.121 C 
BRANCH  27  28
ATOM     28  C   UNL     1       5.587  -2.051  -0.358  0.00  0.00    -0.033 A 
ATOM     29  C   UNL     1       5.736  -3.407  -0.583  0.00  0.00    +0.005 A 
ATOM     30  C   UNL     1       5.970  -4.262   0.478  0.00  0.00    +0.000 A 
ATOM     31  C   UNL     1       6.056  -3.761   1.763  0.00  0.00    +0.000 A 
ATOM     32  C   UNL     1       5.908  -2.405   1.988  0.00  0.00    +0.000 A 
ATOM     33  C   UNL     1       5.674  -1.550   0.928  0.00  0.00    +0.005 A 
ENDBRANCH  27  28
ENDBRANCH  26  27
BRANCH  26  34
ATOM     34  C   UNL     1       3.631   0.332  -2.444  0.00  0.00    +0.122 C 
BRANCH  34  35
ATOM     35  C   UNL     1       4.160   1.552  -1.736  0.00  0.00    -0.015 A 
ATOM     36  C   UNL     1       3.349   2.267  -0.868  0.00  0.00    +0.008 A 
ATOM     37  C   UNL     1       3.880   3.381  -0.236  0.00  0.00    +0.020 A 
ATOM     38  C   UNL     1       5.188   3.744  -0.498  0.00  0.00    +0.111 A 
ATOM     39  N   UNL     1       5.928   3.043  -1.333  0.00  0.00    -0.263 NA
ATOM     40  C   UNL     1       5.458   1.976  -1.949  0.00  0.00    +0.115 A 
ENDBRANCH  34  35
ENDBRANCH  26  34
ENDBRANCH   1  26
TORSDOF 8
