REMARK  Name = ZINC00141897
REMARK  5 active torsions:
REMARK  status: ('A' for Active; 'I' for Inactive)
REMARK    1  A    between atoms: C_3  and  C_6
REMARK    2  A    between atoms: C_13  and  C_15
REMARK    3  A    between atoms: C_15  and  O_16
REMARK    4  A    between atoms: C_18  and  N_22
REMARK    5  A    between atoms: C_19  and  C_20
REMARK                            x       y       z     vdW  Elec       q    Type
REMARK                         _______ _______ _______ _____ _____    ______ ____
ROOT
ATOM      1  C   UNL     1       3.761   1.845  -0.024  0.00  0.00    +0.141 C 
ATOM      2  C   UNL     1       4.480   1.346   1.202  0.00  0.00    +0.164 A 
ATOM      3  C   UNL     1       5.355   0.322   1.116  0.00  0.00    +0.215 A 
ATOM      4  C   UNL     1       6.015  -0.125   2.295  0.00  0.00    +0.228 A 
ATOM      5  O   UNL     1       6.814  -1.048   2.255  0.00  0.00    -0.284 OA
ATOM      6  C   UNL     1       5.721   0.529   3.518  0.00  0.00    +0.098 A 
ATOM      7  C   UNL     1       4.834   1.544   3.515  0.00  0.00    +0.134 A 
ATOM      8  O   UNL     1       4.238   1.936   2.385  0.00  0.00    -0.457 OA
ATOM      9  O   UNL     1       5.618  -0.290  -0.065  0.00  0.00    -0.434 OA
ATOM     10  C   UNL     1       5.333   0.333  -1.221  0.00  0.00    +0.199 C 
ATOM     11  C   UNL     1       4.454   1.360  -1.266  0.00  0.00    +0.102 C 
ENDROOT
BRANCH   1  14
ATOM     12  C   UNL     1      -0.016   1.351   0.009  0.00  0.00    +0.008 A 
ATOM     13  C   UNL     1       1.183   2.038   0.002  0.00  0.00    +0.012 A 
ATOM     14  C   UNL     1       2.343   1.336  -0.013  0.00  0.00    +0.005 A 
ATOM     15  S   UNL     1       1.754  -0.349  -0.017  0.00  0.00    -0.101 S 
ATOM     16  C   UNL     1       0.002  -0.004   0.002  0.00  0.00    +0.045 A 
ENDBRANCH   1  14
BRANCH  10  17
ATOM     17  N   UNL     1       5.946  -0.082  -2.378  0.00  0.00    -0.328 N 
ATOM     18  H   UNL     1       6.578  -0.817  -2.355  0.00  0.00    +0.145 HD
ATOM     19  H   UNL     1       5.747   0.361  -3.217  0.00  0.00    +0.145 HD
ENDBRANCH  10  17
BRANCH  11  20
ATOM     20  C   UNL     1       4.181   1.993  -2.521  0.00  0.00    +0.101 C 
ATOM     21  N   UNL     1       3.963   2.496  -3.516  0.00  0.00    -0.191 NA
ENDBRANCH  11  20
BRANCH   7  22
ATOM     22  C   UNL     1       4.511   2.249   4.807  0.00  0.00    +0.230 C 
BRANCH  22  23
ATOM     23  O   UNL     1       5.263   1.663   5.871  0.00  0.00    -0.387 OA
ATOM     24  H   UNL     1       5.104   2.068   6.735  0.00  0.00    +0.210 HD
ENDBRANCH  22  23
ENDBRANCH   7  22
TORSDOF 5
