REMARK  Name = ZINC41000914
REMARK  12 active torsions:
REMARK  status: ('A' for Active; 'I' for Inactive)
REMARK    1  A    between atoms: C_1  and  C_2
REMARK    2  A    between atoms: C_5  and  C_8
REMARK    3  A    between atoms: C_10  and  C_13
REMARK    4  A    between atoms: C_14  and  C_34
REMARK    5  A    between atoms: C_15  and  C_33
REMARK    6  A    between atoms: C_17  and  N_18
REMARK    7  A    between atoms: C_19  and  C_21
REMARK    8  A    between atoms: C_21  and  C_23
REMARK    9  A    between atoms: C_21  and  O_24
REMARK   10  A    between atoms: O_24  and  C_25
REMARK   11  A    between atoms: C_28  and  C_32
REMARK   12  A    between atoms: C_29  and  C_31
REMARK                            x       y       z     vdW  Elec       q    Type
REMARK                         _______ _______ _______ _____ _____    ______ ____
ROOT
ATOM      1  C   UNL     1      -0.336  -7.879   1.798  0.00  0.00    +0.071 A 
ATOM      2  C   UNL     1      -0.218  -9.255   1.387  0.00  0.00    -0.026 A 
ATOM      3  C   UNL     1       0.021 -10.188   2.328  0.00  0.00    -0.008 A 
ATOM      4  S   UNL     1       0.099  -9.236   3.833  0.00  0.00    -0.078 S 
ATOM      5  C   UNL     1      -0.186  -7.612   3.154  0.00  0.00    +0.085 A 
ATOM      6  C   UNL     1       0.183 -11.675   2.151  0.00  0.00    +0.052 C 
ATOM      7  C   UNL     1      -0.360  -9.641  -0.063  0.00  0.00    +0.045 C 
ENDROOT
BRANCH   1  10
ATOM      8  C   UNL     1      -0.949  -4.833  -0.019  0.00  0.00    +0.202 A 
ATOM      9  N   UNL     1      -0.714  -5.525   1.106  0.00  0.00    -0.187 NA
ATOM     10  C   UNL     1      -0.596  -6.806   0.828  0.00  0.00    +0.261 A 
ATOM     11  O   UNL     1      -0.754  -6.963  -0.500  0.00  0.00    -0.332 OA
ATOM     12  N   UNL     1      -0.989  -5.668  -1.030  0.00  0.00    -0.056 NA
BRANCH   8  17
ATOM     13  C   UNL     1      -1.688   0.869  -0.353  0.00  0.00    +0.044 C 
ATOM     14  C   UNL     1      -1.494  -0.623  -0.266  0.00  0.00    -0.050 A 
ATOM     15  C   UNL     1      -1.559  -1.394  -1.412  0.00  0.00    +0.004 A 
ATOM     16  C   UNL     1      -1.383  -2.761  -1.338  0.00  0.00    +0.012 A 
ATOM     17  C   UNL     1      -1.139  -3.364  -0.105  0.00  0.00    +0.022 A 
ATOM     18  C   UNL     1      -1.074  -2.582   1.046  0.00  0.00    +0.012 A 
ATOM     19  C   UNL     1      -1.247  -1.215   0.959  0.00  0.00    +0.004 A 
ENDBRANCH   8  17
ENDBRANCH   1  10
BRANCH   5  20
ATOM     20  N   UNL     1      -0.245  -6.391   3.813  0.00  0.00    -0.276 N 
ATOM     21  C   UNL     1      -0.072  -6.337   5.149  0.00  0.00    +0.258 C 
ATOM     22  O   UNL     1       0.135  -7.355   5.775  0.00  0.00    -0.271 OA
ATOM     23  H   UNL     1      -0.411  -5.577   3.312  0.00  0.00    +0.155 HD
BRANCH  21  24
ATOM     24  C   UNL     1      -0.136  -5.012   5.864  0.00  0.00    +0.256 C 
ATOM     25  C   UNL     1       1.023  -4.127   5.402  0.00  0.00    +0.062 C 
BRANCH  24  26
ATOM     26  O   UNL     1      -0.040  -5.226   7.273  0.00  0.00    -0.480 OA
BRANCH  26  27
ATOM     27  C   UNL     1      -0.580  -4.275   8.080  0.00  0.00    +0.122 A 
ATOM     28  C   UNL     1      -1.094  -3.109   7.532  0.00  0.00    +0.046 A 
ATOM     29  C   UNL     1      -1.643  -2.144   8.354  0.00  0.00    +0.007 A 
ATOM     30  C   UNL     1      -1.681  -2.340   9.723  0.00  0.00    -0.047 A 
ATOM     31  C   UNL     1      -1.169  -3.501  10.271  0.00  0.00    -0.044 A 
ATOM     32  C   UNL     1      -0.624  -4.472   9.453  0.00  0.00    +0.049 A 
ATOM     33  C   UNL     1      -1.212  -3.711  11.763  0.00  0.00    +0.044 C 
ATOM     34  C   UNL     1      -2.280  -1.286  10.617  0.00  0.00    +0.044 C 
ENDBRANCH  26  27
ENDBRANCH  24  26
ENDBRANCH  21  24
ENDBRANCH   5  20
TORSDOF 6
