REMARK  Name = ZINC14744517
REMARK  11 active torsions:
REMARK  status: ('A' for Active; 'I' for Inactive)
REMARK    1  A    between atoms: C_1  and  C_2
REMARK    2  A    between atoms: C_2  and  C_4
REMARK    3  A    between atoms: C_2  and  C_14
REMARK    4  A    between atoms: C_4  and  C_5
REMARK    5  A    between atoms: C_14  and  N_71
REMARK    6  A    between atoms: N_22  and  C_36
REMARK    7  A    between atoms: N_25  and  C_26
REMARK    8  A    between atoms: C_26  and  C_27
REMARK    9  A    between atoms: C_27  and  C_28
REMARK   10  A    between atoms: C_31  and  O_34
REMARK   11  A    between atoms: O_34  and  C_35
REMARK                            x       y       z     vdW  Elec       q    Type
REMARK                         _______ _______ _______ _____ _____    ______ ____
ROOT
ATOM      1  C   UNL     1       0.428   0.748  -0.141  0.00  0.00    -0.076 C 
ATOM      2  C   UNL     1      -0.298   1.383  -1.330  0.00  0.00    +0.017 C 
ATOM      3  C   UNL     1      -1.800   1.158  -1.183  0.00  0.00    +0.112 C 
ATOM      4  C   UNL     1      -2.294   1.711   0.150  0.00  0.00    +0.017 C 
ATOM      5  C   UNL     1      -1.502   1.065   1.291  0.00  0.00    -0.076 C 
ATOM      6  C   UNL     1      -2.546   1.798  -2.330  0.00  0.00    +0.246 C 
ATOM      7  O   UNL     1      -2.571   2.974  -2.624  0.00  0.00    -0.273 OA
ATOM      8  N   UNL     1      -3.178   0.785  -2.958  0.00  0.00    -0.227 N 
ATOM      9  C   UNL     1      -2.933  -0.391  -2.367  0.00  0.00    +0.312 C 
ATOM     10  O   UNL     1      -3.391  -1.449  -2.750  0.00  0.00    -0.252 OA
ATOM     11  N   UNL     1      -2.120  -0.270  -1.299  0.00  0.00    -0.271 N 
ATOM     12  C   UNL     1      -4.028   0.951  -4.139  0.00  0.00    +0.143 C 
ATOM     13  N   UNL     1      -0.066   1.367   1.107  0.00  0.00    +0.380 N 
ATOM     14  H   UNL     1       0.055   2.384   1.045  0.00  0.00    -0.082 HD
ENDROOT
BRANCH  13  15
ATOM     15  C   UNL     1       0.707   0.862   2.261  0.00  0.00    -0.075 C 
BRANCH  15  17
ATOM     16  C   UNL     1       0.749   3.133   3.301  0.00  0.00    +0.006 C 
ATOM     17  C   UNL     1       0.329   1.675   3.500  0.00  0.00    -0.026 C 
BRANCH  17  18
ATOM     18  C   UNL     1       1.045   1.101   4.725  0.00  0.00    +0.036 C 
BRANCH  18  19
ATOM     19  C   UNL     1       0.579   1.823   5.963  0.00  0.00    -0.043 A 
ATOM     20  C   UNL     1      -0.513   1.350   6.667  0.00  0.00    +0.007 A 
ATOM     21  C   UNL     1      -0.943   2.009   7.804  0.00  0.00    +0.050 A 
ATOM     22  C   UNL     1      -0.281   3.145   8.240  0.00  0.00    +0.166 A 
ATOM     23  C   UNL     1       0.819   3.620   7.531  0.00  0.00    +0.166 A 
ATOM     24  C   UNL     1       1.249   2.952   6.396  0.00  0.00    +0.053 A 
ATOM     25  O   UNL     1       1.291   4.738   8.156  0.00  0.00    -0.453 OA
ATOM     26  C   UNL     1       0.724   4.707   9.479  0.00  0.00    +0.466 C 
ATOM     27  O   UNL     1      -0.498   3.964   9.310  0.00  0.00    -0.453 OA
ENDBRANCH  18  19
ENDBRANCH  17  18
ENDBRANCH  15  17
ENDBRANCH  13  15
BRANCH  11  28
ATOM     28  C   UNL     1      -1.650  -1.349  -0.427  0.00  0.00    +0.115 C 
BRANCH  28  29
ATOM     29  C   UNL     1      -0.726  -2.277  -1.218  0.00  0.00    +0.054 C 
BRANCH  29  30
ATOM     30  C   UNL     1      -0.211  -3.365  -0.312  0.00  0.00    -0.046 A 
ATOM     31  C   UNL     1       0.966  -3.180   0.390  0.00  0.00    +0.007 A 
ATOM     32  C   UNL     1       1.436  -4.174   1.226  0.00  0.00    +0.046 A 
ATOM     33  C   UNL     1       0.733  -5.363   1.352  0.00  0.00    +0.120 A 
ATOM     34  C   UNL     1      -0.444  -5.549   0.643  0.00  0.00    +0.046 A 
ATOM     35  C   UNL     1      -0.914  -4.550  -0.188  0.00  0.00    +0.007 A 
BRANCH  33  36
ATOM     36  O   UNL     1       1.197  -6.345   2.170  0.00  0.00    -0.495 OA
ATOM     37  C   UNL     1       2.416  -6.084   2.869  0.00  0.00    +0.277 C 
ENDBRANCH  33  36
ENDBRANCH  29  30
ENDBRANCH  28  29
ENDBRANCH  11  28
TORSDOF 8
