REMARK  Name = ZINC13499271
REMARK  13 active torsions:
REMARK  status: ('A' for Active; 'I' for Inactive)
REMARK    1  A    between atoms: C_1  and  C_2
REMARK    2  A    between atoms: C_2  and  C_3
REMARK    3  A    between atoms: C_3  and  C_4
REMARK    4  A    between atoms: C_4  and  C_6
REMARK    5  A    between atoms: C_4  and  N_71
REMARK    6  A    between atoms: N_10  and  C_11
REMARK    7  A    between atoms: C_11  and  C_12
REMARK    8  A    between atoms: C_11  and  C_13
REMARK    9  A    between atoms: C_11  and  C_14
REMARK   10  A    between atoms: C_15  and  C_16
REMARK   11  A    between atoms: C_15  and  N_71
REMARK   12  A    between atoms: C_21  and  C_28
REMARK   13  A    between atoms: C_29  and  N_71
REMARK                            x       y       z     vdW  Elec       q    Type
REMARK                         _______ _______ _______ _____ _____    ______ ____
ROOT
ATOM      1  N   UNL     1       3.501  -0.595  -0.557  0.00  0.00    +0.391 N 
ATOM      2  H   UNL     1       3.127  -1.512  -0.288  0.00  0.00    -0.080 HD
ENDROOT
BRANCH   1   3
ATOM      3  C   UNL     1       2.647  -0.021  -1.617  0.00  0.00    -0.067 C 
ATOM      4  C   UNL     1       1.495   0.757  -0.977  0.00  0.00    -0.015 C 
ATOM      5  C   UNL     1       0.594   1.329  -2.074  0.00  0.00    -0.002 C 
ATOM      6  C   UNL     1       0.029   0.185  -2.918  0.00  0.00    -0.000 C 
ATOM      7  C   UNL     1       1.181  -0.593  -3.558  0.00  0.00    -0.002 C 
ATOM      8  C   UNL     1       2.082  -1.165  -2.462  0.00  0.00    -0.015 C 
ENDBRANCH   1   3
BRANCH   1   9
ATOM      9  C   UNL     1       3.501   0.290   0.627  0.00  0.00    +0.003 C 
BRANCH   9  10
ATOM     10  C   UNL     1       3.871  -0.526   1.838  0.00  0.00    +0.139 A 
ATOM     11  N   UNL     1       4.843  -1.402   1.925  0.00  0.00    -0.115 NA
ATOM     12  N   UNL     1       4.837  -1.886   3.119  0.00  0.00    -0.023 NA
ATOM     13  N   UNL     1       3.887  -1.342   3.796  0.00  0.00    -0.043 NA
ATOM     14  N   UNL     1       3.269  -0.498   3.042  0.00  0.00    -0.226 N 
BRANCH  14  15
ATOM     15  C   UNL     1       2.125   0.335   3.422  0.00  0.00    +0.059 C 
ATOM     16  C   UNL     1       1.857   0.178   4.921  0.00  0.00    +0.036 C 
ATOM     17  C   UNL     1       2.435   1.800   3.111  0.00  0.00    +0.036 C 
ATOM     18  C   UNL     1       0.890  -0.104   2.634  0.00  0.00    +0.036 C 
ENDBRANCH  14  15
ENDBRANCH   9  10
BRANCH   9  19
ATOM     19  C   UNL     1       4.512   1.424   0.447  0.00  0.00    -0.008 C 
BRANCH  19  21
ATOM     20  C   UNL     1       4.985   3.550  -0.776  0.00  0.00    +0.004 C 
ATOM     21  C   UNL     1       4.060   2.334  -0.696  0.00  0.00    -0.005 C 
ENDBRANCH  19  21
ENDBRANCH   9  19
ENDBRANCH   1   9
BRANCH   1  22
ATOM     22  C   UNL     1       4.881  -0.768  -1.058  0.00  0.00    -0.036 C 
BRANCH  22  23
ATOM     23  C   UNL     1       4.895  -1.892  -2.062  0.00  0.00    +0.001 A 
ATOM     24  C   UNL     1       4.887  -1.613  -3.389  0.00  0.00    +0.017 A 
ATOM     25  C   UNL     1       4.907  -2.727  -4.338  0.00  0.00    -0.001 A 
ATOM     26  C   UNL     1       4.906  -2.502  -5.719  0.00  0.00    +0.010 A 
ATOM     27  C   UNL     1       4.918  -3.564  -6.578  0.00  0.00    +0.004 A 
ATOM     28  C   UNL     1       4.933  -4.865  -6.093  0.00  0.00    -0.048 A 
ATOM     29  C   UNL     1       4.935  -5.110  -4.737  0.00  0.00    +0.029 A 
ATOM     30  C   UNL     1       4.922  -4.045  -3.843  0.00  0.00    +0.049 A 
ATOM     31  N   UNL     1       4.923  -4.261  -2.482  0.00  0.00    -0.322 N 
ATOM     32  H   UNL     1       4.933  -5.170  -2.142  0.00  0.00    +0.169 HD
ATOM     33  C   UNL     1       4.910  -3.231  -1.618  0.00  0.00    +0.251 A 
ATOM     34  O   UNL     1       4.911  -3.460  -0.420  0.00  0.00    -0.268 OA
ATOM     35  C   UNL     1       4.946  -6.021  -7.061  0.00  0.00    +0.044 C 
ENDBRANCH  22  23
ENDBRANCH   1  22
TORSDOF 8
