REMARK  Name = ZINC41007212
REMARK  7 active torsions:
REMARK  status: ('A' for Active; 'I' for Inactive)
REMARK    1  A    between atoms: C_1  and  C_2
REMARK    2  A    between atoms: C_2  and  O_3
REMARK    3  A    between atoms: O_3  and  C_4
REMARK    4  A    between atoms: C_4  and  C_6
REMARK    5  A    between atoms: C_10  and  N_11
REMARK    6  A    between atoms: C_12  and  C_14
REMARK    7  A    between atoms: C_25  and  C_29
REMARK                            x       y       z     vdW  Elec       q    Type
REMARK                         _______ _______ _______ _____ _____    ______ ____
ROOT
ATOM      1  C   UNL     1       1.449  -2.344  -2.516  0.00  0.00    +0.091 A 
ATOM      2  C   UNL     1       2.875  -2.619  -2.515  0.00  0.00    -0.021 A 
ATOM      3  C   UNL     1       3.342  -3.118  -3.680  0.00  0.00    -0.004 A 
ATOM      4  S   UNL     1       1.922  -3.212  -4.731  0.00  0.00    -0.077 S 
ATOM      5  C   UNL     1       0.750  -2.624  -3.682  0.00  0.00    +0.087 A 
ATOM      6  C   UNL     1       4.756  -3.502  -3.992  0.00  0.00    +0.046 C 
ATOM      7  C   UNL     1       5.532  -3.600  -2.670  0.00  0.00    -0.009 C 
ATOM      8  C   UNL     1       5.244  -2.350  -1.833  0.00  0.00    +0.008 C 
ATOM      9  C   UNL     1       3.799  -2.381  -1.330  0.00  0.00    +0.037 C 
ATOM     10  C   UNL     1       7.031  -3.691  -2.961  0.00  0.00    +0.008 C 
ENDROOT
BRANCH   5  11
ATOM     11  N   UNL     1      -0.602  -2.455  -3.925  0.00  0.00    -0.273 N 
ATOM     12  C   UNL     1      -1.117  -2.783  -5.127  0.00  0.00    +0.284 C 
ATOM     13  O   UNL     1      -0.393  -3.227  -5.998  0.00  0.00    -0.266 OA
ATOM     14  H   UNL     1      -1.179  -2.101  -3.230  0.00  0.00    +0.156 HD
BRANCH  12  15
ATOM     15  C   UNL     1      -2.552  -2.603  -5.385  0.00  0.00    +0.191 A 
ATOM     16  C   UNL     1      -3.180  -2.903  -6.552  0.00  0.00    +0.063 A 
ATOM     17  C   UNL     1      -4.588  -2.565  -6.352  0.00  0.00    +0.022 A 
ATOM     18  C   UNL     1      -5.730  -2.637  -7.154  0.00  0.00    +0.027 A 
ATOM     19  C   UNL     1      -6.936  -2.230  -6.655  0.00  0.00    +0.019 A 
ATOM     20  C   UNL     1      -7.032  -1.746  -5.356  0.00  0.00    +0.019 A 
ATOM     21  C   UNL     1      -5.917  -1.667  -4.550  0.00  0.00    +0.048 A 
ATOM     22  C   UNL     1      -4.681  -2.076  -5.036  0.00  0.00    +0.136 A 
ATOM     23  O   UNL     1      -3.446  -2.122  -4.497  0.00  0.00    -0.450 OA
ATOM     24 BR   UNL     1      -8.482  -2.326  -7.738  0.00  0.00    -0.050 Br
ENDBRANCH  12  15
ENDBRANCH   5  11
BRANCH   1  25
ATOM     25  C   UNL     1       0.776  -1.800  -1.335  0.00  0.00    +0.342 C 
ATOM     26  O   UNL     1       0.312  -2.552  -0.499  0.00  0.00    -0.245 OA
BRANCH  25  27
ATOM     27  O   UNL     1       0.671  -0.465  -1.174  0.00  0.00    -0.461 OA
BRANCH  27  29
ATOM     28  C   UNL     1      -0.019   1.526   0.010  0.00  0.00    +0.048 C 
ATOM     29  C   UNL     1       0.002  -0.004   0.002  0.00  0.00    +0.229 C 
ENDBRANCH  27  29
ENDBRANCH  25  27
ENDBRANCH   1  25
TORSDOF 5
