REMARK  Name = ZINC03315509
REMARK  12 active torsions:
REMARK  status: ('A' for Active; 'I' for Inactive)
REMARK    1  A    between atoms: C_1  and  C_2
REMARK    2  A    between atoms: C_6  and  N_9
REMARK    3  A    between atoms: C_7  and  C_8
REMARK    4  A    between atoms: N_9  and  C_10
REMARK    5  A    between atoms: C_15  and  C_16
REMARK    6  A    between atoms: C_16  and  O_18
REMARK    7  A    between atoms: O_18  and  C_19
REMARK    8  A    between atoms: C_19  and  C_20
REMARK    9  A    between atoms: N_22  and  C_23
REMARK   10  A    between atoms: C_24  and  C_32
REMARK   11  A    between atoms: C_32  and  O_34
REMARK   12  A    between atoms: O_34  and  C_35
REMARK                            x       y       z     vdW  Elec       q    Type
REMARK                         _______ _______ _______ _____ _____    ______ ____
ROOT
ATOM      1  O   UNL     1       2.493   4.076  -0.354  0.00  0.00    -0.452 OA
ENDROOT
BRANCH   1   2
ATOM      2  C   UNL     1       2.646   5.413  -0.275  0.00  0.00    +0.341 C 
ATOM      3  O   UNL     1       1.673   6.139  -0.314  0.00  0.00    -0.245 OA
BRANCH   2   9
ATOM      4  C   UNL     1       4.162   7.386  -0.105  0.00  0.00    +0.045 A 
ATOM      5  C   UNL     1       5.439   7.921   0.021  0.00  0.00    +0.024 A 
ATOM      6  C   UNL     1       6.533   7.085   0.108  0.00  0.00    +0.002 A 
ATOM      7  C   UNL     1       6.369   5.708   0.072  0.00  0.00    +0.001 A 
ATOM      8  C   UNL     1       5.112   5.159  -0.046  0.00  0.00    +0.017 A 
ATOM      9  C   UNL     1       3.993   5.993  -0.142  0.00  0.00    +0.080 A 
BRANCH   4  10
ATOM     10  N   UNL     1       3.059   8.226  -0.194  0.00  0.00    -0.314 N 
ATOM     11  H   UNL     1       2.827   8.633  -1.042  0.00  0.00    +0.152 HD
BRANCH  10  17
ATOM     12  C   UNL     1      -0.907  10.299   1.839  0.00  0.00    +0.044 C 
ATOM     13  C   UNL     1       0.357   9.486   1.955  0.00  0.00    -0.046 A 
ATOM     14  C   UNL     1       0.751   8.994   3.186  0.00  0.00    +0.004 A 
ATOM     15  C   UNL     1       1.910   8.248   3.297  0.00  0.00    +0.002 A 
ATOM     16  C   UNL     1       2.678   7.991   2.178  0.00  0.00    +0.023 A 
ATOM     17  C   UNL     1       2.285   8.484   0.941  0.00  0.00    +0.035 A 
ATOM     18  C   UNL     1       1.123   9.238   0.834  0.00  0.00    -0.026 A 
ATOM     19  C   UNL     1       0.697   9.780  -0.506  0.00  0.00    +0.046 C 
ENDBRANCH  10  17
ENDBRANCH   4  10
ENDBRANCH   2   9
ENDBRANCH   1   2
BRANCH   1  20
ATOM     20  C   UNL     1       1.136   3.575  -0.484  0.00  0.00    +0.328 C 
BRANCH  20  21
ATOM     21  C   UNL     1       1.161   2.070  -0.558  0.00  0.00    +0.255 C 
ATOM     22  O   UNL     1       2.219   1.478  -0.506  0.00  0.00    -0.272 OA
ATOM     23  N   UNL     1       0.009   1.382  -0.682  0.00  0.00    -0.277 N 
ATOM     24  H   UNL     1      -0.836   1.855  -0.727  0.00  0.00    +0.155 HD
BRANCH  23  25
ATOM     25  C   UNL     1       0.033  -0.003  -0.750  0.00  0.00    +0.086 A 
ATOM     26  C   UNL     1      -1.038  -0.879  -0.871  0.00  0.00    +0.091 A 
ATOM     27  C   UNL     1      -0.739  -2.300  -0.925  0.00  0.00    -0.021 A 
ATOM     28  C   UNL     1       0.572  -2.616  -0.839  0.00  0.00    -0.004 A 
ATOM     29  S   UNL     1       1.404  -1.060  -0.696  0.00  0.00    -0.077 S 
ATOM     30  C   UNL     1       1.174  -3.987  -0.861  0.00  0.00    +0.043 C 
ATOM     31  C   UNL     1       0.054  -5.011  -0.619  0.00  0.00    +0.005 C 
ATOM     32  C   UNL     1      -1.127  -4.675  -1.534  0.00  0.00    +0.005 C 
ATOM     33  C   UNL     1      -1.800  -3.385  -1.063  0.00  0.00    +0.037 C 
BRANCH  26  34
ATOM     34  C   UNL     1      -2.416  -0.389  -0.945  0.00  0.00    +0.342 C 
ATOM     35  O   UNL     1      -2.913  -0.133  -2.025  0.00  0.00    -0.245 OA
BRANCH  34  36
ATOM     36  O   UNL     1      -3.134  -0.222   0.184  0.00  0.00    -0.464 OA
ATOM     37  C   UNL     1      -4.493   0.267   0.035  0.00  0.00    +0.280 C 
ENDBRANCH  34  36
ENDBRANCH  26  34
ENDBRANCH  23  25
ENDBRANCH  20  21
ENDBRANCH   1  20
TORSDOF 9
