REMARK  Name = ZINC58337597
REMARK  15 active torsions:
REMARK  status: ('A' for Active; 'I' for Inactive)
REMARK    1  A    between atoms: C_1  and  C_2
REMARK    2  A    between atoms: C_2  and  C_3
REMARK    3  A    between atoms: C_3  and  N_4
REMARK    4  A    between atoms: N_4  and  C_5
REMARK    5  A    between atoms: N_4  and  C_8
REMARK    6  A    between atoms: C_5  and  C_6
REMARK    7  A    between atoms: C_6  and  C_7
REMARK    8  A    between atoms: C_8  and  C_9
REMARK    9  A    between atoms: N_11  and  C_12
REMARK   10  A    between atoms: C_14  and  S_22
REMARK   11  A    between atoms: C_17  and  O_18
REMARK   12  A    between atoms: O_18  and  C_19
REMARK   13  A    between atoms: C_19  and  C_20
REMARK   14  A    between atoms: C_19  and  C_21
REMARK   15  A    between atoms: S_22  and  N_25
REMARK                            x       y       z     vdW  Elec       q    Type
REMARK                         _______ _______ _______ _____ _____    ______ ____
ROOT
ATOM      1  C   UNL     1       5.356  -1.329  -2.665  0.00  0.00    +0.077 A 
ATOM      2  C   UNL     1       5.638  -0.606  -1.515  0.00  0.00    +0.055 A 
ATOM      3  C   UNL     1       6.903  -0.086  -1.318  0.00  0.00    +0.107 A 
ATOM      4  C   UNL     1       7.891  -0.285  -2.265  0.00  0.00    +0.032 A 
ATOM      5  C   UNL     1       7.617  -1.005  -3.414  0.00  0.00    +0.049 A 
ATOM      6  C   UNL     1       6.353  -1.534  -3.616  0.00  0.00    +0.142 A 
ENDROOT
BRANCH   1   9
ATOM      7  C   UNL     1       2.993  -1.195  -2.406  0.00  0.00    +0.201 C 
ATOM      8  O   UNL     1       3.122  -0.103  -1.895  0.00  0.00    -0.278 OA
ATOM      9  N   UNL     1       4.074  -1.857  -2.866  0.00  0.00    -0.284 N 
ATOM     10  H   UNL     1       3.964  -2.698  -3.336  0.00  0.00    +0.155 HD
BRANCH   7  11
ATOM     11  C   UNL     1       1.624  -1.813  -2.528  0.00  0.00    +0.019 C 
BRANCH  11  12
ATOM     12  N   UNL     1       0.623  -0.901  -1.958  0.00  0.00    +0.385 N 
ATOM     13  H   UNL     1       0.878  -0.672  -1.009  0.00  0.00    -0.081 HD
BRANCH  12  14
ATOM     14  C   UNL     1       0.567   0.328  -2.760  0.00  0.00    -0.078 C 
BRANCH  14  16
ATOM     15  C   UNL     1      -0.325   2.660  -2.849  0.00  0.00    +0.002 C 
ATOM     16  C   UNL     1      -0.367   1.335  -2.086  0.00  0.00    -0.022 C 
ENDBRANCH  14  16
ENDBRANCH  12  14
BRANCH  12  17
ATOM     17  C   UNL     1      -0.694  -1.552  -1.967  0.00  0.00    -0.078 C 
BRANCH  17  18
ATOM     18  C   UNL     1      -0.675  -2.754  -1.020  0.00  0.00    -0.022 C 
ATOM     19  C   UNL     1      -2.080  -3.354  -0.930  0.00  0.00    +0.002 C 
ENDBRANCH  17  18
ENDBRANCH  12  17
ENDBRANCH  11  12
ENDBRANCH   7  11
ENDBRANCH   1   9
BRANCH   3  20
ATOM     20  S   UNL     1       7.259   0.832   0.143  0.00  0.00    +0.061 S 
ATOM     21  O   UNL     1       8.361   1.674  -0.165  0.00  0.00    -0.153 OA
ATOM     22  O   UNL     1       6.019   1.341   0.615  0.00  0.00    -0.153 OA
BRANCH  20  23
ATOM     23  N   UNL     1       7.791  -0.247   1.282  0.00  0.00    -0.177 NA
ATOM     24  C   UNL     1       6.843  -0.908   2.188  0.00  0.00    +0.109 C 
ATOM     25  C   UNL     1       7.049  -2.423   2.099  0.00  0.00    +0.017 C 
ATOM     26  C   UNL     1       8.518  -2.751   2.378  0.00  0.00    +0.003 C 
ATOM     27  C   UNL     1       9.401  -2.080   1.324  0.00  0.00    +0.017 C 
ATOM     28  C   UNL     1       9.221  -0.565   1.400  0.00  0.00    +0.109 C 
ENDBRANCH  20  23
ENDBRANCH   3  20
BRANCH   6  29
ATOM     29  O   UNL     1       6.084  -2.246  -4.742  0.00  0.00    -0.488 OA
BRANCH  29  30
ATOM     30  C   UNL     1       7.181  -2.514  -5.618  0.00  0.00    +0.167 C 
ATOM     31  C   UNL     1       6.885  -3.771  -6.438  0.00  0.00    +0.051 C 
ATOM     32  C   UNL     1       7.382  -1.326  -6.561  0.00  0.00    +0.051 C 
ENDBRANCH  29  30
ENDBRANCH   6  29
TORSDOF 11
