REMARK  Name = ZINC13255786
REMARK  8 active torsions:
REMARK  status: ('A' for Active; 'I' for Inactive)
REMARK    1  A    between atoms: C_1  and  C_2
REMARK    2  A    between atoms: C_8  and  C_15
REMARK    3  A    between atoms: C_12  and  C_13
REMARK    4  A    between atoms: C_15  and  S_16
REMARK    5  A    between atoms: S_16  and  C_17
REMARK    6  A    between atoms: C_20  and  C_31
REMARK    7  A    between atoms: N_21  and  C_22
REMARK    8  A    between atoms: C_28  and  C_30
REMARK                            x       y       z     vdW  Elec       q    Type
REMARK                         _______ _______ _______ _____ _____    ______ ____
ROOT
ATOM      1  C   UNL     1      -0.659   2.836   1.792  0.00  0.00    +0.193 A 
ATOM      2  N   UNL     1      -1.713   2.844   2.579  0.00  0.00    -0.122 NA
ATOM      3  N   UNL     1      -2.108   1.641   2.798  0.00  0.00    -0.128 NA
ATOM      4  C   UNL     1      -1.336   0.792   2.162  0.00  0.00    +0.167 A 
ATOM      5  N   UNL     1      -0.386   1.531   1.495  0.00  0.00    -0.299 N 
ENDROOT
BRANCH   5   6
ATOM      6  C   UNL     1       0.696   1.025   0.647  0.00  0.00    +0.094 C 
ATOM      7  C   UNL     1       0.547   1.595  -0.765  0.00  0.00    +0.025 C 
ATOM      8  C   UNL     1       0.616   3.122  -0.708  0.00  0.00    +0.002 C 
ATOM      9  C   UNL     1       1.964   3.550  -0.125  0.00  0.00    +0.000 C 
ATOM     10  C   UNL     1       2.113   2.980   1.287  0.00  0.00    +0.005 C 
ATOM     11  C   UNL     1       2.044   1.453   1.230  0.00  0.00    +0.009 C 
ATOM     12  C   UNL     1       2.192   0.882   2.642  0.00  0.00    +0.009 C 
ENDBRANCH   5   6
BRANCH   4  13
ATOM     13  C   UNL     1      -1.462  -0.681   2.161  0.00  0.00    +0.037 A 
ATOM     14  C   UNL     1      -1.953  -1.354   3.286  0.00  0.00    +0.014 A 
ATOM     15  C   UNL     1      -2.052  -2.733   3.234  0.00  0.00    +0.020 A 
ATOM     16  C   UNL     1      -1.666  -3.397   2.083  0.00  0.00    +0.111 A 
ATOM     17  N   UNL     1      -1.207  -2.736   1.038  0.00  0.00    -0.263 NA
ATOM     18  C   UNL     1      -1.100  -1.424   1.036  0.00  0.00    +0.122 A 
ENDBRANCH   4  13
BRANCH   1  19
ATOM     19  S   UNL     1       0.232   4.246   1.225  0.00  0.00    -0.078 S 
BRANCH  19  20
ATOM     20  C   UNL     1      -0.716   5.561   2.030  0.00  0.00    +0.151 C 
BRANCH  20  28
ATOM     21  C   UNL     1       1.246  11.835   1.002  0.00  0.00    +0.046 C 
ATOM     22  C   UNL     1       1.691  10.462   0.572  0.00  0.00    -0.015 A 
ATOM     23  C   UNL     1       0.999   9.332   1.011  0.00  0.00    +0.076 A 
ATOM     24  C   UNL     1      -0.187   9.245   1.894  0.00  0.00    +0.260 A 
ATOM     25  O   UNL     1      -0.701  10.251   2.350  0.00  0.00    -0.267 OA
ATOM     26  N   UNL     1      -0.685   8.025   2.175  0.00  0.00    -0.310 N 
ATOM     27  H   UNL     1      -1.464   7.951   2.749  0.00  0.00    +0.170 HD
ATOM     28  C   UNL     1      -0.118   6.899   1.677  0.00  0.00    +0.121 A 
ATOM     29  N   UNL     1       0.927   6.940   0.895  0.00  0.00    -0.226 NA
ATOM     30  C   UNL     1       1.494   8.089   0.552  0.00  0.00    +0.116 A 
ATOM     31  S   UNL     1       2.881   8.550  -0.456  0.00  0.00    -0.062 S 
ATOM     32  C   UNL     1       2.773  10.319  -0.249  0.00  0.00    +0.106 A 
BRANCH  32  33
ATOM     33  C   UNL     1       3.631  11.360  -0.819  0.00  0.00    +0.393 C 
ATOM     34  O   UNL     1       3.413  12.531  -0.572  0.00  0.00    -0.240 OA
ATOM     35  O   UNL     1       4.664  11.020  -1.618  0.00  0.00    -0.240 OA
ENDBRANCH  32  33
ENDBRANCH  20  28
ENDBRANCH  19  20
ENDBRANCH   1  19
TORSDOF 6
