REMARK  Name = ZINC33070706
REMARK  4 active torsions:
REMARK  status: ('A' for Active; 'I' for Inactive)
REMARK    1  A    between atoms: C_1  and  C_2
REMARK    2  A    between atoms: C_15  and  C_18
REMARK    3  A    between atoms: N_23  and  C_26
REMARK    4  A    between atoms: C_31  and  C_32
REMARK                            x       y       z     vdW  Elec       q    Type
REMARK                         _______ _______ _______ _____ _____    ______ ____
ROOT
ATOM      1  C   UNL     1       1.715   3.619   0.678  0.00  0.00    +0.044 C 
ATOM      2  C   UNL     1       1.681   2.115   0.593  0.00  0.00    -0.048 A 
ATOM      3  C   UNL     1       0.462   1.453   0.578  0.00  0.00    +0.005 A 
ATOM      4  C   UNL     1       0.414   0.079   0.501  0.00  0.00    +0.028 A 
ATOM      5  C   UNL     1       1.602  -0.654   0.437  0.00  0.00    +0.065 A 
ATOM      6  C   UNL     1       2.833   0.021   0.452  0.00  0.00    +0.066 A 
ATOM      7  C   UNL     1       2.863   1.405   0.530  0.00  0.00    +0.031 A 
ATOM      8  N   UNL     1       3.810  -0.958   0.378  0.00  0.00    -0.327 N 
ATOM      9  H   UNL     1       4.873  -0.675   0.374  0.00  0.00    +0.169 HD
ATOM     10  C   UNL     1       3.172  -2.164   0.321  0.00  0.00    +0.174 A 
ATOM     11  N   UNL     1       1.875  -1.983   0.356  0.00  0.00    -0.327 N 
ATOM     12  N   UNL     1       3.799  -3.389   0.239  0.00  0.00    -0.303 N 
ATOM     13  C   UNL     1       4.703  -3.441  -0.917  0.00  0.00    +0.108 C 
ATOM     14  C   UNL     1       5.488  -4.755  -0.894  0.00  0.00    +0.032 C 
ATOM     15  C   UNL     1       4.507  -5.930  -0.936  0.00  0.00    +0.078 C 
ATOM     16  C   UNL     1       3.546  -5.825   0.252  0.00  0.00    +0.032 C 
ATOM     17  C   UNL     1       2.818  -4.481   0.195  0.00  0.00    +0.108 C 
ATOM     18  H   UNL     1       1.053  -2.713   0.330  0.00  0.00    +0.169 HD
ENDROOT
BRANCH  15  19
ATOM     19  C   UNL     1       5.270  -7.227  -0.854  0.00  0.00    +0.219 C 
ATOM     20  O   UNL     1       5.570  -7.687   0.228  0.00  0.00    -0.275 OA
ATOM     21  N   UNL     1       5.618  -7.877  -1.982  0.00  0.00    -0.298 N 
ATOM     22  C   UNL     1       5.359  -7.286  -3.304  0.00  0.00    +0.126 C 
ATOM     23  C   UNL     1       6.666  -7.322  -4.112  0.00  0.00    +0.124 C 
ATOM     24  N   UNL     1       7.182  -8.696  -4.138  0.00  0.00    -0.327 N 
ATOM     25  C   UNL     1       7.527  -9.161  -2.787  0.00  0.00    +0.124 C 
ATOM     26  C   UNL     1       6.261  -9.198  -1.925  0.00  0.00    +0.126 C 
BRANCH  24  27
ATOM     27  C   UNL     1       8.277  -8.804  -4.999  0.00  0.00    +0.034 A 
ATOM     28  C   UNL     1       9.416  -8.042  -4.775  0.00  0.00    +0.043 A 
ATOM     29  C   UNL     1      10.499  -8.154  -5.627  0.00  0.00    +0.043 A 
ATOM     30  C   UNL     1      10.444  -9.017  -6.707  0.00  0.00    +0.020 A 
ATOM     31  C   UNL     1       9.309  -9.773  -6.935  0.00  0.00    +0.006 A 
ATOM     32  C   UNL     1       8.226  -9.669  -6.084  0.00  0.00    -0.029 A 
ATOM     33  C   UNL     1       6.989 -10.494  -6.334  0.00  0.00    +0.045 C 
ATOM     34 CL   UNL     1      11.926  -7.206  -5.345  0.00  0.00    -0.083 Cl
ENDBRANCH  24  27
ENDBRANCH  15  19
TORSDOF 2
