REMARK  Name = ZINC09057798
REMARK  9 active torsions:
REMARK  status: ('A' for Active; 'I' for Inactive)
REMARK    1  A    between atoms: C_1  and  C_2
REMARK    2  A    between atoms: C_2  and  N_3
REMARK    3  A    between atoms: N_3  and  C_4
REMARK    4  A    between atoms: N_3  and  C_6
REMARK    5  A    between atoms: C_4  and  C_5
REMARK    6  A    between atoms: C_9  and  C_12
REMARK    7  A    between atoms: C_24  and  C_25
REMARK    8  A    between atoms: C_24  and  C_31
REMARK    9  A    between atoms: C_24  and  N_71
REMARK                            x       y       z     vdW  Elec       q    Type
REMARK                         _______ _______ _______ _____ _____    ______ ____
ROOT
ATOM      1  C   UNL     1      -8.563   7.728  -1.233  0.00  0.00    +0.028 C 
ATOM      2  C   UNL     1      -7.857   6.569  -1.247  0.00  0.00    +0.079 C 
ATOM      3  C   UNL     1      -8.308   5.186  -1.525  0.00  0.00    +0.276 C 
ATOM      4  O   UNL     1      -9.470   4.930  -1.796  0.00  0.00    -0.267 OA
ATOM      5  N   UNL     1      -7.386   4.249  -1.471  0.00  0.00    -0.154 NA
ATOM      6  C   UNL     1      -6.123   4.513  -1.174  0.00  0.00    +0.154 C 
ATOM      7  S   UNL     1      -6.119   6.282  -0.934  0.00  0.00    -0.052 S 
ATOM      8  N   UNL     1      -5.072   3.639  -1.079  0.00  0.00    -0.315 N 
ATOM      9  C   UNL     1      -5.263   2.200  -1.312  0.00  0.00    +0.088 C 
ATOM     10  C   UNL     1      -4.664   1.431  -0.129  0.00  0.00    -0.058 C 
ATOM     11  C   UNL     1      -3.184   3.272   0.419  0.00  0.00    -0.058 C 
ATOM     12  C   UNL     1      -3.723   4.116  -0.741  0.00  0.00    +0.088 C 
ATOM     13  N   UNL     1      -3.254   1.844   0.040  0.00  0.00    +0.389 N 
ATOM     14  H   UNL     1      -2.759   1.712  -0.850  0.00  0.00    -0.080 HD
ENDROOT
BRANCH   1  18
ATOM     15  C   UNL     1     -12.567   7.783  -2.613  0.00  0.00    +0.030 A 
ATOM     16  C   UNL     1     -12.191   8.591  -1.543  0.00  0.00    +0.024 A 
ATOM     17  C   UNL     1     -10.896   8.576  -1.093  0.00  0.00    +0.010 A 
ATOM     18  C   UNL     1      -9.951   7.747  -1.711  0.00  0.00    -0.024 A 
ATOM     19  C   UNL     1     -10.333   6.941  -2.791  0.00  0.00    +0.010 A 
ATOM     20  C   UNL     1     -11.631   6.958  -3.231  0.00  0.00    +0.024 A 
BRANCH  15  21
ATOM     21  N   UNL     1     -13.882   7.802  -3.067  0.00  0.00    -0.330 N 
BRANCH  21  23
ATOM     22  C   UNL     1     -14.752   5.596  -3.667  0.00  0.00    +0.024 C 
ATOM     23  C   UNL     1     -14.281   6.954  -4.193  0.00  0.00    +0.102 C 
ENDBRANCH  21  23
BRANCH  21  24
ATOM     24  C   UNL     1     -14.868   8.670  -2.419  0.00  0.00    +0.102 C 
ATOM     25  C   UNL     1     -14.880  10.035  -3.111  0.00  0.00    +0.024 C 
ENDBRANCH  21  24
ENDBRANCH  15  21
ENDBRANCH   1  18
BRANCH  13  26
ATOM     26  C   UNL     1      -2.606   1.015   1.077  0.00  0.00    -0.007 C 
BRANCH  26  27
ATOM     27  C   UNL     1      -2.659  -0.429   0.650  0.00  0.00    -0.057 A 
ATOM     28  C   UNL     1      -2.883  -1.420   1.588  0.00  0.00    +0.002 A 
ATOM     29  C   UNL     1      -2.937  -2.744   1.195  0.00  0.00    +0.000 A 
ATOM     30  C   UNL     1      -2.761  -3.078  -0.135  0.00  0.00    +0.000 A 
ATOM     31  C   UNL     1      -2.532  -2.088  -1.072  0.00  0.00    +0.000 A 
ATOM     32  C   UNL     1      -2.478  -0.764  -0.679  0.00  0.00    +0.002 A 
ENDBRANCH  26  27
BRANCH  26  33
ATOM     33  C   UNL     1      -1.169   1.445   1.219  0.00  0.00    -0.057 A 
ATOM     34  C   UNL     1      -0.422   1.741   0.094  0.00  0.00    +0.002 A 
ATOM     35  C   UNL     1       0.895   2.140   0.225  0.00  0.00    +0.000 A 
ATOM     36  C   UNL     1       1.468   2.233   1.479  0.00  0.00    +0.000 A 
ATOM     37  C   UNL     1       0.723   1.932   2.603  0.00  0.00    +0.000 A 
ATOM     38  C   UNL     1      -0.596   1.538   2.473  0.00  0.00    +0.002 A 
ENDBRANCH  26  33
ENDBRANCH  13  26
TORSDOF 7
