REMARK  Name = ZINC15783637
REMARK  6 active torsions:
REMARK  status: ('A' for Active; 'I' for Inactive)
REMARK    1  A    between atoms: C_4  and  C_7
REMARK    2  A    between atoms: C_7  and  C_9
REMARK    3  A    between atoms: C_7  and  S_26
REMARK    4  A    between atoms: C_9  and  C_11
REMARK    5  A    between atoms: C_9  and  N_62
REMARK    6  A    between atoms: S_26  and  C_29
REMARK                            x       y       z     vdW  Elec       q    Type
REMARK                         _______ _______ _______ _____ _____    ______ ____
ROOT
ATOM      1  C   UNL     1       0.116   1.065   0.011  0.00  0.00    -0.008 C 
ENDROOT
BRANCH   1   2
ATOM      2  C   UNL     1       1.431   1.786  -0.137  0.00  0.00    -0.051 A 
ATOM      3  C   UNL     1       1.454   3.126  -0.375  0.00  0.00    +0.003 A 
ATOM      4  C   UNL     1       2.660   3.810  -0.510  0.00  0.00    +0.001 A 
ATOM      5  C   UNL     1       3.851   3.157  -0.416  0.00  0.00    +0.008 A 
ATOM      6  C   UNL     1       3.867   1.773  -0.175  0.00  0.00    -0.018 A 
ATOM      7  C   UNL     1       2.640   1.077  -0.034  0.00  0.00    -0.016 A 
ATOM      8  C   UNL     1       2.656  -0.307   0.207  0.00  0.00    +0.009 A 
ATOM      9  C   UNL     1       3.847  -0.960   0.301  0.00  0.00    +0.001 A 
ATOM     10  C   UNL     1       5.053  -0.276   0.162  0.00  0.00    +0.001 A 
ATOM     11  C   UNL     1       5.076   1.064  -0.072  0.00  0.00    +0.008 A 
ENDBRANCH   1   2
BRANCH   1  17
ATOM     12  C   UNL     1      -0.276   2.399   1.992  0.00  0.00    -0.078 C 
ATOM     13  C   UNL     1      -0.826   2.357   3.420  0.00  0.00    -0.019 C 
ATOM     14  C   UNL     1       0.046   1.429   4.270  0.00  0.00    -0.004 C 
ATOM     15  C   UNL     1       0.069   0.037   3.633  0.00  0.00    -0.019 C 
ATOM     16  C   UNL     1       0.593   0.147   2.199  0.00  0.00    -0.078 C 
ATOM     17  N   UNL     1      -0.303   1.034   1.427  0.00  0.00    +0.386 N 
ATOM     18  H   UNL     1      -1.262   0.669   1.483  0.00  0.00    -0.081 HD
ENDBRANCH   1  17
BRANCH   1  19
ATOM     19  C   UNL     1      -0.957   1.790  -0.804  0.00  0.00    +0.157 C 
BRANCH  19  23
ATOM     20  C   UNL     1      -0.040   1.478  -4.964  0.00  0.00    +0.000 A 
ATOM     21  C   UNL     1      -0.190   2.722  -4.381  0.00  0.00    +0.000 A 
ATOM     22  C   UNL     1      -0.487   2.823  -3.035  0.00  0.00    +0.005 A 
ATOM     23  C   UNL     1      -0.634   1.680  -2.272  0.00  0.00    -0.024 A 
ATOM     24  C   UNL     1      -0.478   0.436  -2.854  0.00  0.00    +0.005 A 
ATOM     25  C   UNL     1      -0.186   0.335  -4.201  0.00  0.00    +0.000 A 
ENDBRANCH  19  23
BRANCH  19  26
ATOM     26  S   UNL     1      -2.575   1.034  -0.483  0.00  0.00    +0.003 S 
ATOM     27  O   UNL     1      -2.575  -0.320  -0.912  0.00  0.00    -0.169 OA
ATOM     28  O   UNL     1      -3.028   1.382   0.818  0.00  0.00    -0.169 OA
BRANCH  26  29
ATOM     29  C   UNL     1      -3.683   1.854  -1.580  0.00  0.00    +0.089 A 
ATOM     30  C   UNL     1      -4.342   2.998  -1.169  0.00  0.00    +0.027 A 
ATOM     31  C   UNL     1      -5.209   3.644  -2.031  0.00  0.00    +0.002 A 
ATOM     32  C   UNL     1      -5.424   3.140  -3.300  0.00  0.00    +0.000 A 
ATOM     33  C   UNL     1      -4.770   1.993  -3.709  0.00  0.00    +0.002 A 
ATOM     34  C   UNL     1      -3.899   1.350  -2.849  0.00  0.00    +0.027 A 
ENDBRANCH  26  29
ENDBRANCH  19  26
ENDBRANCH   1  19
TORSDOF 6
