REMARK  Name = ZINC31794262
REMARK  5 active torsions:
REMARK  status: ('A' for Active; 'I' for Inactive)
REMARK    1  A    between atoms: C_1  and  C_2
REMARK    2  A    between atoms: C_5  and  S_8
REMARK    3  A    between atoms: S_8  and  C_9
REMARK    4  A    between atoms: C_9  and  C_10
REMARK    5  A    between atoms: C_15  and  C_18
REMARK                            x       y       z     vdW  Elec       q    Type
REMARK                         _______ _______ _______ _____ _____    ______ ____
ROOT
ATOM      1  C   UNL     1      -6.453   2.768  -1.976  0.00  0.00    +0.226 C 
ATOM      2  O   UNL     1      -6.722   3.158  -3.093  0.00  0.00    -0.275 OA
ATOM      3  N   UNL     1      -7.427   2.643  -1.053  0.00  0.00    -0.301 N 
ATOM      4  C   UNL     1      -7.116   2.178   0.305  0.00  0.00    +0.108 C 
ATOM      5  C   UNL     1      -8.021   0.988   0.638  0.00  0.00    +0.034 C 
ATOM      6  C   UNL     1      -9.483   1.390   0.431  0.00  0.00    +0.105 C 
ATOM      7  C   UNL     1      -9.707   1.772  -1.034  0.00  0.00    +0.034 C 
ATOM      8  C   UNL     1      -8.820   2.976  -1.384  0.00  0.00    +0.108 C 
ENDROOT
BRANCH   6   9
ATOM      9  C   UNL     1     -10.379   0.232   0.790  0.00  0.00    +0.359 C 
ATOM     10  O   UNL     1     -11.420   0.431   1.392  0.00  0.00    -0.246 OA
ATOM     11  O   UNL     1     -10.061  -0.903   0.479  0.00  0.00    -0.246 OA
ENDBRANCH   6   9
BRANCH   1  12
ATOM     12  C   UNL     1      -5.030   2.422  -1.621  0.00  0.00    +0.173 C 
BRANCH  12  13
ATOM     13  S   UNL     1      -3.964   2.692  -3.064  0.00  0.00    -0.077 S 
BRANCH  13  18
ATOM     14  C   UNL     1      -0.013   1.086   0.008  0.00  0.00    +0.090 C 
ATOM     15  C   UNL     1      -0.742   1.585  -1.213  0.00  0.00    +0.149 A 
ATOM     16  N   UNL     1      -2.051   1.825  -1.287  0.00  0.00    -0.206 NA
ATOM     17  H   UNL     1      -1.127   2.558  -4.147  0.00  0.00    +0.191 HD
ATOM     18  C   UNL     1      -2.356   2.250  -2.495  0.00  0.00    +0.185 A 
ATOM     19  N   UNL     1      -1.218   2.286  -3.221  0.00  0.00    -0.254 N 
ATOM     20  N   UNL     1      -0.191   1.857  -2.365  0.00  0.00    -0.157 NA
ENDBRANCH  13  18
ENDBRANCH  12  13
ENDBRANCH   1  12
TORSDOF 4
