REMARK  Name = ZINC51053919
REMARK  10 active torsions:
REMARK  status: ('A' for Active; 'I' for Inactive)
REMARK    1  A    between atoms: C_1  and  C_2
REMARK    2  A    between atoms: C_2  and  C_3
REMARK    3  A    between atoms: C_3  and  C_4
REMARK    4  A    between atoms: C_4  and  C_5
REMARK    5  A    between atoms: C_4  and  N_6
REMARK    6  A    between atoms: C_7  and  C_9
REMARK    7  A    between atoms: N_13  and  C_15
REMARK    8  A    between atoms: C_15  and  C_16
REMARK    9  A    between atoms: C_15  and  C_17
REMARK   10  A    between atoms: N_22  and  C_23
REMARK                            x       y       z     vdW  Elec       q    Type
REMARK                         _______ _______ _______ _____ _____    ______ ____
ROOT
ATOM      1  C   UNL     1       1.883  -3.976  -2.153  0.00  0.00    +0.058 C 
ATOM      2  C   UNL     1       3.367  -3.624  -2.282  0.00  0.00    +0.009 C 
ATOM      3  C   UNL     1       3.921  -4.247  -3.567  0.00  0.00    -0.018 C 
ATOM      4  C   UNL     1       3.683  -5.759  -3.537  0.00  0.00    -0.078 C 
ATOM      5  N   UNL     1       2.244  -6.030  -3.440  0.00  0.00    +0.388 N 
ATOM      6  C   UNL     1       1.721  -5.498  -2.176  0.00  0.00    -0.065 C 
ATOM      7  H   UNL     1       1.767  -5.590  -4.212  0.00  0.00    -0.081 HD
ENDROOT
BRANCH   1   9
ATOM      8  N   UNL     1       1.385  -2.107  -0.611  0.00  0.00    -0.313 N 
ATOM      9  C   UNL     1       1.347  -3.433  -0.854  0.00  0.00    +0.215 C 
ATOM     10  O   UNL     1       0.882  -4.188  -0.026  0.00  0.00    -0.276 OA
ATOM     11  H   UNL     1       1.757  -1.504  -1.272  0.00  0.00    +0.149 HD
BRANCH   8  12
ATOM     12  C   UNL     1       0.864  -1.579   0.652  0.00  0.00    +0.070 C 
ATOM     13  C   UNL     1      -0.646  -1.365   0.532  0.00  0.00    +0.028 C 
BRANCH  12  14
ATOM     14  C   UNL     1       1.545  -0.245   0.967  0.00  0.00    +0.022 C 
BRANCH  14  16
ATOM     15  C   UNL     1       3.718   0.855   1.524  0.00  0.00    +0.004 C 
ATOM     16  C   UNL     1       3.037  -0.479   1.210  0.00  0.00    -0.002 C 
ENDBRANCH  14  16
ENDBRANCH  12  14
ENDBRANCH   8  12
ENDBRANCH   1   9
BRANCH   5  17
ATOM     17  C   UNL     1       2.017  -7.481  -3.490  0.00  0.00    +0.017 C 
ATOM     18  C   UNL     1       0.522  -7.768  -3.332  0.00  0.00    -0.004 C 
BRANCH  17  19
ATOM     19  C   UNL     1       2.494  -8.018  -4.814  0.00  0.00    +0.207 C 
ATOM     20  O   UNL     1       2.511  -7.299  -5.790  0.00  0.00    -0.277 OA
ATOM     21  N   UNL     1       2.903  -9.299  -4.913  0.00  0.00    -0.242 N 
ATOM     22  C   UNL     1       3.330  -9.780  -6.098  0.00  0.00    +0.306 C 
ATOM     23  O   UNL     1       3.347  -9.059  -7.076  0.00  0.00    -0.252 OA
ATOM     24  N   UNL     1       3.738 -11.061  -6.197  0.00  0.00    -0.296 N 
ATOM     25  H   UNL     1       2.889  -9.874  -4.133  0.00  0.00    +0.159 HD
ATOM     26  H   UNL     1       3.725 -11.636  -5.416  0.00  0.00    +0.151 HD
BRANCH  24  27
ATOM     27  C   UNL     1       4.203 -11.584  -7.484  0.00  0.00    +0.074 C 
ATOM     28  C   UNL     1       3.009 -12.130  -8.295  0.00  0.00    +0.022 C 
ATOM     29  C   UNL     1       3.576 -13.381  -9.010  0.00  0.00    +0.002 C 
ATOM     30  C   UNL     1       4.513 -13.992  -7.939  0.00  0.00    +0.002 C 
ATOM     31  C   UNL     1       5.159 -12.768  -7.258  0.00  0.00    +0.022 C 
ENDBRANCH  24  27
ENDBRANCH  17  19
ENDBRANCH   5  17
TORSDOF 7
