REMARK  Name = ZINC12442351
REMARK  6 active torsions:
REMARK  status: ('A' for Active; 'I' for Inactive)
REMARK    1  A    between atoms: C_1  and  C_2
REMARK    2  A    between atoms: C_4  and  N_21
REMARK    3  A    between atoms: C_9  and  C_12
REMARK    4  A    between atoms: C_22  and  C_24
REMARK    5  A    between atoms: C_24  and  O_25
REMARK    6  A    between atoms: O_25  and  C_26
REMARK                            x       y       z     vdW  Elec       q    Type
REMARK                         _______ _______ _______ _____ _____    ______ ____
ROOT
ATOM      1  C   UNL     1       0.106  -7.472  -0.038  0.00  0.00    +0.067 C 
ATOM      2  C   UNL     1      -0.944  -6.391  -0.023  0.00  0.00    +0.062 A 
ATOM      3  C   UNL     1      -0.699  -5.015  -0.018  0.00  0.00    +0.068 A 
ATOM      4  C   UNL     1      -1.901  -4.376  -0.003  0.00  0.00    +0.131 A 
ATOM      5  N   UNL     1      -2.871  -5.333   0.006  0.00  0.00    -0.194 N 
ATOM      6  N   UNL     1      -2.238  -6.582  -0.012  0.00  0.00    -0.168 NA
ATOM      7  C   UNL     1      -4.245  -5.108   0.027  0.00  0.00    +0.196 A 
ATOM      8  N   UNL     1      -5.234  -5.982   0.037  0.00  0.00    -0.221 NA
ATOM      9  C   UNL     1      -6.498  -5.590   0.058  0.00  0.00    +0.081 A 
ATOM     10  C   UNL     1      -6.786  -4.253   0.068  0.00  0.00    +0.077 A 
ATOM     11  S   UNL     1      -5.138  -3.559   0.055  0.00  0.00    -0.056 S 
ENDROOT
BRANCH   9  12
ATOM     12  C   UNL     1      -7.593  -6.591   0.068  0.00  0.00    +0.005 A 
ATOM     13  C   UNL     1      -8.920  -6.176  -0.016  0.00  0.00    +0.014 A 
ATOM     14  C   UNL     1      -9.937  -7.109  -0.006  0.00  0.00    +0.050 A 
ATOM     15  C   UNL     1      -9.643  -8.460   0.087  0.00  0.00    +0.166 A 
ATOM     16  C   UNL     1      -8.317  -8.881   0.172  0.00  0.00    +0.167 A 
ATOM     17  C   UNL     1      -7.295  -7.950   0.157  0.00  0.00    +0.059 A 
ATOM     18  O   UNL     1      -8.297 -10.244   0.254  0.00  0.00    -0.453 OA
ATOM     19  C   UNL     1      -9.596 -10.675  -0.193  0.00  0.00    +0.466 C 
ATOM     20  O   UNL     1     -10.452  -9.560   0.117  0.00  0.00    -0.453 OA
ENDBRANCH   9  12
BRANCH   4  21
ATOM     21  N   UNL     1      -2.102  -2.997   0.006  0.00  0.00    -0.267 N 
ATOM     22  C   UNL     1      -1.044  -2.161   0.000  0.00  0.00    +0.256 C 
ATOM     23  O   UNL     1       0.082  -2.610  -0.013  0.00  0.00    -0.272 OA
ATOM     24  H   UNL     1      -3.003  -2.638   0.017  0.00  0.00    +0.156 HD
BRANCH  22  25
ATOM     25  C   UNL     1      -1.262  -0.670   0.011  0.00  0.00    +0.325 C 
BRANCH  25  26
ATOM     26  O   UNL     1       0.002  -0.004   0.002  0.00  0.00    -0.480 OA
BRANCH  26  27
ATOM     27  C   UNL     1      -0.016   1.355   0.009  0.00  0.00    +0.156 A 
ATOM     28  C   UNL     1      -1.226   2.034   0.019  0.00  0.00    +0.048 A 
ATOM     29  C   UNL     1      -1.242   3.415   0.030  0.00  0.00    +0.004 A 
ATOM     30  C   UNL     1      -0.054   4.123   0.023  0.00  0.00    +0.003 A 
ATOM     31  C   UNL     1       1.154   3.451   0.009  0.00  0.00    +0.042 A 
ATOM     32  C   UNL     1       1.176   2.067   0.002  0.00  0.00    +0.165 A 
ATOM     33  F   UNL     1       2.357   1.410  -0.013  0.00  0.00    -0.202 F 
ENDBRANCH  26  27
ENDBRANCH  25  26
ENDBRANCH  22  25
ENDBRANCH   4  21
TORSDOF 5
