REMARK  Name = ZINC39601306
REMARK  9 active torsions:
REMARK  status: ('A' for Active; 'I' for Inactive)
REMARK    1  A    between atoms: C_1  and  C_2
REMARK    2  A    between atoms: C_2  and  C_3
REMARK    3  A    between atoms: C_2  and  C_4
REMARK    4  A    between atoms: C_4  and  C_5
REMARK    5  A    between atoms: C_5  and  N_6
REMARK    6  A    between atoms: C_7  and  C_9
REMARK    7  A    between atoms: C_20  and  C_22
REMARK    8  A    between atoms: C_27  and  S_28
REMARK    9  A    between atoms: S_28  and  C_29
REMARK                            x       y       z     vdW  Elec       q    Type
REMARK                         _______ _______ _______ _____ _____    ______ ____
ROOT
ATOM      1  C   UNL     1      -6.270  -0.675  -2.125  0.00  0.00    +0.100 C 
ATOM      2  C   UNL     1      -6.042  -2.201  -2.197  0.00  0.00    +0.121 C 
ATOM      3  N   UNL     1      -7.047  -2.685  -3.172  0.00  0.00    -0.296 N 
ATOM      4  C   UNL     1      -7.068  -1.644  -4.228  0.00  0.00    +0.115 C 
ATOM      5  C   UNL     1      -6.943  -0.313  -3.460  0.00  0.00    -0.004 C 
ATOM      6  C   UNL     1      -6.073   0.667  -4.242  0.00  0.00    -0.010 C 
ATOM      7  C   UNL     1      -6.789   1.057  -5.537  0.00  0.00    -0.082 C 
ATOM      8  N   UNL     1      -8.084   1.669  -5.218  0.00  0.00    +0.379 N 
ATOM      9  C   UNL     1      -8.949   0.690  -4.548  0.00  0.00    -0.082 C 
ATOM     10  C   UNL     1      -8.324   0.285  -3.210  0.00  0.00    -0.010 C 
ATOM     11  C   UNL     1      -7.779  -3.815  -3.112  0.00  0.00    +0.249 C 
ATOM     12  O   UNL     1      -8.499  -4.123  -4.043  0.00  0.00    -0.270 OA
ATOM     13  H   UNL     1      -7.940   2.461  -4.608  0.00  0.00    -0.086 HD
ATOM     14  H   UNL     1      -8.527   1.981  -6.069  0.00  0.00    -0.086 HD
ENDROOT
BRANCH  11  15
ATOM     15  C   UNL     1      -7.706  -4.678  -1.919  0.00  0.00    +0.069 A 
ATOM     16  C   UNL     1      -6.502  -4.832  -1.223  0.00  0.00    +0.017 A 
ATOM     17  C   UNL     1      -6.486  -5.652  -0.110  0.00  0.00    +0.020 A 
ATOM     18  C   UNL     1      -7.649  -6.292   0.282  0.00  0.00    +0.112 A 
ATOM     19  N   UNL     1      -8.774  -6.134  -0.386  0.00  0.00    -0.248 NA
ATOM     20  C   UNL     1      -8.847  -5.356  -1.456  0.00  0.00    +0.114 A 
BRANCH  20  21
ATOM     21  S   UNL     1     -10.379  -5.177  -2.307  0.00  0.00    -0.069 S 
BRANCH  21  22
ATOM     22  C   UNL     1     -11.456  -6.307  -1.490  0.00  0.00    +0.014 A 
ATOM     23  C   UNL     1     -12.281  -5.865  -0.463  0.00  0.00    +0.015 A 
ATOM     24  C   UNL     1     -13.123  -6.753   0.175  0.00  0.00    +0.001 A 
ATOM     25  C   UNL     1     -13.147  -8.082  -0.206  0.00  0.00    +0.000 A 
ATOM     26  C   UNL     1     -12.327  -8.527  -1.227  0.00  0.00    +0.001 A 
ATOM     27  C   UNL     1     -11.486  -7.642  -1.874  0.00  0.00    +0.015 A 
ENDBRANCH  21  22
ENDBRANCH  20  21
ENDBRANCH  11  15
BRANCH   1  29
ATOM     28  N   UNL     1      -4.900   1.235  -1.354  0.00  0.00    -0.315 N 
ATOM     29  C   UNL     1      -4.954   0.047  -1.988  0.00  0.00    +0.218 C 
ATOM     30  O   UNL     1      -3.944  -0.441  -2.449  0.00  0.00    -0.275 OA
ATOM     31  H   UNL     1      -5.707   1.625  -0.985  0.00  0.00    +0.149 HD
BRANCH  28  32
ATOM     32  C   UNL     1      -3.620   1.936  -1.221  0.00  0.00    +0.104 C 
BRANCH  32  33
ATOM     33  C   UNL     1      -3.835   3.250  -0.466  0.00  0.00    +0.022 C 
BRANCH  33  35
ATOM     34  C   UNL     1      -1.994   4.389  -1.713  0.00  0.00    +0.007 C 
ATOM     35  C   UNL     1      -2.499   3.982  -0.327  0.00  0.00    -0.016 C 
ATOM     36  C   UNL     1      -2.690   5.233   0.534  0.00  0.00    +0.007 C 
ENDBRANCH  33  35
ENDBRANCH  32  33
ENDBRANCH  28  32
ENDBRANCH   1  29
TORSDOF 7
