REMARK  Name = ZINC35072147
REMARK  11 active torsions:
REMARK  status: ('A' for Active; 'I' for Inactive)
REMARK    1  A    between atoms: C_1  and  C_2
REMARK    2  A    between atoms: C_5  and  C_41
REMARK    3  A    between atoms: C_6  and  N_8
REMARK    4  A    between atoms: C_18  and  C_19
REMARK    5  A    between atoms: C_19  and  C_21
REMARK    6  A    between atoms: C_19  and  N_22
REMARK    7  A    between atoms: N_22  and  C_23
REMARK    8  A    between atoms: C_23  and  C_24
REMARK    9  A    between atoms: C_24  and  C_25
REMARK   10  A    between atoms: N_33  and  C_34
REMARK   11  A    between atoms: C_39  and  C_40
REMARK                            x       y       z     vdW  Elec       q    Type
REMARK                         _______ _______ _______ _____ _____    ______ ____
ROOT
ATOM      1  C   UNL     1      -2.316  -2.596   2.177  0.00  0.00    +0.141 C 
ATOM      2  C   UNL     1      -2.196  -1.118   1.798  0.00  0.00    +0.036 C 
ENDROOT
BRANCH   1  13
ATOM      3  N   UNL     1      -0.392  -4.112   2.441  0.00  0.00    -0.263 N 
ATOM      4  C   UNL     1       0.734  -4.537   3.060  0.00  0.00    +0.266 A 
ATOM      5  O   UNL     1       1.355  -5.501   2.650  0.00  0.00    -0.267 OA
ATOM      6  C   UNL     1       1.179  -3.790   4.245  0.00  0.00    +0.065 A 
ATOM      7  C   UNL     1       2.326  -4.146   4.953  0.00  0.00    +0.015 A 
ATOM      8  C   UNL     1       2.698  -3.410   6.056  0.00  0.00    +0.001 A 
ATOM      9  C   UNL     1       1.941  -2.320   6.467  0.00  0.00    +0.002 A 
ATOM     10  C   UNL     1       0.805  -1.952   5.782  0.00  0.00    +0.028 A 
ATOM     11  C   UNL     1       0.407  -2.682   4.659  0.00  0.00    +0.078 A 
ATOM     12  N   UNL     1      -0.704  -2.354   3.954  0.00  0.00    -0.231 NA
ATOM     13  C   UNL     1      -1.071  -3.029   2.908  0.00  0.00    +0.138 A 
BRANCH   3  19
ATOM     14  C   UNL     1      -0.600  -4.528  -2.454  0.00  0.00    +0.044 C 
ATOM     15  C   UNL     1      -0.976  -5.011  -1.077  0.00  0.00    -0.048 A 
ATOM     16  C   UNL     1      -1.784  -6.124  -0.932  0.00  0.00    +0.004 A 
ATOM     17  C   UNL     1      -2.130  -6.571   0.330  0.00  0.00    +0.005 A 
ATOM     18  C   UNL     1      -1.670  -5.906   1.450  0.00  0.00    -0.026 A 
ATOM     19  C   UNL     1      -0.859  -4.788   1.308  0.00  0.00    +0.054 A 
ATOM     20  C   UNL     1      -0.508  -4.346   0.039  0.00  0.00    +0.030 A 
ATOM     21  C   UNL     1      -2.049  -6.394   2.825  0.00  0.00    +0.046 C 
ENDBRANCH   3  19
ENDBRANCH   1  13
BRANCH   1  22
ATOM     22  N   UNL     1      -3.482  -2.785   3.043  0.00  0.00    -0.275 N 
ATOM     23  C   UNL     1      -4.480  -3.605   2.660  0.00  0.00    +0.307 C 
ATOM     24  O   UNL     1      -4.413  -4.188   1.594  0.00  0.00    -0.252 OA
ATOM     25  N   UNL     1      -5.553  -3.780   3.457  0.00  0.00    -0.269 N 
ATOM     26  H   UNL     1      -5.571  -3.380   4.340  0.00  0.00    +0.156 HD
BRANCH  25  27
ATOM     27  C   UNL     1      -6.641  -4.538   3.010  0.00  0.00    +0.038 A 
ATOM     28  C   UNL     1      -6.875  -4.684   1.648  0.00  0.00    +0.023 A 
ATOM     29  C   UNL     1      -7.949  -5.433   1.210  0.00  0.00    +0.002 A 
ATOM     30  C   UNL     1      -8.791  -6.038   2.126  0.00  0.00    +0.000 A 
ATOM     31  C   UNL     1      -8.561  -5.895   3.482  0.00  0.00    +0.005 A 
ATOM     32  C   UNL     1      -7.484  -5.152   3.926  0.00  0.00    -0.029 A 
ATOM     33  C   UNL     1      -7.230  -5.002   5.404  0.00  0.00    +0.045 C 
ENDBRANCH  25  27
BRANCH  22  34
ATOM     34  C   UNL     1      -3.563  -2.084   4.327  0.00  0.00    +0.114 C 
BRANCH  34  35
ATOM     35  C   UNL     1      -4.251  -0.732   4.127  0.00  0.00    +0.054 C 
BRANCH  35  36
ATOM     36  C   UNL     1      -4.335  -0.010   5.447  0.00  0.00    -0.046 A 
ATOM     37  C   UNL     1      -5.432  -0.194   6.267  0.00  0.00    +0.004 A 
ATOM     38  C   UNL     1      -5.509   0.469   7.478  0.00  0.00    +0.000 A 
ATOM     39  C   UNL     1      -4.487   1.314   7.869  0.00  0.00    +0.000 A 
ATOM     40  C   UNL     1      -3.389   1.496   7.049  0.00  0.00    +0.000 A 
ATOM     41  C   UNL     1      -3.311   0.831   5.840  0.00  0.00    +0.004 A 
ENDBRANCH  35  36
ENDBRANCH  34  35
ENDBRANCH  22  34
ENDBRANCH   1  22
TORSDOF 7
