REMARK  Name = ZINC50062126
REMARK  5 active torsions:
REMARK  status: ('A' for Active; 'I' for Inactive)
REMARK    1  A    between atoms: C_1  and  N_2
REMARK    2  A    between atoms: C_6  and  N_13
REMARK    3  A    between atoms: N_9  and  C_12
REMARK    4  A    between atoms: N_16  and  C_17
REMARK    5  A    between atoms: C_17  and  C_18
REMARK                            x       y       z     vdW  Elec       q    Type
REMARK                         _______ _______ _______ _____ _____    ______ ____
ROOT
ATOM      1  N   UNL     1      -3.810  -4.024  -0.002  0.00  0.00    -0.269 N 
ATOM      2  C   UNL     1      -3.521  -5.154  -0.679  0.00  0.00    +0.304 C 
ATOM      3  O   UNL     1      -2.436  -5.282  -1.212  0.00  0.00    -0.252 OA
ATOM      4  N   UNL     1      -4.435  -6.141  -0.764  0.00  0.00    -0.295 N 
ATOM      5  H   UNL     1      -4.648  -3.949   0.480  0.00  0.00    +0.156 HD
ATOM      6  H   UNL     1      -5.300  -6.038  -0.338  0.00  0.00    +0.151 HD
ENDROOT
BRANCH   1  12
ATOM      7  C   UNL     1       0.001   1.448   0.038  0.00  0.00    +0.154 C 
ATOM      8  N   UNL     1       0.016  -0.017   0.030  0.00  0.00    -0.295 N 
ATOM      9  C   UNL     1      -1.107  -0.845   0.023  0.00  0.00    +0.070 A 
ATOM     10  C   UNL     1      -2.471  -0.596   0.021  0.00  0.00    +0.030 A 
ATOM     11  C   UNL     1      -3.363  -1.649   0.012  0.00  0.00    +0.025 A 
ATOM     12  C   UNL     1      -2.899  -2.960   0.006  0.00  0.00    +0.037 A 
ATOM     13  C   UNL     1      -1.536  -3.215   0.008  0.00  0.00    +0.051 A 
ATOM     14  C   UNL     1      -0.637  -2.160   0.016  0.00  0.00    +0.071 A 
ATOM     15  N   UNL     1       0.754  -2.091   0.020  0.00  0.00    -0.295 N 
ATOM     16  C   UNL     1       1.115  -0.794   0.023  0.00  0.00    +0.330 A 
ATOM     17  O   UNL     1       2.262  -0.386   0.021  0.00  0.00    -0.246 OA
ATOM     18  C   UNL     1       1.669  -3.235   0.016  0.00  0.00    +0.154 C 
ENDBRANCH   1  12
BRANCH   4  19
ATOM     19  C   UNL     1      -4.121  -7.368  -1.500  0.00  0.00    +0.149 C 
BRANCH  19  20
ATOM     20  C   UNL     1      -5.301  -8.303  -1.444  0.00  0.00    +0.021 A 
ATOM     21  C   UNL     1      -6.350  -8.406  -2.297  0.00  0.00    +0.030 A 
ATOM     22  C   UNL     1      -7.329  -9.349  -2.044  0.00  0.00    +0.023 A 
ATOM     23  C   UNL     1      -7.212 -10.142  -0.951  0.00  0.00    +0.046 A 
ATOM     24  S   UNL     1      -5.677  -9.568  -0.242  0.00  0.00    -0.099 S 
ATOM     25 BR   UNL     1      -6.472  -7.277  -3.809  0.00  0.00    -0.049 Br
ENDBRANCH  19  20
ENDBRANCH   4  19
TORSDOF 3
