REMARK  Name = ZINC21577961
REMARK  7 active torsions:
REMARK  status: ('A' for Active; 'I' for Inactive)
REMARK    1  A    between atoms: C_1  and  C_2
REMARK    2  A    between atoms: C_2  and  C_23
REMARK    3  A    between atoms: N_5  and  N_9
REMARK    4  A    between atoms: C_10  and  C_12
REMARK    5  A    between atoms: C_12  and  N_13
REMARK    6  A    between atoms: C_23  and  C_24
REMARK    7  A    between atoms: C_24  and  C_25
REMARK                            x       y       z     vdW  Elec       q    Type
REMARK                         _______ _______ _______ _____ _____    ______ ____
ROOT
ATOM      1  C   UNL     1      -6.638  -0.927  -4.579  0.00  0.00    +0.041 C 
ATOM      2  C   UNL     1      -5.233  -0.344  -4.415  0.00  0.00    +0.112 C 
ATOM      3  C   UNL     1      -4.443  -1.135  -3.390  0.00  0.00    +0.263 C 
ATOM      4  O   UNL     1      -4.139  -2.307  -3.446  0.00  0.00    -0.271 OA
ATOM      5  N   UNL     1      -4.149  -0.263  -2.405  0.00  0.00    -0.137 N 
ATOM      6  C   UNL     1      -4.642   0.954  -2.660  0.00  0.00    +0.326 C 
ATOM      7  O   UNL     1      -4.509   1.906  -1.915  0.00  0.00    -0.251 OA
ATOM      8  N   UNL     1      -5.298   1.008  -3.833  0.00  0.00    -0.284 N 
ATOM      9  H   UNL     1      -5.819   1.814  -4.371  0.00  0.00    +0.151 HD
ENDROOT
BRANCH   5  10
ATOM     10  N   UNL     1      -3.421  -0.593  -1.254  0.00  0.00    -0.225 N 
ATOM     11  C   UNL     1      -2.140  -0.195  -1.129  0.00  0.00    +0.213 C 
ATOM     12  O   UNL     1      -1.616   0.449  -2.014  0.00  0.00    -0.276 OA
ATOM     13  H   UNL     1      -3.897  -1.177  -0.452  0.00  0.00    +0.173 HD
BRANCH  11  14
ATOM     14  C   UNL     1      -1.358  -0.550   0.109  0.00  0.00    +0.021 C 
BRANCH  14  15
ATOM     15  N   UNL     1       0.002  -0.004   0.002  0.00  0.00    +0.388 N 
ATOM     16  C   UNL     1       0.859  -0.507   1.087  0.00  0.00    -0.073 C 
ATOM     17  C   UNL     1       2.317  -0.217   0.729  0.00  0.00    +0.017 C 
ATOM     18  C   UNL     1       2.472   1.230   0.337  0.00  0.00    -0.048 A 
ATOM     19  C   UNL     1       3.746   1.777   0.318  0.00  0.00    +0.004 A 
ATOM     20  C   UNL     1       3.933   3.097  -0.040  0.00  0.00    +0.000 A 
ATOM     21  C   UNL     1       2.844   3.878  -0.381  0.00  0.00    +0.000 A 
ATOM     22  C   UNL     1       1.575   3.335  -0.361  0.00  0.00    +0.002 A 
ATOM     23  C   UNL     1       1.386   2.008  -0.000  0.00  0.00    -0.061 A 
ATOM     24  C   UNL     1      -0.018   1.462   0.010  0.00  0.00    -0.042 C 
ATOM     25  H   UNL     1       0.421  -0.338  -0.959  0.00  0.00    -0.081 HD
ENDBRANCH  14  15
ENDBRANCH  11  14
ENDBRANCH   5  10
BRANCH   2  26
ATOM     26  C   UNL     1      -4.501  -0.321  -5.758  0.00  0.00    +0.040 C 
BRANCH  26  27
ATOM     27  C   UNL     1      -5.255   0.584  -6.734  0.00  0.00    +0.038 C 
BRANCH  27  28
ATOM     28  C   UNL     1      -4.534   0.607  -8.057  0.00  0.00    -0.047 A 
ATOM     29  C   UNL     1      -3.559   1.558  -8.297  0.00  0.00    +0.003 A 
ATOM     30  C   UNL     1      -2.894   1.575  -9.509  0.00  0.00    +0.000 A 
ATOM     31  C   UNL     1      -3.211   0.648 -10.485  0.00  0.00    +0.000 A 
ATOM     32  C   UNL     1      -4.189  -0.299 -10.247  0.00  0.00    +0.000 A 
ATOM     33  C   UNL     1      -4.850  -0.320  -9.033  0.00  0.00    +0.003 A 
ENDBRANCH  27  28
ENDBRANCH  26  27
ENDBRANCH   2  26
TORSDOF 6
