REMARK  Name = ZINC13059243
REMARK  8 active torsions:
REMARK  status: ('A' for Active; 'I' for Inactive)
REMARK    1  A    between atoms: C_1  and  C_2
REMARK    2  A    between atoms: C_2  and  C_4
REMARK    3  A    between atoms: C_2  and  O_20
REMARK    4  A    between atoms: N_6  and  N_7
REMARK    5  A    between atoms: N_7  and  S_8
REMARK    6  A    between atoms: S_8  and  C_11
REMARK    7  A    between atoms: C_15  and  C_17
REMARK    8  A    between atoms: O_20  and  C_21
REMARK                            x       y       z     vdW  Elec       q    Type
REMARK                         _______ _______ _______ _____ _____    ______ ____
ROOT
ATOM      1  N   UNL     1      -1.199   1.685  -0.499  0.00  0.00    -0.108 NA
ATOM      2  H   UNL     1      -1.443   2.430   0.072  0.00  0.00    +0.172 HD
ENDROOT
BRANCH   1   5
ATOM      3  C   UNL     1       1.168   1.666  -0.244  0.00  0.00    +0.268 C 
ATOM      4  O   UNL     1       1.181   2.868  -0.406  0.00  0.00    -0.270 OA
ATOM      5  N   UNL     1       0.000   0.995  -0.275  0.00  0.00    -0.229 N 
ATOM      6  H   UNL     1      -0.011   0.034  -0.145  0.00  0.00    +0.171 HD
BRANCH   3   8
ATOM      7  C   UNL     1       2.720  -0.027  -1.179  0.00  0.00    +0.062 C 
ATOM      8  C   UNL     1       2.458   0.923  -0.009  0.00  0.00    +0.257 C 
BRANCH   8   9
ATOM      9  O   UNL     1       3.534   1.858   0.096  0.00  0.00    -0.477 OA
BRANCH   9  10
ATOM     10  C   UNL     1       4.629   1.463   0.797  0.00  0.00    +0.157 A 
ATOM     11  C   UNL     1       4.716   0.165   1.277  0.00  0.00    +0.048 A 
ATOM     12  C   UNL     1       5.830  -0.235   1.989  0.00  0.00    +0.004 A 
ATOM     13  C   UNL     1       6.860   0.657   2.224  0.00  0.00    +0.003 A 
ATOM     14  C   UNL     1       6.778   1.952   1.747  0.00  0.00    +0.042 A 
ATOM     15  C   UNL     1       5.667   2.357   1.030  0.00  0.00    +0.165 A 
ATOM     16  F   UNL     1       5.589   3.621   0.560  0.00  0.00    -0.202 F 
ENDBRANCH   9  10
ENDBRANCH   8   9
ENDBRANCH   3   8
ENDBRANCH   1   5
BRANCH   1  17
ATOM     17  S   UNL     1      -2.197   1.228  -1.738  0.00  0.00    +0.074 S 
ATOM     18  O   UNL     1      -3.378   2.010  -1.618  0.00  0.00    -0.152 OA
ATOM     19  O   UNL     1      -1.405   1.222  -2.918  0.00  0.00    -0.152 OA
BRANCH  17  20
ATOM     20  C   UNL     1      -2.668  -0.444  -1.439  0.00  0.00    +0.108 A 
ATOM     21  C   UNL     1      -1.904  -1.478  -1.953  0.00  0.00    +0.031 A 
ATOM     22  C   UNL     1      -2.261  -2.792  -1.720  0.00  0.00    +0.041 A 
ATOM     23  C   UNL     1      -3.392  -3.083  -0.979  0.00  0.00    +0.138 A 
ATOM     24  C   UNL     1      -4.171  -2.042  -0.462  0.00  0.00    +0.100 A 
ATOM     25  C   UNL     1      -3.798  -0.717  -0.699  0.00  0.00    +0.046 A 
ATOM     26  F   UNL     1      -3.744  -4.368  -0.755  0.00  0.00    -0.205 F 
BRANCH  24  27
ATOM     27  C   UNL     1      -5.379  -2.343   0.330  0.00  0.00    +0.389 C 
ATOM     28  O   UNL     1      -5.701  -3.496   0.534  0.00  0.00    -0.240 OA
ATOM     29  O   UNL     1      -6.126  -1.337   0.826  0.00  0.00    -0.240 OA
ENDBRANCH  24  27
ENDBRANCH  17  20
ENDBRANCH   1  17
TORSDOF 7
