REMARK  Name = ZINC16769299
REMARK  8 active torsions:
REMARK  status: ('A' for Active; 'I' for Inactive)
REMARK    1  A    between atoms: C_1  and  C_2
REMARK    2  A    between atoms: C_5  and  N_8
REMARK    3  A    between atoms: C_9  and  C_26
REMARK    4  A    between atoms: N_11  and  C_14
REMARK    5  A    between atoms: C_14  and  C_15
REMARK    6  A    between atoms: N_17  and  C_18
REMARK    7  A    between atoms: C_22  and  C_25
REMARK    8  A    between atoms: C_23  and  C_24
REMARK                            x       y       z     vdW  Elec       q    Type
REMARK                         _______ _______ _______ _____ _____    ______ ____
ROOT
ATOM      1  N   UNL     1      -3.003  -1.911  -0.310  0.00  0.00    -0.271 N 
ATOM      2  C   UNL     1      -2.582  -1.980  -1.625  0.00  0.00    +0.167 A 
ATOM      3  N   UNL     1      -1.438  -1.363  -1.726  0.00  0.00    -0.150 NA
ATOM      4  N   UNL     1      -1.093  -0.877  -0.457  0.00  0.00    -0.231 N 
ATOM      5  C   UNL     1      -2.075  -1.234   0.396  0.00  0.00    +0.183 A 
ATOM      6  S   UNL     1      -2.133  -0.888   2.071  0.00  0.00    -0.011 S 
ENDROOT
BRANCH   1  11
ATOM      7  C   UNL     1      -7.803  -4.113   1.766  0.00  0.00    +0.044 C 
ATOM      8  C   UNL     1      -6.529  -3.528   1.214  0.00  0.00    -0.050 A 
ATOM      9  C   UNL     1      -5.310  -4.090   1.550  0.00  0.00    +0.005 A 
ATOM     10  C   UNL     1      -4.140  -3.556   1.046  0.00  0.00    +0.026 A 
ATOM     11  C   UNL     1      -4.188  -2.454   0.203  0.00  0.00    +0.050 A 
ATOM     12  C   UNL     1      -5.413  -1.889  -0.128  0.00  0.00    +0.026 A 
ATOM     13  C   UNL     1      -6.580  -2.431   0.374  0.00  0.00    +0.005 A 
ENDBRANCH   1  11
BRANCH   2  14
ATOM     14  C   UNL     1      -3.308  -2.642  -2.731  0.00  0.00    +0.021 A 
ATOM     15  C   UNL     1      -2.988  -2.344  -4.056  0.00  0.00    +0.011 A 
ATOM     16  C   UNL     1      -3.667  -2.965  -5.083  0.00  0.00    +0.002 A 
ATOM     17  C   UNL     1      -4.665  -3.882  -4.803  0.00  0.00    +0.015 A 
ATOM     18  C   UNL     1      -4.987  -4.183  -3.490  0.00  0.00    +0.019 A 
ATOM     19  C   UNL     1      -4.310  -3.571  -2.453  0.00  0.00    +0.027 A 
ATOM     20 BR   UNL     1      -6.351  -5.438  -3.117  0.00  0.00    -0.050 Br
ENDBRANCH   2  14
BRANCH   4  21
ATOM     21  C   UNL     1       0.117  -0.123  -0.118  0.00  0.00    +0.242 C 
BRANCH  21  22
ATOM     22  C   UNL     1      -0.147   1.351  -0.284  0.00  0.00    +0.239 C 
ATOM     23  O   UNL     1      -1.237   1.734  -0.653  0.00  0.00    -0.273 OA
ATOM     24  N   UNL     1       0.829   2.244  -0.026  0.00  0.00    -0.284 N 
ATOM     25  H   UNL     1       1.679   1.943   0.333  0.00  0.00    +0.155 HD
BRANCH  24  26
ATOM     26  C   UNL     1       0.617   3.604  -0.275  0.00  0.00    +0.037 A 
ATOM     27  C   UNL     1      -0.379   4.003  -1.158  0.00  0.00    +0.023 A 
ATOM     28  C   UNL     1      -0.586   5.346  -1.402  0.00  0.00    +0.002 A 
ATOM     29  C   UNL     1       0.198   6.294  -0.769  0.00  0.00    +0.004 A 
ATOM     30  C   UNL     1       1.190   5.901   0.110  0.00  0.00    -0.046 A 
ATOM     31  C   UNL     1       1.398   4.559   0.363  0.00  0.00    -0.026 A 
ATOM     32  C   UNL     1       2.475   4.131   1.326  0.00  0.00    +0.046 C 
ATOM     33  C   UNL     1       2.041   6.937   0.797  0.00  0.00    +0.044 C 
ENDBRANCH  24  26
ENDBRANCH  21  22
ENDBRANCH   4  21
TORSDOF 5
