REMARK  Name = ZINC09286754
REMARK  4 active torsions:
REMARK  status: ('A' for Active; 'I' for Inactive)
REMARK    1  A    between atoms: C_15  and  C_17
REMARK    2  A    between atoms: N_19  and  C_20
REMARK    3  A    between atoms: C_22  and  N_27
REMARK    4  A    between atoms: N_32  and  C_35
REMARK                            x       y       z     vdW  Elec       q    Type
REMARK                         _______ _______ _______ _____ _____    ______ ____
ROOT
ATOM      1  C   UNL     1      -2.681  -1.575  -3.432  0.00  0.00    +0.001 A 
ATOM      2  C   UNL     1      -1.875  -1.643  -2.308  0.00  0.00    +0.000 A 
ATOM      3  C   UNL     1      -1.771  -0.555  -1.462  0.00  0.00    +0.006 A 
ATOM      4  C   UNL     1      -2.458   0.610  -1.716  0.00  0.00    -0.021 A 
ATOM      5  C   UNL     1      -3.266   0.689  -2.868  0.00  0.00    -0.019 A 
ATOM      6  C   UNL     1      -3.377  -0.418  -3.708  0.00  0.00    +0.008 A 
ATOM      7  C   UNL     1      -4.014   1.923  -3.175  0.00  0.00    +0.022 C 
ATOM      8  C   UNL     1      -3.750   3.068  -2.515  0.00  0.00    +0.054 C 
ATOM      9  C   UNL     1      -2.414   1.783  -0.816  0.00  0.00    +0.100 C 
ATOM     10  C   UNL     1      -1.223   2.096   0.044  0.00  0.00    +0.113 C 
ATOM     11  C   UNL     1      -0.585   3.228  -0.856  0.00  0.00    +0.117 C 
ATOM     12  C   UNL     1      -1.756   4.057  -1.199  0.00  0.00    +0.156 C 
ATOM     13  C   UNL     1       0.747   3.329  -0.322  0.00  0.00    +0.228 C 
ATOM     14  O   UNL     1       1.428   4.326  -0.214  0.00  0.00    -0.275 OA
ATOM     15  N   UNL     1       1.074   2.046   0.040  0.00  0.00    -0.238 N 
ATOM     16  C   UNL     1      -0.005   1.209   0.046  0.00  0.00    +0.228 C 
ATOM     17  O   UNL     1       0.014  -0.003   0.047  0.00  0.00    -0.275 OA
ATOM     18  N   UNL     1      -2.890   3.064  -1.253  0.00  0.00    -0.383 NA
ATOM     19  H   UNL     1      -3.538   3.364  -0.515  0.00  0.00    +0.127 HD
ENDROOT
BRANCH  15  20
ATOM     20  C   UNL     1       2.433   1.620   0.383  0.00  0.00    +0.084 C 
ATOM     21  C   UNL     1       2.932   2.427   1.584  0.00  0.00    +0.023 C 
ATOM     22  C   UNL     1       4.351   1.982   1.942  0.00  0.00    +0.002 C 
ATOM     23  C   UNL     1       5.277   2.221   0.747  0.00  0.00    +0.000 C 
ATOM     24  C   UNL     1       4.779   1.415  -0.454  0.00  0.00    +0.002 C 
ATOM     25  C   UNL     1       3.359   1.859  -0.812  0.00  0.00    +0.023 C 
ENDBRANCH  15  20
BRANCH  12  26
ATOM     26  C   UNL     1      -2.229   4.848  -0.006  0.00  0.00    +0.237 C 
ATOM     27  O   UNL     1      -3.181   4.462   0.639  0.00  0.00    -0.273 OA
ATOM     28  N   UNL     1      -1.595   5.984   0.343  0.00  0.00    -0.283 N 
ATOM     29  H   UNL     1      -0.795   6.259  -0.132  0.00  0.00    +0.155 HD
BRANCH  28  30
ATOM     30  C   UNL     1      -2.090   6.768   1.392  0.00  0.00    +0.054 A 
ATOM     31  C   UNL     1      -2.690   6.164   2.489  0.00  0.00    +0.057 A 
ATOM     32  C   UNL     1      -3.178   6.940   3.522  0.00  0.00    +0.128 A 
ATOM     33  C   UNL     1      -3.068   8.317   3.466  0.00  0.00    +0.034 A 
ATOM     34  C   UNL     1      -2.471   8.923   2.376  0.00  0.00    +0.024 A 
ATOM     35  C   UNL     1      -1.976   8.152   1.341  0.00  0.00    +0.062 A 
ATOM     36 CL   UNL     1      -1.220   8.912  -0.024  0.00  0.00    -0.082 Cl
BRANCH  32  37
ATOM     37  N   UNL     1      -3.817   6.296   4.691  0.00  0.00    +0.056 N 
ATOM     38  O   UNL     1      -3.914   5.083   4.742  0.00  0.00    -0.126 OA
ATOM     39  O   UNL     1      -4.248   6.979   5.603  0.00  0.00    -0.126 OA
ENDBRANCH  32  37
ENDBRANCH  28  30
ENDBRANCH  12  26
TORSDOF 4
