REMARK  Name = ZINC00718906
REMARK  6 active torsions:
REMARK  status: ('A' for Active; 'I' for Inactive)
REMARK    1  A    between atoms: C_4  and  C_7
REMARK    2  A    between atoms: C_7  and  C_8
REMARK    3  A    between atoms: C_9  and  C_27
REMARK    4  A    between atoms: C_9  and  C_31
REMARK    5  A    between atoms: N_17  and  C_20
REMARK    6  A    between atoms: C_20  and  C_21
REMARK                            x       y       z     vdW  Elec       q    Type
REMARK                         _______ _______ _______ _____ _____    ______ ____
ROOT
ATOM      1  C   UNL     1      -0.161  -2.905  -0.230  0.00  0.00    +0.079 C 
ATOM      2  C   UNL     1      -1.282  -0.783   0.018  0.00  0.00    +0.264 C 
ATOM      3  C   UNL     1       0.075  -0.171  -0.179  0.00  0.00    +0.098 A 
ATOM      4  C   UNL     1       0.213   1.218  -0.339  0.00  0.00    +0.262 A 
ATOM      5  O   UNL     1      -0.770   1.939  -0.331  0.00  0.00    -0.267 OA
ATOM      6  N   UNL     1       1.442   1.747  -0.507  0.00  0.00    -0.275 N 
ATOM      7  H   UNL     1       1.544   2.735  -0.623  0.00  0.00    +0.173 HD
ATOM      8  C   UNL     1       2.532   0.958  -0.520  0.00  0.00    +0.331 A 
ATOM      9  O   UNL     1       3.631   1.457  -0.670  0.00  0.00    -0.246 OA
ATOM     10  N   UNL     1       2.424  -0.376  -0.371  0.00  0.00    -0.277 N 
ATOM     11  C   UNL     1       1.192  -0.954  -0.201  0.00  0.00    +0.119 A 
ATOM     12  N   UNL     1       1.067  -2.315  -0.055  0.00  0.00    -0.290 N 
ATOM     13  H   UNL     1       1.841  -2.856   0.170  0.00  0.00    +0.155 HD
ATOM     14  N   UNL     1      -1.326  -2.270  -0.217  0.00  0.00    -0.352 N 
ATOM     15  H   UNL     1      -2.213  -2.768  -0.360  0.00  0.00    +0.162 HD
ENDROOT
BRANCH   2  16
ATOM     16  C   UNL     1      -1.754  -0.507   1.448  0.00  0.00    +0.426 C 
ATOM     17  F   UNL     1      -1.827   0.874   1.656  0.00  0.00    -0.167 F 
ATOM     18  F   UNL     1      -3.018  -1.075   1.639  0.00  0.00    -0.167 F 
ATOM     19  F   UNL     1      -0.849  -1.069   2.354  0.00  0.00    -0.167 F 
ENDBRANCH   2  16
BRANCH   2  20
ATOM     20  C   UNL     1      -2.267  -0.147  -0.965  0.00  0.00    +0.426 C 
ATOM     21  F   UNL     1      -1.675  -0.066  -2.230  0.00  0.00    -0.167 F 
ATOM     22  F   UNL     1      -3.423  -0.932  -1.040  0.00  0.00    -0.167 F 
ATOM     23  F   UNL     1      -2.603   1.137  -0.524  0.00  0.00    -0.167 F 
ENDBRANCH   2  20
BRANCH   1  24
ATOM     24  C   UNL     1      -0.234  -4.392  -0.459  0.00  0.00    +0.104 C 
BRANCH  24  28
ATOM     25  C   UNL     1      -4.315  -5.563  -0.923  0.00  0.00    +0.000 A 
ATOM     26  C   UNL     1      -3.572  -5.196  -2.029  0.00  0.00    +0.000 A 
ATOM     27  C   UNL     1      -2.251  -4.817  -1.879  0.00  0.00    +0.004 A 
ATOM     28  C   UNL     1      -1.674  -4.805  -0.623  0.00  0.00    -0.040 A 
ATOM     29  C   UNL     1      -2.416  -5.178   0.482  0.00  0.00    +0.004 A 
ATOM     30  C   UNL     1      -3.738  -5.552   0.333  0.00  0.00    +0.000 A 
ENDBRANCH  24  28
ENDBRANCH   1  24
BRANCH  10  31
ATOM     31  C   UNL     1       3.627  -1.212  -0.388  0.00  0.00    +0.163 C 
BRANCH  31  32
ATOM     32  C   UNL     1       3.915  -1.648  -1.802  0.00  0.00    -0.028 A 
ATOM     33  C   UNL     1       3.377  -2.825  -2.286  0.00  0.00    +0.005 A 
ATOM     34  C   UNL     1       3.637  -3.222  -3.585  0.00  0.00    +0.000 A 
ATOM     35  C   UNL     1       4.445  -2.446  -4.395  0.00  0.00    +0.000 A 
ATOM     36  C   UNL     1       4.988  -1.272  -3.909  0.00  0.00    +0.000 A 
ATOM     37  C   UNL     1       4.723  -0.872  -2.613  0.00  0.00    +0.005 A 
ENDBRANCH  31  32
ENDBRANCH  10  31
TORSDOF 6
