REMARK  Name = ZINC20071527
REMARK  9 active torsions:
REMARK  status: ('A' for Active; 'I' for Inactive)
REMARK    1  A    between atoms: C_1  and  C_2
REMARK    2  A    between atoms: C_3  and  C_28
REMARK    3  A    between atoms: N_11  and  C_14
REMARK    4  A    between atoms: C_14  and  C_15
REMARK    5  A    between atoms: C_22  and  C_26
REMARK    6  A    between atoms: C_23  and  N_25
REMARK    7  A    between atoms: C_28  and  O_30
REMARK    8  A    between atoms: O_30  and  C_31
REMARK    9  A    between atoms: C_31  and  C_32
REMARK                            x       y       z     vdW  Elec       q    Type
REMARK                         _______ _______ _______ _____ _____    ______ ____
ROOT
ATOM      1  C   UNL     1      -2.038  -1.457  -2.174  0.00  0.00    +0.087 C 
ATOM      2  C   UNL     1      -1.944  -0.502  -1.012  0.00  0.00    +0.116 C 
ATOM      3  C   UNL     1      -1.895   0.815  -1.257  0.00  0.00    +0.099 C 
ATOM      4  C   UNL     1      -1.803   1.804  -0.132  0.00  0.00    +0.148 C 
ATOM      5  C   UNL     1      -0.418   2.396  -0.066  0.00  0.00    -0.001 A 
ATOM      6  C   UNL     1       0.829   1.853   0.151  0.00  0.00    +0.007 A 
ATOM      7  C   UNL     1       1.946   2.669   0.167  0.00  0.00    +0.000 A 
ATOM      8  C   UNL     1       1.805   4.031  -0.030  0.00  0.00    +0.002 A 
ATOM      9  C   UNL     1       0.557   4.579  -0.243  0.00  0.00    +0.024 A 
ATOM     10  C   UNL     1      -0.572   3.764  -0.260  0.00  0.00    +0.041 A 
ATOM     11  N   UNL     1      -1.919   4.075  -0.453  0.00  0.00    -0.265 N 
ATOM     12  C   UNL     1      -2.706   2.986  -0.393  0.00  0.00    +0.241 C 
ATOM     13  O   UNL     1      -3.911   2.958  -0.525  0.00  0.00    -0.274 OA
ATOM     14  C   UNL     1      -2.163   1.151   1.172  0.00  0.00    +0.110 C 
ATOM     15  C   UNL     1      -2.198  -0.202   1.277  0.00  0.00    +0.199 C 
ATOM     16  O   UNL     1      -1.911  -0.999   0.233  0.00  0.00    -0.445 OA
ENDROOT
BRANCH  15  17
ATOM     17  N   UNL     1      -2.534  -0.770   2.480  0.00  0.00    -0.328 N 
ATOM     18  H   UNL     1      -2.567  -1.865   2.581  0.00  0.00    +0.145 HD
ATOM     19  H   UNL     1      -2.771  -0.131   3.344  0.00  0.00    +0.145 HD
ENDBRANCH  15  17
BRANCH  14  20
ATOM     20  C   UNL     1      -2.470   1.960   2.312  0.00  0.00    +0.102 C 
ATOM     21  N   UNL     1      -2.714   2.603   3.217  0.00  0.00    -0.191 NA
ENDBRANCH  14  20
BRANCH   3  22
ATOM     22  C   UNL     1      -1.931   1.279  -2.595  0.00  0.00    +0.340 C 
ATOM     23  O   UNL     1      -0.900   1.608  -3.152  0.00  0.00    -0.245 OA
BRANCH  22  24
ATOM     24  O   UNL     1      -3.107   1.355  -3.251  0.00  0.00    -0.457 OA
BRANCH  24  25
ATOM     25  C   UNL     1      -3.085   1.941  -4.555  0.00  0.00    +0.268 C 
BRANCH  25  26
ATOM     26  C   UNL     1      -4.494   2.050  -5.080  0.00  0.00    -0.010 A 
ATOM     27  C   UNL     1      -5.076   0.975  -5.724  0.00  0.00    +0.007 A 
ATOM     28  C   UNL     1      -6.370   1.073  -6.203  0.00  0.00    +0.000 A 
ATOM     29  C   UNL     1      -7.077   2.250  -6.043  0.00  0.00    +0.000 A 
ATOM     30  C   UNL     1      -6.493   3.327  -5.403  0.00  0.00    +0.000 A 
ATOM     31  C   UNL     1      -5.201   3.227  -4.922  0.00  0.00    +0.007 A 
ENDBRANCH  25  26
ENDBRANCH  24  25
ENDBRANCH  22  24
ENDBRANCH   3  22
BRANCH  11  32
ATOM     32  C   UNL     1      -2.418   5.431  -0.693  0.00  0.00    +0.150 C 
BRANCH  32  33
ATOM     33  C   UNL     1      -2.603   6.139   0.625  0.00  0.00    -0.011 A 
ATOM     34  C   UNL     1      -1.620   6.989   1.096  0.00  0.00    +0.006 A 
ATOM     35  C   UNL     1      -1.788   7.637   2.305  0.00  0.00    +0.000 A 
ATOM     36  C   UNL     1      -2.941   7.438   3.043  0.00  0.00    +0.001 A 
ATOM     37  C   UNL     1      -3.924   6.589   2.572  0.00  0.00    +0.020 A 
ATOM     38  C   UNL     1      -3.758   5.943   1.360  0.00  0.00    +0.046 A 
ATOM     39 CL   UNL     1      -4.997   4.882   0.764  0.00  0.00    -0.083 Cl
ENDBRANCH  32  33
ENDBRANCH  11  32
TORSDOF 8
