REMARK  Name = ZINC62531449
REMARK  6 active torsions:
REMARK  status: ('A' for Active; 'I' for Inactive)
REMARK    1  A    between atoms: C_1  and  C_2
REMARK    2  A    between atoms: C_2  and  C_3
REMARK    3  A    between atoms: C_2  and  C_4
REMARK    4  A    between atoms: C_4  and  C_5
REMARK    5  A    between atoms: C_7  and  N_17
REMARK    6  A    between atoms: N_11  and  C_16
REMARK                            x       y       z     vdW  Elec       q    Type
REMARK                         _______ _______ _______ _____ _____    ______ ____
ROOT
ATOM      1  C   UNL     1      -1.416  -2.035  -0.119  0.00  0.00    -0.043 A 
ATOM      2  C   UNL     1      -1.450  -2.616  -1.373  0.00  0.00    +0.030 A 
ATOM      3  C   UNL     1      -1.434  -3.999  -1.502  0.00  0.00    +0.069 A 
ATOM      4  C   UNL     1      -1.384  -4.797  -0.365  0.00  0.00    +0.163 A 
ATOM      5  C   UNL     1      -1.350  -4.207   0.894  0.00  0.00    +0.080 A 
ATOM      6  C   UNL     1      -1.360  -2.825   1.014  0.00  0.00    +0.031 A 
ATOM      7  N   UNL     1      -1.302  -5.023   2.033  0.00  0.00    -0.269 N 
ATOM      8  C   UNL     1      -0.973  -6.326   1.892  0.00  0.00    +0.257 C 
ATOM      9  O   UNL     1      -0.955  -7.058   2.859  0.00  0.00    -0.272 OA
ATOM     10  C   UNL     1      -0.630  -6.866   0.527  0.00  0.00    +0.325 C 
ATOM     11  O   UNL     1      -1.366  -6.154  -0.470  0.00  0.00    -0.479 OA
ATOM     12  C   UNL     1      -1.602  -4.471   3.357  0.00  0.00    +0.138 C 
ENDROOT
BRANCH   3  13
ATOM     13  N   UNL     1      -1.469  -4.586  -2.772  0.00  0.00    -0.355 N 
ATOM     14  H   UNL     1      -1.504  -4.028  -3.564  0.00  0.00    +0.142 HD
ATOM     15  H   UNL     1      -1.458  -5.552  -2.860  0.00  0.00    +0.142 HD
ENDBRANCH   3  13
BRANCH   1  16
ATOM     16  C   UNL     1      -1.433  -0.534   0.013  0.00  0.00    +0.038 C 
BRANCH  16  18
ATOM     17  C   UNL     1      -0.019   1.526   0.010  0.00  0.00    +0.007 C 
ATOM     18  C   UNL     1       0.002  -0.004   0.002  0.00  0.00    -0.013 C 
ATOM     19  C   UNL     1       0.742  -0.511   1.242  0.00  0.00    +0.007 C 
ENDBRANCH  16  18
ENDBRANCH   1  16
TORSDOF 3
