REMARK  Name = ZINC27345057
REMARK  7 active torsions:
REMARK  status: ('A' for Active; 'I' for Inactive)
REMARK    1  A    between atoms: C_1  and  C_2
REMARK    2  A    between atoms: C_2  and  C_3
REMARK    3  A    between atoms: C_3  and  C_35
REMARK    4  A    between atoms: C_7  and  N_27
REMARK    5  A    between atoms: C_14  and  N_19
REMARK    6  A    between atoms: N_19  and  C_20
REMARK    7  A    between atoms: C_20  and  C_21
REMARK                            x       y       z     vdW  Elec       q    Type
REMARK                         _______ _______ _______ _____ _____    ______ ____
ROOT
ATOM      1  C   UNL     1       6.243   2.272  -2.114  0.00  0.00    +0.071 C 
ATOM      2  C   UNL     1       4.769   1.916  -1.909  0.00  0.00    +0.071 C 
ATOM      3  C   UNL     1       4.530   0.487  -2.318  0.00  0.00    -0.025 A 
ATOM      4  C   UNL     1       5.414  -0.198  -3.090  0.00  0.00    +0.020 A 
ATOM      5  C   UNL     1       5.143  -1.522  -3.457  0.00  0.00    +0.105 A 
ATOM      6  N   UNL     1       4.032  -2.115  -3.051  0.00  0.00    -0.337 N 
ATOM      7  C   UNL     1       3.158  -1.484  -2.298  0.00  0.00    +0.089 A 
ATOM      8  C   UNL     1       3.341  -0.149  -1.882  0.00  0.00    +0.031 A 
ATOM      9  C   UNL     1       2.269   0.406  -1.049  0.00  0.00    +0.055 A 
ATOM     10  C   UNL     1       1.225  -0.422  -0.760  0.00  0.00    +0.050 A 
ATOM     11  S   UNL     1       1.600  -1.942  -1.575  0.00  0.00    -0.070 S 
ATOM     12  C   UNL     1       0.048  -0.037   0.083  0.00  0.00    +0.189 C 
ATOM     13  N   UNL     1      -0.016   1.439   0.043  0.00  0.00    -0.359 N 
ATOM     14  C   UNL     1       1.150   2.161  -0.018  0.00  0.00    +0.157 C 
ATOM     15  N   UNL     1       2.243   1.705  -0.551  0.00  0.00    -0.306 N 
ATOM     16  C   UNL     1       6.698   0.433  -3.565  0.00  0.00    +0.199 C 
ATOM     17  O   UNL     1       6.632   1.852  -3.426  0.00  0.00    -0.369 OA
ATOM     18  C   UNL     1       7.097   1.553  -1.068  0.00  0.00    +0.042 C 
ATOM     19  H   UNL     1      -0.985   1.959   0.062  0.00  0.00    +0.162 HD
ATOM     20  H   UNL     1       3.826  -3.156  -3.344  0.00  0.00    +0.168 HD
ATOM     21  H   UNL     1       3.142   2.335  -0.610  0.00  0.00    +0.153 HD
ENDROOT
BRANCH   5  22
ATOM     22  N   UNL     1       6.047  -2.217  -4.252  0.00  0.00    -0.312 N 
ATOM     23  C   UNL     1       5.430  -2.614  -5.526  0.00  0.00    +0.134 C 
ATOM     24  C   UNL     1       6.474  -3.323  -6.393  0.00  0.00    +0.178 C 
ATOM     25  O   UNL     1       7.003  -4.441  -5.675  0.00  0.00    -0.377 OA
ATOM     26  C   UNL     1       7.612  -4.090  -4.429  0.00  0.00    +0.178 C 
ATOM     27  C   UNL     1       6.579  -3.389  -3.543  0.00  0.00    +0.134 C 
ENDBRANCH   5  22
BRANCH   1  29
ATOM     28  C   UNL     1       7.902   4.138  -2.211  0.00  0.00    +0.007 C 
ATOM     29  C   UNL     1       6.431   3.785  -1.980  0.00  0.00    +0.032 C 
ENDBRANCH   1  29
BRANCH  12  30
ATOM     30  N   UNL     1       0.242  -0.498   1.464  0.00  0.00    -0.289 NA
ATOM     31  H   UNL     1       1.016  -1.280   1.484  0.00  0.00    +0.124 HD
BRANCH  30  32
ATOM     32  C   UNL     1      -1.002  -1.052   2.015  0.00  0.00    +0.118 C 
BRANCH  32  33
ATOM     33  C   UNL     1      -0.764  -1.513   3.429  0.00  0.00    -0.034 A 
ATOM     34  C   UNL     1      -0.356  -2.811   3.674  0.00  0.00    +0.005 A 
ATOM     35  C   UNL     1      -0.133  -3.233   4.971  0.00  0.00    +0.000 A 
ATOM     36  C   UNL     1      -0.328  -2.360   6.025  0.00  0.00    +0.000 A 
ATOM     37  C   UNL     1      -0.740  -1.063   5.781  0.00  0.00    +0.000 A 
ATOM     38  C   UNL     1      -0.959  -0.640   4.483  0.00  0.00    +0.005 A 
ENDBRANCH  32  33
ENDBRANCH  30  32
ENDBRANCH  12  30
TORSDOF 5
