REMARK  Name = ZINC21342260
REMARK  7 active torsions:
REMARK  status: ('A' for Active; 'I' for Inactive)
REMARK    1  A    between atoms: C_6  and  N_7
REMARK    2  A    between atoms: C_8  and  C_27
REMARK    3  A    between atoms: C_11  and  S_12
REMARK    4  A    between atoms: S_12  and  C_13
REMARK    5  A    between atoms: C_13  and  C_14
REMARK    6  A    between atoms: C_14  and  C_16
REMARK    7  A    between atoms: C_27  and  N_28
REMARK                            x       y       z     vdW  Elec       q    Type
REMARK                         _______ _______ _______ _____ _____    ______ ____
ROOT
ATOM      1  N   UNL     1       4.035  11.979  -0.830  0.00  0.00    -0.276 N 
ATOM      2  C   UNL     1       5.327  11.970  -1.285  0.00  0.00    +0.122 A 
ATOM      3  N   UNL     1       5.677  10.723  -1.431  0.00  0.00    -0.135 NA
ATOM      4  N   UNL     1       4.707   9.949  -1.098  0.00  0.00    -0.122 NA
ATOM      5  C   UNL     1       3.671  10.665  -0.726  0.00  0.00    +0.196 A 
ENDROOT
BRANCH   1  11
ATOM      6  C   UNL     1       2.888  13.985  -1.540  0.00  0.00    +0.029 A 
ATOM      7  C   UNL     1       2.111  15.088  -1.246  0.00  0.00    +0.040 A 
ATOM      8  C   UNL     1       1.700  15.319   0.057  0.00  0.00    +0.124 A 
ATOM      9  C   UNL     1       2.064  14.442   1.065  0.00  0.00    +0.040 A 
ATOM     10  C   UNL     1       2.837  13.335   0.773  0.00  0.00    +0.029 A 
ATOM     11  C   UNL     1       3.249  13.103  -0.532  0.00  0.00    +0.050 A 
ATOM     12  F   UNL     1       0.944  16.401   0.344  0.00  0.00    -0.205 F 
ENDBRANCH   1  11
BRANCH   5  13
ATOM     13  S   UNL     1       2.111  10.049  -0.187  0.00  0.00    -0.078 S 
BRANCH  13  14
ATOM     14  C   UNL     1       2.411   8.269  -0.326  0.00  0.00    +0.157 C 
BRANCH  14  15
ATOM     15  C   UNL     1       1.175   7.517   0.096  0.00  0.00    +0.173 C 
ATOM     16  O   UNL     1       0.188   8.125   0.455  0.00  0.00    -0.291 OA
BRANCH  15  17
ATOM     17  C   UNL     1       1.165   6.049   0.072  0.00  0.00    +0.019 A 
ATOM     18  C   UNL     1       2.302   5.345  -0.342  0.00  0.00    +0.013 A 
ATOM     19  C   UNL     1       2.291   3.980  -0.364  0.00  0.00    +0.024 A 
ATOM     20  C   UNL     1       1.152   3.281   0.025  0.00  0.00    +0.037 A 
ATOM     21  C   UNL     1       0.016   3.972   0.439  0.00  0.00    -0.025 A 
ATOM     22  C   UNL     1       0.017   5.347   0.464  0.00  0.00    +0.016 A 
ATOM     23  C   UNL     1      -1.214   3.210   0.859  0.00  0.00    +0.046 C 
ATOM     24  C   UNL     1      -1.333   1.934   0.019  0.00  0.00    +0.101 C 
ATOM     25  C   UNL     1      -0.014   1.209   0.009  0.00  0.00    +0.218 C 
ATOM     26  O   UNL     1       0.002  -0.004   0.002  0.00  0.00    -0.275 OA
ATOM     27  N   UNL     1       1.146   1.889   0.001  0.00  0.00    -0.285 N 
ATOM     28  H   UNL     1       2.097   1.335  -0.024  0.00  0.00    +0.155 HD
ENDBRANCH  15  17
ENDBRANCH  14  15
ENDBRANCH  13  14
ENDBRANCH   5  13
BRANCH   2  29
ATOM     29  C   UNL     1       6.184  13.177  -1.564  0.00  0.00    -0.001 C 
BRANCH  29  30
ATOM     30  N   UNL     1       6.923  13.545  -0.349  0.00  0.00    +0.384 N 
ATOM     31  C   UNL     1       6.008  13.996   0.707  0.00  0.00    -0.078 C 
ATOM     32  C   UNL     1       6.793  14.230   1.999  0.00  0.00    -0.019 C 
ATOM     33  C   UNL     1       7.874  15.286   1.750  0.00  0.00    -0.004 C 
ATOM     34  C   UNL     1       8.785  14.813   0.613  0.00  0.00    -0.019 C 
ATOM     35  C   UNL     1       7.941  14.562  -0.639  0.00  0.00    -0.078 C 
ATOM     36  H   UNL     1       7.441  12.647   0.018  0.00  0.00    -0.081 HD
ENDBRANCH  29  30
ENDBRANCH   2  29
TORSDOF 7
