REMARK  Name = ZINC08921872
REMARK  8 active torsions:
REMARK  status: ('A' for Active; 'I' for Inactive)
REMARK    1  A    between atoms: C_1  and  C_2
REMARK    2  A    between atoms: C_2  and  C_3
REMARK    3  A    between atoms: C_3  and  C_4
REMARK    4  A    between atoms: C_4  and  C_5
REMARK    5  A    between atoms: C_5  and  C_6
REMARK    6  A    between atoms: C_18  and  C_20
REMARK    7  A    between atoms: C_28  and  C_31
REMARK    8  A    between atoms: C_35  and  N_37
REMARK                            x       y       z     vdW  Elec       q    Type
REMARK                         _______ _______ _______ _____ _____    ______ ____
ROOT
ATOM      1  C   UNL     1       0.364   5.994  -0.845  0.00  0.00    +0.221 C 
ATOM      2  O   UNL     1       0.319   7.203  -0.760  0.00  0.00    -0.275 OA
ATOM      3  N   UNL     1      -0.095   5.230   0.166  0.00  0.00    -0.255 N 
ATOM      4  C   UNL     1      -0.037   3.839   0.055  0.00  0.00    +0.058 A 
ATOM      5  C   UNL     1       1.172   3.164   0.024  0.00  0.00    +0.025 A 
ATOM      6  C   UNL     1       1.178   1.780   0.000  0.00  0.00    +0.002 A 
ATOM      7  C   UNL     1      -0.013   1.076   0.008  0.00  0.00    +0.002 A 
ATOM      8  C   UNL     1      -1.223   1.748   0.017  0.00  0.00    +0.025 A 
ATOM      9  C   UNL     1      -1.230   3.133   0.030  0.00  0.00    +0.053 A 
ATOM     10  N   UNL     1      -2.406   3.868  -0.041  0.00  0.00    -0.316 N 
ATOM     11  C   UNL     1      -2.861   4.697   0.933  0.00  0.00    +0.017 C 
ATOM     12  C   UNL     1      -2.110   5.607   1.576  0.00  0.00    +0.040 C 
ATOM     13  C   UNL     1      -0.640   5.864   1.347  0.00  0.00    +0.182 C 
ATOM     14  C   UNL     1      -2.689   6.436   2.565  0.00  0.00    +0.163 C 
ATOM     15  O   UNL     1      -1.982   7.236   3.146  0.00  0.00    -0.292 OA
ATOM     16  C   UNL     1      -4.143   6.364   2.924  0.00  0.00    +0.088 C 
ATOM     17  C   UNL     1      -4.925   5.866   1.703  0.00  0.00    +0.032 C 
ATOM     18  C   UNL     1      -4.329   4.523   1.285  0.00  0.00    +0.059 C 
ATOM     19  H   UNL     1      -3.043   3.801  -0.935  0.00  0.00    +0.152 HD
ENDROOT
BRANCH  17  20
ATOM     20  C   UNL     1      -6.378   5.690   2.062  0.00  0.00    -0.041 A 
ATOM     21  C   UNL     1      -6.738   4.833   3.085  0.00  0.00    +0.004 A 
ATOM     22  C   UNL     1      -8.070   4.675   3.418  0.00  0.00    +0.002 A 
ATOM     23  C   UNL     1      -9.043   5.367   2.721  0.00  0.00    +0.033 A 
ATOM     24  C   UNL     1      -8.683   6.220   1.695  0.00  0.00    +0.126 A 
ATOM     25  C   UNL     1      -7.350   6.382   1.365  0.00  0.00    +0.036 A 
BRANCH  24  26
ATOM     26  N   UNL     1      -9.725   6.961   0.949  0.00  0.00    +0.056 N 
ATOM     27  O   UNL     1      -9.408   7.713   0.044  0.00  0.00    -0.126 OA
ATOM     28  O   UNL     1     -10.900   6.819   1.239  0.00  0.00    -0.126 OA
ENDBRANCH  24  26
ENDBRANCH  17  20
BRANCH  13  29
ATOM     29  C   UNL     1       0.124   5.372   2.549  0.00  0.00    +0.130 A 
ATOM     30  C   UNL     1       0.587   6.136   3.554  0.00  0.00    +0.047 A 
ATOM     31  C   UNL     1       1.238   5.269   4.462  0.00  0.00    +0.041 A 
ATOM     32  C   UNL     1       1.133   4.027   3.957  0.00  0.00    +0.195 A 
ATOM     33  O   UNL     1       0.453   4.094   2.801  0.00  0.00    -0.466 OA
ENDBRANCH  13  29
BRANCH   1  34
ATOM     34  C   UNL     1       0.934   5.346  -2.081  0.00  0.00    +0.096 C 
BRANCH  34  35
ATOM     35  C   UNL     1       1.380   6.430  -3.065  0.00  0.00    +0.009 C 
BRANCH  35  36
ATOM     36  C   UNL     1       1.959   5.772  -4.319  0.00  0.00    +0.000 C 
BRANCH  36  38
ATOM     37  C   UNL     1       2.983   6.198  -6.558  0.00  0.00    +0.004 C 
ATOM     38  C   UNL     1       2.404   6.856  -5.304  0.00  0.00    -0.003 C 
ENDBRANCH  36  38
ENDBRANCH  35  36
ENDBRANCH  34  35
ENDBRANCH   1  34
TORSDOF 7
