REMARK  Name = ZINC39638756
REMARK  9 active torsions:
REMARK  status: ('A' for Active; 'I' for Inactive)
REMARK    1  A    between atoms: C_1  and  C_2
REMARK    2  A    between atoms: C_2  and  O_3
REMARK    3  A    between atoms: O_3  and  C_4
REMARK    4  A    between atoms: C_9  and  C_10
REMARK    5  A    between atoms: C_10  and  N_11
REMARK    6  A    between atoms: C_12  and  C_14
REMARK    7  A    between atoms: C_25  and  C_27
REMARK    8  A    between atoms: C_28  and  C_38
REMARK    9  A    between atoms: C_31  and  C_32
REMARK                            x       y       z     vdW  Elec       q    Type
REMARK                         _______ _______ _______ _____ _____    ______ ____
ROOT
ATOM      1  C   UNL     1       5.325   0.475  -3.325  0.00  0.00    +0.100 C 
ATOM      2  C   UNL     1       6.290  -0.700  -3.050  0.00  0.00    +0.121 C 
ATOM      3  N   UNL     1       7.071  -0.844  -4.301  0.00  0.00    -0.296 N 
ATOM      4  C   UNL     1       7.321   0.550  -4.742  0.00  0.00    +0.115 C 
ATOM      5  C   UNL     1       6.007   1.295  -4.433  0.00  0.00    -0.004 C 
ATOM      6  C   UNL     1       6.304   2.707  -3.938  0.00  0.00    -0.010 C 
ATOM      7  C   UNL     1       6.929   3.521  -5.076  0.00  0.00    -0.082 C 
ATOM      8  N   UNL     1       6.003   3.564  -6.214  0.00  0.00    +0.379 N 
ATOM      9  C   UNL     1       5.795   2.210  -6.742  0.00  0.00    -0.082 C 
ATOM     10  C   UNL     1       5.123   1.341  -5.676  0.00  0.00    -0.010 C 
ATOM     11  C   UNL     1       7.466  -1.984  -4.902  0.00  0.00    +0.252 C 
ATOM     12  O   UNL     1       8.108  -1.936  -5.934  0.00  0.00    -0.270 OA
ATOM     13  H   UNL     1       5.119   3.945  -5.912  0.00  0.00    -0.086 HD
ATOM     14  H   UNL     1       6.390   4.151  -6.938  0.00  0.00    -0.086 HD
ENDROOT
BRANCH  11  15
ATOM     15  C   UNL     1       7.120  -3.287  -4.309  0.00  0.00    +0.106 A 
ATOM     16  C   UNL     1       6.003  -4.026  -4.565  0.00  0.00    +0.147 A 
ATOM     17  O   UNL     1       6.061  -5.140  -3.832  0.00  0.00    -0.359 OA
ATOM     18  N   UNL     1       7.251  -5.140  -3.068  0.00  0.00    -0.077 NA
ATOM     19  C   UNL     1       7.917  -4.045  -3.333  0.00  0.00    +0.126 A 
ATOM     20  C   UNL     1       4.894  -3.650  -5.513  0.00  0.00    +0.090 C 
BRANCH  19  21
ATOM     21  C   UNL     1       9.222  -3.643  -2.755  0.00  0.00    +0.004 A 
ATOM     22  C   UNL     1      10.143  -2.939  -3.529  0.00  0.00    +0.010 A 
ATOM     23  C   UNL     1      11.356  -2.568  -2.986  0.00  0.00    +0.001 A 
ATOM     24  C   UNL     1      11.659  -2.893  -1.677  0.00  0.00    +0.000 A 
ATOM     25  C   UNL     1      10.750  -3.593  -0.904  0.00  0.00    +0.001 A 
ATOM     26  C   UNL     1       9.531  -3.964  -1.434  0.00  0.00    +0.010 A 
ENDBRANCH  19  21
ENDBRANCH  11  15
BRANCH   1  28
ATOM     27  N   UNL     1       2.880   0.700  -3.621  0.00  0.00    -0.311 N 
ATOM     28  C   UNL     1       3.991  -0.042  -3.799  0.00  0.00    +0.218 C 
ATOM     29  O   UNL     1       3.918  -1.124  -4.341  0.00  0.00    -0.275 OA
ATOM     30  H   UNL     1       2.939   1.565  -3.188  0.00  0.00    +0.149 HD
BRANCH  27  31
ATOM     31  C   UNL     1       1.583   0.198  -4.082  0.00  0.00    +0.143 C 
BRANCH  31  37
ATOM     32  C   UNL     1       0.336   2.314  -4.585  0.00  0.00    +0.125 A 
ATOM     33  C   UNL     1      -0.655   3.240  -4.294  0.00  0.00    +0.046 A 
ATOM     34  C   UNL     1      -1.460   3.063  -3.186  0.00  0.00    +0.004 A 
ATOM     35  C   UNL     1      -1.280   1.963  -2.368  0.00  0.00    +0.001 A 
ATOM     36  C   UNL     1      -0.293   1.039  -2.656  0.00  0.00    +0.009 A 
ATOM     37  C   UNL     1       0.512   1.209  -3.766  0.00  0.00    +0.011 A 
BRANCH  32  38
ATOM     38  O   UNL     1       1.130   2.486  -5.675  0.00  0.00    -0.492 OA
BRANCH  38  40
ATOM     39  C   UNL     1       1.875   3.670  -7.646  0.00  0.00    +0.048 C 
ATOM     40  C   UNL     1       0.892   3.647  -6.474  0.00  0.00    +0.225 C 
ENDBRANCH  38  40
ENDBRANCH  32  38
ENDBRANCH  31  37
ENDBRANCH  27  31
ENDBRANCH   1  28
TORSDOF 7
