REMARK  Name = ZINC16461722
REMARK  5 active torsions:
REMARK  status: ('A' for Active; 'I' for Inactive)
REMARK    1  A    between atoms: C_1  and  C_2
REMARK    2  A    between atoms: C_2  and  C_4
REMARK    3  A    between atoms: C_2  and  O_17
REMARK    4  A    between atoms: O_17  and  C_18
REMARK    5  A    between atoms: C_25  and  C_30
REMARK                            x       y       z     vdW  Elec       q    Type
REMARK                         _______ _______ _______ _____ _____    ______ ____
ROOT
ATOM      1  C   UNL     1       2.256   0.860   0.679  0.00  0.00    +0.143 A 
ATOM      2  C   UNL     1       1.901  -0.349   1.253  0.00  0.00    +0.094 A 
ATOM      3  C   UNL     1       2.849  -1.088   1.946  0.00  0.00    +0.143 A 
ATOM      4  C   UNL     1       4.159  -0.592   2.063  0.00  0.00    +0.027 A 
ATOM      5  C   UNL     1       4.500   0.632   1.483  0.00  0.00    +0.035 A 
ATOM      6  C   UNL     1       3.556   1.347   0.800  0.00  0.00    +0.083 A 
ATOM      7 CL   UNL     1       3.980   2.868   0.079  0.00  0.00    -0.080 Cl
ATOM      8  C   UNL     1       5.155  -1.382   2.806  0.00  0.00    -0.000 A 
ATOM      9  C   UNL     1       4.747  -2.583   3.355  0.00  0.00    +0.101 A 
ATOM     10  C   UNL     1       3.417  -3.005   3.188  0.00  0.00    +0.338 A 
ATOM     11  O   UNL     1       3.067  -4.065   3.675  0.00  0.00    -0.245 OA
ATOM     12  O   UNL     1       2.522  -2.272   2.508  0.00  0.00    -0.422 OA
ENDROOT
BRANCH   8  13
ATOM     13  C   UNL     1       6.547  -0.906   2.959  0.00  0.00    -0.017 A 
ATOM     14  C   UNL     1       7.271  -0.485   1.843  0.00  0.00    +0.008 A 
ATOM     15  C   UNL     1       8.567  -0.036   1.994  0.00  0.00    +0.001 A 
ATOM     16  C   UNL     1       9.153  -0.014   3.247  0.00  0.00    +0.000 A 
ATOM     17  C   UNL     1       8.443  -0.435   4.357  0.00  0.00    +0.001 A 
ATOM     18  C   UNL     1       7.144  -0.880   4.221  0.00  0.00    +0.008 A 
ENDBRANCH   8  13
BRANCH   1  19
ATOM     19  O   UNL     1       1.328   1.580  -0.002  0.00  0.00    -0.478 OA
BRANCH  19  21
ATOM     20  C   UNL     1      -0.825   1.238   1.042  0.00  0.00    +0.062 C 
ATOM     21  C   UNL     1       0.046   0.976  -0.188  0.00  0.00    +0.256 C 
BRANCH  21  22
ATOM     22  C   UNL     1      -0.615   1.567  -1.407  0.00  0.00    +0.261 C 
ATOM     23  O   UNL     1      -0.045   2.421  -2.053  0.00  0.00    -0.271 OA
ATOM     24  N   UNL     1      -1.840   1.145  -1.779  0.00  0.00    -0.258 N 
ATOM     25  C   UNL     1      -2.552   0.111  -1.014  0.00  0.00    +0.209 C 
ATOM     26  C   UNL     1      -3.209  -0.847  -1.975  0.00  0.00    +0.235 C 
ATOM     27  O   UNL     1      -3.383  -2.001  -1.645  0.00  0.00    -0.274 OA
ATOM     28  N   UNL     1      -3.604  -0.437  -3.195  0.00  0.00    -0.283 N 
ATOM     29  C   UNL     1      -3.371   0.876  -3.619  0.00  0.00    +0.055 A 
ATOM     30  C   UNL     1      -2.479   1.684  -2.907  0.00  0.00    +0.058 A 
ATOM     31  C   UNL     1      -2.236   2.983  -3.313  0.00  0.00    +0.025 A 
ATOM     32  C   UNL     1      -2.886   3.487  -4.427  0.00  0.00    +0.002 A 
ATOM     33  C   UNL     1      -3.775   2.696  -5.130  0.00  0.00    +0.002 A 
ATOM     34  C   UNL     1      -4.015   1.385  -4.735  0.00  0.00    +0.025 A 
ATOM     35  H   UNL     1      -4.056  -1.059  -3.786  0.00  0.00    +0.155 HD
ENDBRANCH  21  22
ENDBRANCH  19  21
ENDBRANCH   1  19
TORSDOF 4
