REMARK  Name = ZINC20782220
REMARK  7 active torsions:
REMARK  status: ('A' for Active; 'I' for Inactive)
REMARK    1  A    between atoms: C_1  and  C_2
REMARK    2  A    between atoms: C_6  and  C_8
REMARK    3  A    between atoms: C_10  and  C_13
REMARK    4  A    between atoms: C_13  and  N_14
REMARK    5  A    between atoms: N_14  and  C_15
REMARK    6  A    between atoms: N_14  and  C_16
REMARK    7  A    between atoms: N_17  and  C_19
REMARK                            x       y       z     vdW  Elec       q    Type
REMARK                         _______ _______ _______ _____ _____    ______ ____
ROOT
ATOM      1  C   UNL     1      -0.018   1.503   0.010  0.00  0.00    +0.070 C 
ATOM      2  C   UNL     1       0.002  -0.004   0.002  0.00  0.00    +0.087 A 
ATOM      3  C   UNL     1       0.008  -0.823  -1.148  0.00  0.00    +0.131 A 
ATOM      4  C   UNL     1       0.028  -2.142  -0.710  0.00  0.00    +0.157 A 
ATOM      5  N   UNL     1       0.034  -2.929  -1.837  0.00  0.00    -0.323 N 
ATOM      6  C   UNL     1       0.017  -2.090  -2.922  0.00  0.00    +0.147 A 
ATOM      7  N   UNL     1       0.001  -0.845  -2.506  0.00  0.00    -0.224 NA
ATOM      8  N   UNL     1       0.035  -2.112   0.650  0.00  0.00    -0.243 N 
ATOM      9  N   UNL     1       0.023  -0.772   1.057  0.00  0.00    -0.172 NA
ATOM     10  H   UNL     1       0.048  -3.898  -1.860  0.00  0.00    +0.169 HD
ENDROOT
BRANCH   6  11
ATOM     11  C   UNL     1       0.017  -2.518  -4.330  0.00  0.00    +0.055 A 
ATOM     12  C   UNL     1       0.007  -1.750  -5.467  0.00  0.00    +0.021 A 
ATOM     13  C   UNL     1       0.009  -2.381  -6.690  0.00  0.00    -0.056 A 
ATOM     14  C   UNL     1       0.021  -3.739  -6.735  0.00  0.00    +0.047 A 
ATOM     15  S   UNL     1       0.038  -4.171  -5.003  0.00  0.00    -0.093 S 
BRANCH  13  16
ATOM     16  C   UNL     1      -0.003  -1.575  -7.963  0.00  0.00    -0.043 C 
BRANCH  16  17
ATOM     17  N   UNL     1       1.378  -1.300  -8.382  0.00  0.00    +0.379 N 
ATOM     18  C   UNL     1       1.370  -0.620  -9.684  0.00  0.00    -0.096 C 
ATOM     19  C   UNL     1       2.030  -0.441  -7.384  0.00  0.00    -0.096 C 
ATOM     20  H   UNL     1       1.885  -2.169  -8.460  0.00  0.00    -0.082 HD
ENDBRANCH  16  17
ENDBRANCH  13  16
ENDBRANCH   6  11
BRANCH   8  21
ATOM     21  C   UNL     1       0.055  -3.279   1.535  0.00  0.00    +0.109 C 
ATOM     22  C   UNL     1      -1.158  -3.242   2.487  0.00  0.00    +0.027 C 
ATOM     23  C   UNL     1      -0.608  -3.792   3.826  0.00  0.00    +0.002 C 
ATOM     24  C   UNL     1       0.817  -3.188   3.884  0.00  0.00    +0.002 C 
ATOM     25  C   UNL     1       1.311  -3.245   2.423  0.00  0.00    +0.027 C 
ENDBRANCH   8  21
TORSDOF 4
