REMARK  Name = ZINC20735293
REMARK  9 active torsions:
REMARK  status: ('A' for Active; 'I' for Inactive)
REMARK    1  A    between atoms: C_1  and  C_2
REMARK    2  A    between atoms: C_2  and  N_3
REMARK    3  A    between atoms: C_7  and  C_9
REMARK    4  A    between atoms: C_9  and  N_10
REMARK    5  A    between atoms: C_11  and  C_13
REMARK    6  A    between atoms: C_16  and  C_19
REMARK    7  A    between atoms: N_23  and  C_31
REMARK    8  A    between atoms: C_31  and  C_32
REMARK    9  A    between atoms: C_36  and  C_38
REMARK                            x       y       z     vdW  Elec       q    Type
REMARK                         _______ _______ _______ _____ _____    ______ ____
ROOT
ATOM      1  C   UNL     1      -8.080   1.568  -2.736  0.00  0.00    +0.028 C 
ATOM      2  C   UNL     1      -9.070   0.700  -3.061  0.00  0.00    +0.076 C 
ATOM      3  C   UNL     1      -9.252  -0.586  -2.345  0.00  0.00    +0.258 C 
ATOM      4  O   UNL     1      -8.296  -1.127  -1.823  0.00  0.00    -0.269 OA
ATOM      5  N   UNL     1     -10.463  -1.150  -2.267  0.00  0.00    -0.262 N 
ATOM      6  C   UNL     1     -11.658  -0.619  -2.730  0.00  0.00    +0.051 A 
ATOM      7  C   UNL     1     -12.853  -1.114  -2.207  0.00  0.00    +0.024 A 
ATOM      8  C   UNL     1     -14.064  -0.612  -2.634  0.00  0.00    +0.002 A 
ATOM      9  C   UNL     1     -14.113   0.390  -3.587  0.00  0.00    +0.001 A 
ATOM     10  C   UNL     1     -12.939   0.891  -4.117  0.00  0.00    +0.017 A 
ATOM     11  C   UNL     1     -11.719   0.391  -3.692  0.00  0.00    +0.034 A 
ATOM     12  S   UNL     1     -10.218   1.032  -4.372  0.00  0.00    -0.082 S 
ENDROOT
BRANCH   1  16
ATOM     13  C   UNL     1      -5.755   0.924   0.742  0.00  0.00    +0.037 A 
ATOM     14  C   UNL     1      -5.141   1.350  -0.440  0.00  0.00    +0.013 A 
ATOM     15  C   UNL     1      -5.889   1.553  -1.564  0.00  0.00    +0.009 A 
ATOM     16  C   UNL     1      -7.274   1.345  -1.530  0.00  0.00    -0.024 A 
ATOM     17  C   UNL     1      -7.889   0.923  -0.343  0.00  0.00    +0.009 A 
ATOM     18  C   UNL     1      -7.138   0.716   0.777  0.00  0.00    +0.013 A 
BRANCH  13  20
ATOM     19  N   UNL     1      -3.612   0.900   1.921  0.00  0.00    -0.313 N 
ATOM     20  C   UNL     1      -4.945   0.700   1.955  0.00  0.00    +0.244 C 
ATOM     21  O   UNL     1      -5.479   0.334   2.984  0.00  0.00    -0.270 OA
ATOM     22  H   UNL     1      -3.129   1.231   0.990  0.00  0.00    +0.149 HD
BRANCH  19  23
ATOM     23  C   UNL     1      -2.808   0.677   3.125  0.00  0.00    +0.089 C 
BRANCH  23  28
ATOM     24  N   UNL     1      -0.559   1.025   4.104  0.00  0.00    +0.382 N 
ATOM     25  C   UNL     1       0.845   0.907   3.634  0.00  0.00    -0.078 C 
ATOM     26  C   UNL     1       0.771  -0.044   2.420  0.00  0.00    -0.020 C 
ATOM     27  C   UNL     1      -0.679   0.074   1.907  0.00  0.00    -0.016 C 
ATOM     28  C   UNL     1      -1.359   1.087   2.853  0.00  0.00    -0.051 C 
ATOM     29  H   UNL     1      -0.860   0.195   4.760  0.00  0.00    -0.081 HD
BRANCH  24  31
ATOM     30  C   UNL     1      -0.241   1.993   6.331  0.00  0.00    -0.017 C 
ATOM     31  C   UNL     1      -0.745   2.241   4.907  0.00  0.00    -0.082 C 
ENDBRANCH  24  31
ENDBRANCH  23  28
ENDBRANCH  19  23
ENDBRANCH  13  20
ENDBRANCH   1  16
BRANCH   5  32
ATOM     32  C   UNL     1     -10.531  -2.469  -1.632  0.00  0.00    +0.149 C 
BRANCH  32  33
ATOM     33  C   UNL     1     -10.488  -3.540  -2.691  0.00  0.00    -0.029 A 
ATOM     34  C   UNL     1      -9.273  -4.057  -3.101  0.00  0.00    +0.005 A 
ATOM     35  C   UNL     1      -9.233  -5.040  -4.072  0.00  0.00    +0.001 A 
ATOM     36  C   UNL     1     -10.408  -5.506  -4.633  0.00  0.00    +0.003 A 
ATOM     37  C   UNL     1     -11.622  -4.989  -4.223  0.00  0.00    -0.050 A 
ATOM     38  C   UNL     1     -11.662  -4.009  -3.248  0.00  0.00    +0.008 A 
ATOM     39  C   UNL     1     -12.903  -5.497  -4.834  0.00  0.00    +0.044 C 
ENDBRANCH  32  33
ENDBRANCH   5  32
TORSDOF 7
