REMARK  Name = ZINC21237678
REMARK  9 active torsions:
REMARK  status: ('A' for Active; 'I' for Inactive)
REMARK    1  A    between atoms: C_1  and  C_2
REMARK    2  A    between atoms: C_9  and  C_16
REMARK    3  A    between atoms: C_11  and  O_12
REMARK    4  A    between atoms: C_16  and  O_17
REMARK    5  A    between atoms: O_17  and  C_18
REMARK    6  A    between atoms: C_18  and  C_20
REMARK    7  A    between atoms: C_20  and  C_21
REMARK    8  A    between atoms: C_21  and  S_22
REMARK    9  A    between atoms: S_22  and  C_23
REMARK                            x       y       z     vdW  Elec       q    Type
REMARK                         _______ _______ _______ _____ _____    ______ ____
ROOT
ATOM      1  C   UNL     1      11.990  11.370   0.341  0.00  0.00    +0.109 C 
ATOM      2  C   UNL     1      10.635  10.720   0.452  0.00  0.00    +0.214 C 
ATOM      3  O   UNL     1       9.722  11.309   0.990  0.00  0.00    -0.276 OA
ATOM      4  N   UNL     1      10.438   9.483  -0.046  0.00  0.00    -0.286 N 
ATOM      5  C   UNL     1       9.160   8.925  -0.042  0.00  0.00    +0.037 A 
ATOM      6  C   UNL     1       9.005   7.550   0.135  0.00  0.00    +0.024 A 
ATOM      7  C   UNL     1       7.761   6.989   0.141  0.00  0.00    +0.014 A 
ATOM      8  C   UNL     1       6.632   7.800  -0.026  0.00  0.00    +0.024 A 
ATOM      9  C   UNL     1       5.286   7.224  -0.030  0.00  0.00    +0.007 A 
ATOM     10  C   UNL     1       4.230   8.062  -0.202  0.00  0.00    +0.095 A 
ATOM     11  C   UNL     1       4.452   9.443  -0.376  0.00  0.00    +0.285 A 
ATOM     12  O   UNL     1       5.689   9.964  -0.377  0.00  0.00    -0.425 OA
ATOM     13  C   UNL     1       6.781   9.187  -0.211  0.00  0.00    +0.141 A 
ATOM     14  C   UNL     1       8.052   9.741  -0.214  0.00  0.00    +0.070 A 
ATOM     15  H   UNL     1      11.286   8.914  -0.456  0.00  0.00    +0.155 HD
ENDROOT
BRANCH  11  16
ATOM     16  O   UNL     1       3.497  10.183  -0.530  0.00  0.00    -0.480 OA
ATOM     17  H   UNL     1       3.654  11.263  -0.667  0.00  0.00    +0.295 HD
ENDBRANCH  11  16
BRANCH   9  18
ATOM     18  C   UNL     1       5.076   5.744   0.159  0.00  0.00    +0.268 C 
BRANCH  18  19
ATOM     19  O   UNL     1       3.656   5.447   0.119  0.00  0.00    -0.460 OA
BRANCH  19  20
ATOM     20  C   UNL     1       3.297   4.163   0.273  0.00  0.00    +0.308 C 
ATOM     21  O   UNL     1       4.142   3.314   0.435  0.00  0.00    -0.251 OA
BRANCH  20  22
ATOM     22  C   UNL     1       1.840   3.779   0.243  0.00  0.00    +0.131 C 
BRANCH  22  23
ATOM     23  C   UNL     1       1.707   2.267   0.440  0.00  0.00    +0.085 C 
BRANCH  23  24
ATOM     24  S   UNL     1      -0.047   1.805   0.404  0.00  0.00    -0.123 S 
BRANCH  24  25
ATOM     25  C   UNL     1      -0.032   0.059   0.641  0.00  0.00    +0.026 A 
ATOM     26  C   UNL     1       1.174  -0.613   0.794  0.00  0.00    +0.016 A 
ATOM     27  C   UNL     1       1.182  -1.981   0.984  0.00  0.00    +0.001 A 
ATOM     28  C   UNL     1      -0.009  -2.684   1.012  0.00  0.00    +0.001 A 
ATOM     29  C   UNL     1      -1.212  -2.020   0.856  0.00  0.00    +0.021 A 
ATOM     30  C   UNL     1      -1.228  -0.651   0.670  0.00  0.00    +0.054 A 
ATOM     31 CL   UNL     1      -2.738   0.182   0.473  0.00  0.00    -0.082 Cl
ENDBRANCH  24  25
ENDBRANCH  23  24
ENDBRANCH  22  23
ENDBRANCH  20  22
ENDBRANCH  19  20
ENDBRANCH  18  19
ENDBRANCH   9  18
TORSDOF 8
