REMARK  Name = ZINC28116401
REMARK  8 active torsions:
REMARK  status: ('A' for Active; 'I' for Inactive)
REMARK    1  A    between atoms: C_1  and  C_2
REMARK    2  A    between atoms: C_7  and  N_8
REMARK    3  A    between atoms: N_8  and  C_9
REMARK    4  A    between atoms: N_12  and  S_13
REMARK    5  A    between atoms: S_13  and  C_16
REMARK    6  A    between atoms: C_18  and  C_24
REMARK    7  A    between atoms: C_19  and  C_23
REMARK    8  A    between atoms: C_21  and  C_22
REMARK                            x       y       z     vdW  Elec       q    Type
REMARK                         _______ _______ _______ _____ _____    ______ ____
ROOT
ATOM      1  C   UNL     1       0.107  -0.643   3.650  0.00  0.00    +0.081 C 
ATOM      2  C   UNL     1       0.214  -1.989   3.710  0.00  0.00    +0.057 C 
ATOM      3  C   UNL     1       0.302  -2.679   5.002  0.00  0.00    +0.095 C 
ATOM      4  N   UNL     1       0.405  -3.981   5.044  0.00  0.00    -0.128 NA
ATOM      5  C   UNL     1       0.274  -1.895   6.260  0.00  0.00    +0.013 A 
ATOM      6  C   UNL     1       0.357  -2.527   7.494  0.00  0.00    +0.011 A 
ATOM      7  C   UNL     1       0.329  -1.774   8.655  0.00  0.00    +0.001 A 
ATOM      8  C   UNL     1       0.220  -0.396   8.596  0.00  0.00    +0.001 A 
ATOM      9  C   UNL     1       0.136   0.248   7.376  0.00  0.00    +0.012 A 
ATOM     10  C   UNL     1       0.163  -0.496   6.198  0.00  0.00    +0.033 A 
ATOM     11  C   UNL     1       0.082   0.168   4.883  0.00  0.00    +0.208 C 
ATOM     12  O   UNL     1      -0.009   1.379   4.814  0.00  0.00    -0.285 OA
ENDROOT
BRANCH   4  13
ATOM     13  S   UNL     1       0.437  -4.855   3.638  0.00  0.00    +0.099 S 
ATOM     14  O   UNL     1      -0.841  -4.700   3.035  0.00  0.00    -0.146 OA
ATOM     15  O   UNL     1       1.641  -4.506   2.970  0.00  0.00    -0.146 OA
BRANCH  13  16
ATOM     16  C   UNL     1       0.582  -6.553   4.083  0.00  0.00    +0.116 A 
ATOM     17  C   UNL     1      -0.443  -7.434   3.791  0.00  0.00    +0.033 A 
ATOM     18  C   UNL     1      -0.330  -8.767   4.140  0.00  0.00    -0.046 A 
ATOM     19  C   UNL     1       0.809  -9.219   4.780  0.00  0.00    -0.047 A 
ATOM     20  C   UNL     1       1.835  -8.338   5.071  0.00  0.00    +0.009 A 
ATOM     21  C   UNL     1       1.723  -7.006   4.718  0.00  0.00    -0.023 A 
ATOM     22  C   UNL     1       2.842  -6.048   5.030  0.00  0.00    +0.046 C 
ATOM     23  C   UNL     1       0.933 -10.672   5.162  0.00  0.00    +0.044 C 
ATOM     24  C   UNL     1      -1.447  -9.727   3.824  0.00  0.00    +0.044 C 
ENDBRANCH  13  16
ENDBRANCH   4  13
BRANCH   1  25
ATOM     25  N   UNL     1       0.025  -0.017   2.415  0.00  0.00    -0.311 N 
ATOM     26  H   UNL     1       0.744  -0.118   1.771  0.00  0.00    +0.152 HD
BRANCH  25  33
ATOM     27  C   UNL     1       0.065   1.462  -0.015  0.00  0.00    +0.045 C 
ATOM     28  C   UNL     1      -1.115   1.498   0.922  0.00  0.00    -0.029 A 
ATOM     29  C   UNL     1      -2.223   2.261   0.610  0.00  0.00    +0.005 A 
ATOM     30  C   UNL     1      -3.306   2.295   1.470  0.00  0.00    +0.000 A 
ATOM     31  C   UNL     1      -3.283   1.565   2.645  0.00  0.00    +0.002 A 
ATOM     32  C   UNL     1      -2.179   0.801   2.964  0.00  0.00    +0.023 A 
ATOM     33  C   UNL     1      -1.091   0.760   2.099  0.00  0.00    +0.034 A 
ENDBRANCH  25  33
ENDBRANCH   1  25
TORSDOF 4
