REMARK  Name = ZINC58196677
REMARK  11 active torsions:
REMARK  status: ('A' for Active; 'I' for Inactive)
REMARK    1  A    between atoms: C_1  and  C_2
REMARK    2  A    between atoms: C_3  and  C_30
REMARK    3  A    between atoms: C_7  and  N_19
REMARK    4  A    between atoms: C_9  and  C_11
REMARK    5  A    between atoms: C_11  and  N_12
REMARK    6  A    between atoms: C_15  and  C_18
REMARK    7  A    between atoms: N_19  and  C_20
REMARK    8  A    between atoms: C_20  and  C_21
REMARK    9  A    between atoms: N_25  and  C_27
REMARK   10  A    between atoms: C_27  and  C_28
REMARK   11  A    between atoms: C_27  and  C_29
REMARK                            x       y       z     vdW  Elec       q    Type
REMARK                         _______ _______ _______ _____ _____    ______ ____
ROOT
ATOM      1  C   UNL     1      -0.556   1.486   0.114  0.00  0.00    +0.045 C 
ATOM      2  C   UNL     1      -0.484  -0.020   0.096  0.00  0.00    -0.028 A 
ATOM      3  C   UNL     1      -0.771  -0.699  -1.024  0.00  0.00    -0.008 A 
ATOM      4  S   UNL     1      -0.546  -2.402  -0.548  0.00  0.00    -0.074 S 
ATOM      5  C   UNL     1      -0.073  -2.156   1.143  0.00  0.00    +0.114 A 
ATOM      6  C   UNL     1      -0.097  -0.751   1.289  0.00  0.00    +0.051 A 
ATOM      7  C   UNL     1       0.255  -0.267   2.579  0.00  0.00    +0.131 A 
ATOM      8  N   UNL     1       0.577  -1.132   3.527  0.00  0.00    -0.219 NA
ATOM      9  C   UNL     1       0.583  -2.436   3.318  0.00  0.00    +0.116 A 
ATOM     10  N   UNL     1       0.256  -2.946   2.146  0.00  0.00    -0.227 NA
ATOM     11  C   UNL     1      -1.185  -0.153  -2.366  0.00  0.00    +0.052 C 
ENDROOT
BRANCH   7  12
ATOM     12  N   UNL     1       0.262   1.092   2.839  0.00  0.00    -0.328 N 
ATOM     13  H   UNL     1       0.110   1.724   2.119  0.00  0.00    +0.147 HD
BRANCH  12  14
ATOM     14  C   UNL     1       0.498   1.576   4.201  0.00  0.00    +0.104 C 
BRANCH  14  15
ATOM     15  C   UNL     1       0.454   3.105   4.214  0.00  0.00    -0.012 C 
ATOM     16  C   UNL     1      -0.987   3.615   3.947  0.00  0.00    -0.015 C 
ATOM     17  C   UNL     1      -0.965   4.997   4.647  0.00  0.00    -0.078 C 
ATOM     18  N   UNL     1      -0.140   4.794   5.857  0.00  0.00    +0.381 N 
ATOM     19  C   UNL     1       0.763   3.648   5.625  0.00  0.00    -0.074 C 
ATOM     20  H   UNL     1      -0.737   4.603   6.647  0.00  0.00    -0.081 HD
BRANCH  18  21
ATOM     21  C   UNL     1       0.656   6.001   6.120  0.00  0.00    -0.075 C 
ATOM     22  C   UNL     1      -0.281   7.184   6.372  0.00  0.00    -0.014 C 
ATOM     23  C   UNL     1       1.534   5.774   7.352  0.00  0.00    -0.014 C 
ENDBRANCH  18  21
ENDBRANCH  14  15
ENDBRANCH  12  14
ENDBRANCH   7  12
BRANCH   9  24
ATOM     24  C   UNL     1       0.960  -3.362   4.445  0.00  0.00    -0.001 C 
BRANCH  24  25
ATOM     25  N   UNL     1      -0.245  -3.731   5.199  0.00  0.00    +0.384 N 
ATOM     26  C   UNL     1      -1.144  -4.505   4.335  0.00  0.00    -0.078 C 
ATOM     27  C   UNL     1      -2.436  -4.822   5.090  0.00  0.00    -0.016 C 
ATOM     28  C   UNL     1      -2.102  -5.639   6.342  0.00  0.00    -0.018 C 
ATOM     29  C   UNL     1      -1.106  -4.854   7.200  0.00  0.00    -0.016 C 
ATOM     30  C   UNL     1       0.137  -4.535   6.367  0.00  0.00    -0.078 C 
ATOM     31  C   UNL     1      -3.380  -5.893   7.144  0.00  0.00    +0.007 C 
ATOM     32  H   UNL     1      -0.717  -2.894   5.509  0.00  0.00    -0.081 HD
ENDBRANCH  24  25
ENDBRANCH   9  24
TORSDOF 6
