REMARK  Name = ZINC36936300
REMARK  6 active torsions:
REMARK  status: ('A' for Active; 'I' for Inactive)
REMARK    1  A    between atoms: C_1  and  C_2
REMARK    2  A    between atoms: C_2  and  C_3
REMARK    3  A    between atoms: C_2  and  C_4
REMARK    4  A    between atoms: C_2  and  C_5
REMARK    5  A    between atoms: C_6  and  C_12
REMARK    6  A    between atoms: C_7  and  N_11
REMARK                            x       y       z     vdW  Elec       q    Type
REMARK                         _______ _______ _______ _____ _____    ______ ____
ROOT
ATOM      1  C   UNL     1       0.124  -0.584  -1.920  0.00  0.00    +0.078 A 
ATOM      2  C   UNL     1       0.842  -1.768  -1.662  0.00  0.00    +0.045 A 
ATOM      3  C   UNL     1       2.100  -1.614  -2.217  0.00  0.00    +0.120 A 
ATOM      4  N   UNL     1       2.140  -0.388  -2.786  0.00  0.00    -0.264 N 
ATOM      5  H   UNL     1       2.898  -0.003  -3.253  0.00  0.00    +0.190 HD
ATOM      6  N   UNL     1       0.898   0.226  -2.591  0.00  0.00    -0.176 NA
ENDROOT
BRANCH   2   7
ATOM      7  C   UNL     1       0.343  -2.958  -0.931  0.00  0.00    -0.009 A 
ATOM      8  C   UNL     1       0.777  -3.212   0.369  0.00  0.00    +0.012 A 
ATOM      9  C   UNL     1       0.312  -4.321   1.047  0.00  0.00    +0.050 A 
ATOM     10  C   UNL     1      -0.588  -5.185   0.439  0.00  0.00    +0.162 A 
ATOM     11  C   UNL     1      -1.026  -4.935  -0.857  0.00  0.00    +0.163 A 
ATOM     12  C   UNL     1      -0.565  -3.821  -1.540  0.00  0.00    +0.058 A 
ATOM     13  O   UNL     1      -1.914  -5.768  -1.465  0.00  0.00    -0.485 OA
ATOM     14  C   UNL     1      -2.073  -7.070  -0.891  0.00  0.00    +0.270 C 
ATOM     15  C   UNL     1      -2.214  -6.911   0.629  0.00  0.00    +0.270 C 
ATOM     16  O   UNL     1      -1.030  -6.275   1.125  0.00  0.00    -0.485 OA
ENDBRANCH   2   7
BRANCH   1  18
ATOM     17  C   UNL     1      -1.642   1.153  -1.814  0.00  0.00    +0.017 C 
ATOM     18  C   UNL     1      -1.296  -0.304  -1.500  0.00  0.00    +0.007 C 
ATOM     19  C   UNL     1      -1.441  -0.550   0.003  0.00  0.00    +0.017 C 
ATOM     20  C   UNL     1      -2.246  -1.230  -2.262  0.00  0.00    +0.017 C 
ENDBRANCH   1  18
BRANCH   3  21
ATOM     21  N   UNL     1       3.131  -2.545  -2.193  0.00  0.00    -0.343 N 
ATOM     22  H   UNL     1       3.001  -3.401  -1.756  0.00  0.00    +0.144 HD
ATOM     23  H   UNL     1       3.980  -2.339  -2.614  0.00  0.00    +0.144 HD
ENDBRANCH   3  21
TORSDOF 3
