REMARK  Name = ZINC33069033
REMARK  11 active torsions:
REMARK  status: ('A' for Active; 'I' for Inactive)
REMARK    1  A    between atoms: C_1  and  C_2
REMARK    2  A    between atoms: C_2  and  C_3
REMARK    3  A    between atoms: C_2  and  C_4
REMARK    4  A    between atoms: C_4  and  N_5
REMARK    5  A    between atoms: N_5  and  C_6
REMARK    6  A    between atoms: N_5  and  C_16
REMARK    7  A    between atoms: C_6  and  C_7
REMARK    8  A    between atoms: C_10  and  C_13
REMARK    9  A    between atoms: C_13  and  C_14
REMARK   10  A    between atoms: C_13  and  C_15
REMARK   11  A    between atoms: C_16  and  C_17
REMARK                            x       y       z     vdW  Elec       q    Type
REMARK                         _______ _______ _______ _____ _____    ______ ____
ROOT
ATOM      1  C   UNL     1      -1.897   1.307  -1.418  0.00  0.00    +0.138 C 
ENDROOT
BRANCH   1   2
ATOM      2  C   UNL     1      -0.502   1.632  -1.887  0.00  0.00    +0.037 A 
ATOM      3  C   UNL     1      -0.292   2.188  -3.131  0.00  0.00    +0.093 A 
ATOM      4  C   UNL     1       1.006   2.481  -3.549  0.00  0.00    +0.259 A 
ATOM      5  O   UNL     1       1.198   2.974  -4.649  0.00  0.00    -0.267 OA
ATOM      6  N   UNL     1       2.063   2.217  -2.723  0.00  0.00    -0.260 N 
ATOM      7  C   UNL     1       3.397   2.460  -3.017  0.00  0.00    +0.039 A 
ATOM      8  C   UNL     1       4.319   2.145  -2.098  0.00  0.00    +0.013 A 
ATOM      9  S   UNL     1       3.367   1.482  -0.755  0.00  0.00    -0.056 S 
ATOM     10  C   UNL     1       1.764   1.666  -1.509  0.00  0.00    +0.159 A 
ATOM     11  N   UNL     1       0.548   1.392  -1.106  0.00  0.00    -0.337 N 
ATOM     12  C   UNL     1       5.801   2.312  -2.187  0.00  0.00    +0.044 C 
ATOM     13  C   UNL     1       6.172   2.576  -3.654  0.00  0.00    +0.006 C 
ATOM     14  C   UNL     1       5.228   3.646  -4.211  0.00  0.00    +0.006 C 
ATOM     15  C   UNL     1       3.818   3.073  -4.352  0.00  0.00    +0.055 C 
ATOM     16  H   UNL     1       0.411   1.005  -0.227  0.00  0.00    +0.168 HD
ENDBRANCH   1   2
BRANCH   1  17
ATOM     17  N   UNL     1      -2.081  -0.150  -1.401  0.00  0.00    -0.292 NA
BRANCH  17  18
ATOM     18  C   UNL     1      -1.462  -0.745  -0.209  0.00  0.00    +0.088 C 
BRANCH  18  20
ATOM     19  C   UNL     1       0.113  -2.072  -1.623  0.00  0.00    +0.008 C 
ATOM     20  C   UNL     1      -0.966  -2.154  -0.541  0.00  0.00    -0.003 C 
ATOM     21  C   UNL     1      -0.380  -2.798   0.717  0.00  0.00    +0.008 C 
ENDBRANCH  18  20
ENDBRANCH  17  18
BRANCH  17  22
ATOM     22  C   UNL     1      -3.505  -0.502  -1.486  0.00  0.00    +0.120 C 
BRANCH  22  23
ATOM     23  C   UNL     1      -3.643  -1.930  -1.947  0.00  0.00    -0.033 A 
ATOM     24  C   UNL     1      -3.581  -2.229  -3.295  0.00  0.00    +0.005 A 
ATOM     25  C   UNL     1      -3.708  -3.539  -3.719  0.00  0.00    +0.004 A 
ATOM     26  C   UNL     1      -3.896  -4.549  -2.794  0.00  0.00    -0.045 A 
ATOM     27  C   UNL     1      -3.957  -4.250  -1.446  0.00  0.00    +0.004 A 
ATOM     28  C   UNL     1      -3.826  -2.941  -1.022  0.00  0.00    +0.005 A 
BRANCH  26  29
ATOM     29  C   UNL     1      -4.035  -5.977  -3.256  0.00  0.00    +0.013 C 
ATOM     30  C   UNL     1      -2.920  -6.823  -2.639  0.00  0.00    +0.012 C 
ATOM     31  C   UNL     1      -5.394  -6.525  -2.817  0.00  0.00    +0.012 C 
ENDBRANCH  26  29
ENDBRANCH  22  23
ENDBRANCH  17  22
ENDBRANCH   1  17
TORSDOF 7
