REMARK  Name = ZINC62876115
REMARK  6 active torsions:
REMARK  status: ('A' for Active; 'I' for Inactive)
REMARK    1  A    between atoms: C_1  and  C_2
REMARK    2  A    between atoms: C_2  and  C_3
REMARK    3  A    between atoms: C_3  and  C_4
REMARK    4  A    between atoms: C_4  and  C_19
REMARK    5  A    between atoms: N_12  and  C_13
REMARK    6  A    between atoms: C_13  and  C_14
REMARK                            x       y       z     vdW  Elec       q    Type
REMARK                         _______ _______ _______ _____ _____    ______ ____
ROOT
ATOM      1  C   UNL     1      -1.408  -2.067   0.005  0.00  0.00    +0.088 C 
ATOM      2  C   UNL     1      -2.845  -2.593   0.013  0.00  0.00    +0.021 C 
ATOM      3  C   UNL     1      -3.594  -2.054  -1.207  0.00  0.00    +0.020 C 
ATOM      4  C   UNL     1      -2.906  -2.549  -2.483  0.00  0.00    +0.109 C 
ATOM      5  N   UNL     1      -1.487  -2.172  -2.432  0.00  0.00    -0.285 N 
ATOM      6  C   UNL     1      -0.695  -2.562  -1.258  0.00  0.00    +0.127 C 
ATOM      7  C   UNL     1      -0.923  -1.483  -3.443  0.00  0.00    +0.303 C 
ATOM      8  O   UNL     1       0.226  -1.094  -3.348  0.00  0.00    -0.253 OA
ATOM      9  N   UNL     1      -1.631  -1.223  -4.560  0.00  0.00    -0.292 N 
ATOM     10  H   UNL     1      -2.568  -1.469  -4.608  0.00  0.00    +0.151 HD
ENDROOT
BRANCH   1  11
ATOM     11  C   UNL     1      -0.679  -2.571   1.224  0.00  0.00    +0.364 C 
ATOM     12  O   UNL     1      -0.216  -1.779   2.027  0.00  0.00    -0.246 OA
ATOM     13  O   UNL     1      -0.554  -3.769   1.407  0.00  0.00    -0.246 OA
ENDBRANCH   1  11
BRANCH   1  14
ATOM     14  C   UNL     1      -1.424  -0.537   0.015  0.00  0.00    +0.019 C 
BRANCH  14  16
ATOM     15  C   UNL     1      -0.003   1.518   0.013  0.00  0.00    +0.004 C 
ATOM     16  C   UNL     1       0.013  -0.012   0.002  0.00  0.00    -0.002 C 
ENDBRANCH  14  16
ENDBRANCH   1  14
BRANCH   9  17
ATOM     17  C   UNL     1      -0.986  -0.570  -5.702  0.00  0.00    +0.186 C 
BRANCH  17  18
ATOM     18  C   UNL     1      -1.989  -0.396  -6.813  0.00  0.00    +0.194 A 
ATOM     19  N   UNL     1      -2.249  -1.259  -7.785  0.00  0.00    -0.110 NA
ATOM     20  N   UNL     1      -3.165  -0.742  -8.530  0.00  0.00    -0.021 NA
ATOM     21  N   UNL     1      -3.486   0.413  -8.059  0.00  0.00    -0.021 NA
ATOM     22  N   UNL     1      -2.784   0.646  -7.004  0.00  0.00    -0.110 NA
ENDBRANCH  17  18
ENDBRANCH   9  17
TORSDOF 5
