REMARK  Name = ZINC01873557
REMARK  15 active torsions:
REMARK  status: ('A' for Active; 'I' for Inactive)
REMARK    1  A    between atoms: C_1  and  C_2
REMARK    2  A    between atoms: C_3  and  C_36
REMARK    3  A    between atoms: C_4  and  C_34
REMARK    4  A    between atoms: C_5  and  S_9
REMARK    5  A    between atoms: C_7  and  C_8
REMARK    6  A    between atoms: S_9  and  C_10
REMARK    7  A    between atoms: C_10  and  C_11
REMARK    8  A    between atoms: C_12  and  C_28
REMARK    9  A    between atoms: C_13  and  C_21
REMARK   10  A    between atoms: C_15  and  C_19
REMARK   11  A    between atoms: C_16  and  N_18
REMARK   12  A    between atoms: C_28  and  O_30
REMARK   13  A    between atoms: O_30  and  C_31
REMARK   14  A    between atoms: C_31  and  C_32
REMARK   15  A    between atoms: C_31  and  C_33
REMARK                            x       y       z     vdW  Elec       q    Type
REMARK                         _______ _______ _______ _____ _____    ______ ____
ROOT
ATOM      1  C   UNL     1      -2.533   3.383   0.897  0.00  0.00    +0.128 C 
ATOM      2  C   UNL     1      -3.647   2.845   0.385  0.00  0.00    +0.088 C 
ATOM      3  C   UNL     1      -3.582   1.683  -0.569  0.00  0.00    +0.105 C 
ATOM      4  C   UNL     1      -2.222   1.042  -0.498  0.00  0.00    +0.098 C 
ATOM      5  C   UNL     1      -1.179   1.692   0.071  0.00  0.00    +0.198 C 
ATOM      6  O   UNL     1      -1.312   2.924   0.594  0.00  0.00    -0.444 OA
ENDROOT
BRANCH   3   7
ATOM      7  C   UNL     1      -3.832   2.174  -1.972  0.00  0.00    -0.034 A 
ATOM      8  C   UNL     1      -2.992   3.118  -2.533  0.00  0.00    +0.005 A 
ATOM      9  C   UNL     1      -3.217   3.565  -3.821  0.00  0.00    +0.015 A 
ATOM     10  C   UNL     1      -4.290   3.076  -4.545  0.00  0.00    +0.018 A 
ATOM     11  C   UNL     1      -5.133   2.136  -3.981  0.00  0.00    +0.015 A 
ATOM     12  C   UNL     1      -4.904   1.685  -2.695  0.00  0.00    +0.005 A 
ATOM     13 BR   UNL     1      -4.604   3.693  -6.305  0.00  0.00    -0.050 Br
ENDBRANCH   3   7
BRANCH   5  14
ATOM     14  N   UNL     1       0.046   1.075   0.120  0.00  0.00    -0.328 N 
ATOM     15  H   UNL     1       0.156   0.185  -0.250  0.00  0.00    +0.145 HD
ATOM     16  H   UNL     1       0.803   1.530   0.521  0.00  0.00    +0.145 HD
ENDBRANCH   5  14
BRANCH   4  17
ATOM     17  C   UNL     1      -2.029  -0.270  -1.038  0.00  0.00    +0.101 C 
ATOM     18  N   UNL     1      -1.876  -1.311  -1.466  0.00  0.00    -0.191 NA
ENDBRANCH   4  17
BRANCH   2  19
ATOM     19  C   UNL     1      -4.909   3.377   0.749  0.00  0.00    +0.340 C 
ATOM     20  O   UNL     1      -4.992   4.521   1.155  0.00  0.00    -0.245 OA
BRANCH  19  21
ATOM     21  O   UNL     1      -6.018   2.616   0.644  0.00  0.00    -0.459 OA
BRANCH  21  22
ATOM     22  C   UNL     1      -7.256   3.217   1.028  0.00  0.00    +0.171 C 
ATOM     23  C   UNL     1      -8.395   2.607   0.209  0.00  0.00    +0.052 C 
ATOM     24  C   UNL     1      -7.505   2.966   2.516  0.00  0.00    +0.052 C 
ENDBRANCH  21  22
ENDBRANCH  19  21
ENDBRANCH   2  19
BRANCH   1  25
ATOM     25  C   UNL     1      -2.658   4.544   1.849  0.00  0.00    +0.150 C 
BRANCH  25  26
ATOM     26  S   UNL     1      -2.216   6.077   0.993  0.00  0.00    -0.097 S 
BRANCH  26  31
ATOM     27  C   UNL     1      -3.018   9.935   5.520  0.00  0.00    +0.046 C 
ATOM     28  C   UNL     1      -2.804   9.004   4.355  0.00  0.00    -0.025 A 
ATOM     29  C   UNL     1      -2.390   9.502   3.131  0.00  0.00    -0.026 A 
ATOM     30  C   UNL     1      -2.198   8.601   2.078  0.00  0.00    +0.087 A 
ATOM     31  C   UNL     1      -2.443   7.235   2.302  0.00  0.00    +0.115 A 
ATOM     32  N   UNL     1      -2.839   6.813   3.494  0.00  0.00    -0.244 NA
ATOM     33  C   UNL     1      -3.020   7.646   4.500  0.00  0.00    +0.043 A 
ATOM     34  C   UNL     1      -3.471   7.107   5.833  0.00  0.00    +0.066 C 
ATOM     35  C   UNL     1      -2.146  10.977   2.941  0.00  0.00    +0.045 C 
BRANCH  30  36
ATOM     36  C   UNL     1      -1.765   9.063   0.793  0.00  0.00    +0.102 C 
ATOM     37  N   UNL     1      -1.421   9.430  -0.225  0.00  0.00    -0.191 NA
ENDBRANCH  30  36
ENDBRANCH  26  31
ENDBRANCH  25  26
ENDBRANCH   1  25
TORSDOF 10
