REMARK  Name = ZINC63842615
REMARK  6 active torsions:
REMARK  status: ('A' for Active; 'I' for Inactive)
REMARK    1  A    between atoms: C_7  and  C_10
REMARK    2  A    between atoms: C_10  and  C_12
REMARK    3  A    between atoms: C_10  and  C_32
REMARK    4  A    between atoms: C_12  and  N_13
REMARK    5  A    between atoms: C_14  and  C_16
REMARK    6  A    between atoms: C_23  and  C_25
REMARK                            x       y       z     vdW  Elec       q    Type
REMARK                         _______ _______ _______ _____ _____    ______ ____
ROOT
ATOM      1  N   UNL     1      -0.304  -4.939   1.154  0.00  0.00    -0.314 N 
ATOM      2  C   UNL     1      -0.525  -5.642   2.283  0.00  0.00    +0.218 C 
ATOM      3  O   UNL     1       0.096  -5.381   3.291  0.00  0.00    -0.275 OA
ATOM      4  H   UNL     1      -0.801  -5.148   0.347  0.00  0.00    +0.149 HD
ENDROOT
BRANCH   2   5
ATOM      5  C   UNL     1      -1.546  -6.751   2.292  0.00  0.00    +0.092 C 
ATOM      6  C   UNL     1      -1.601  -7.383   3.684  0.00  0.00    +0.016 C 
ATOM      7  C   UNL     1      -2.659  -8.488   3.703  0.00  0.00    +0.020 C 
ATOM      8  C   UNL     1      -2.276  -9.575   2.694  0.00  0.00    +0.108 C 
ATOM      9  N   UNL     1      -2.080  -8.950   1.379  0.00  0.00    -0.297 N 
ATOM     10  C   UNL     1      -1.150  -7.818   1.265  0.00  0.00    +0.120 C 
ATOM     11  C   UNL     1      -2.740  -9.407   0.296  0.00  0.00    +0.247 C 
ATOM     12  O   UNL     1      -2.651  -8.818  -0.763  0.00  0.00    -0.270 OA
BRANCH  11  13
ATOM     13  C   UNL     1      -3.571 -10.625   0.397  0.00  0.00    +0.037 A 
ATOM     14  C   UNL     1      -4.812 -10.681  -0.240  0.00  0.00    +0.014 A 
ATOM     15  C   UNL     1      -5.583 -11.820  -0.143  0.00  0.00    +0.021 A 
ATOM     16  C   UNL     1      -5.128 -12.907   0.585  0.00  0.00    +0.041 A 
ATOM     17  C   UNL     1      -3.897 -12.858   1.219  0.00  0.00    +0.021 A 
ATOM     18  C   UNL     1      -3.115 -11.726   1.124  0.00  0.00    +0.014 A 
ATOM     19 CL   UNL     1      -6.104 -14.338   0.704  0.00  0.00    -0.084 Cl
ENDBRANCH  11  13
ENDBRANCH   2   5
BRANCH   1  20
ATOM     20  C   UNL     1       0.688  -3.861   1.145  0.00  0.00    +0.117 C 
BRANCH  20  21
ATOM     21  C   UNL     1       0.744  -3.231  -0.248  0.00  0.00    +0.071 C 
BRANCH  21  28
ATOM     22  C   UNL     1       0.104   1.224  -1.146  0.00  0.00    +0.001 A 
ATOM     23  C   UNL     1       1.263   1.998  -1.001  0.00  0.00    +0.002 A 
ATOM     24  C   UNL     1       2.450   1.472  -0.630  0.00  0.00    +0.026 A 
ATOM     25  C   UNL     1       2.569   0.080  -0.368  0.00  0.00    +0.043 A 
ATOM     26  N   UNL     1       3.591  -0.656  -0.003  0.00  0.00    -0.380 N 
ATOM     27  C   UNL     1       3.144  -2.048   0.124  0.00  0.00    +0.145 C 
ATOM     28  C   UNL     1       1.672  -2.044  -0.226  0.00  0.00    -0.032 C 
ATOM     29  C   UNL     1       1.359  -0.761  -0.515  0.00  0.00    -0.000 A 
ATOM     30  C   UNL     1       0.107  -0.110  -0.921  0.00  0.00    +0.010 A 
ATOM     31  H   UNL     1       4.492  -0.334   0.156  0.00  0.00    +0.160 HD
ENDBRANCH  21  28
BRANCH  21  32
ATOM     32  C   UNL     1       1.250  -4.247  -1.239  0.00  0.00    -0.002 A 
ATOM     33  C   UNL     1       0.641  -4.735  -2.347  0.00  0.00    +0.012 A 
ATOM     34  C   UNL     1       1.304  -5.672  -3.118  0.00  0.00    +0.008 A 
ATOM     35  C   UNL     1       2.543  -6.074  -2.743  0.00  0.00    +0.045 A 
ATOM     36  S   UNL     1       2.811  -5.113  -1.263  0.00  0.00    -0.101 S 
ENDBRANCH  21  32
ENDBRANCH  20  21
ENDBRANCH   1  20
TORSDOF 6
