REMARK  Name = ZINC28161645
REMARK  9 active torsions:
REMARK  status: ('A' for Active; 'I' for Inactive)
REMARK    1  A    between atoms: C_1  and  C_2
REMARK    2  A    between atoms: C_5  and  N_8
REMARK    3  A    between atoms: C_9  and  C_11
REMARK    4  A    between atoms: C_11  and  C_12
REMARK    5  A    between atoms: C_20  and  C_30
REMARK    6  A    between atoms: C_23  and  C_25
REMARK    7  A    between atoms: C_33  and  C_36
REMARK    8  A    between atoms: C_36  and  C_37
REMARK    9  A    between atoms: C_36  and  C_38
REMARK                            x       y       z     vdW  Elec       q    Type
REMARK                         _______ _______ _______ _____ _____    ______ ____
ROOT
ATOM      1  C   UNL     1      -3.530  -2.032   0.022  0.00  0.00    +0.150 C 
ATOM      2  C   UNL     1      -2.244  -2.849   0.002  0.00  0.00    +0.252 C 
ATOM      3  O   UNL     1      -2.246  -4.064  -0.012  0.00  0.00    -0.272 OA
ATOM      4  N   UNL     1      -1.141  -2.153  -0.006  0.00  0.00    -0.157 NA
ATOM      5  C   UNL     1      -1.092  -0.827   0.014  0.00  0.00    +0.170 C 
ATOM      6  S   UNL     1      -2.812  -0.340   0.034  0.00  0.00    -0.078 S 
ATOM      7  N   UNL     1       0.011  -0.024   0.014  0.00  0.00    -0.195 N 
ATOM      8  C   UNL     1       1.407  -0.489  -0.003  0.00  0.00    +0.136 C 
ATOM      9  C   UNL     1       2.224   0.818   0.003  0.00  0.00    +0.087 C 
ATOM     10  C   UNL     1       1.174   1.905   0.024  0.00  0.00    +0.075 C 
ATOM     11  N   UNL     1      -0.001   1.369   0.029  0.00  0.00    -0.181 NA
ENDROOT
BRANCH   8  12
ATOM     12  C   UNL     1       1.685  -1.285  -1.252  0.00  0.00    -0.025 A 
ATOM     13  C   UNL     1       1.128  -0.899  -2.457  0.00  0.00    +0.006 A 
ATOM     14  C   UNL     1       1.387  -1.627  -3.603  0.00  0.00    +0.004 A 
ATOM     15  C   UNL     1       2.195  -2.747  -3.543  0.00  0.00    -0.045 A 
ATOM     16  C   UNL     1       2.748  -3.136  -2.337  0.00  0.00    +0.004 A 
ATOM     17  C   UNL     1       2.494  -2.405  -1.192  0.00  0.00    +0.006 A 
BRANCH  15  18
ATOM     18  C   UNL     1       2.473  -3.543  -4.792  0.00  0.00    +0.013 C 
ATOM     19  C   UNL     1       1.155  -4.069  -5.365  0.00  0.00    +0.012 C 
ATOM     20  C   UNL     1       3.158  -2.648  -5.826  0.00  0.00    +0.012 C 
ENDBRANCH  15  18
ENDBRANCH   8  12
BRANCH  10  21
ATOM     21  C   UNL     1       1.447   3.346   0.037  0.00  0.00    +0.035 A 
ATOM     22  C   UNL     1       0.553   4.404   0.051  0.00  0.00    +0.017 A 
ATOM     23  C   UNL     1       1.056   5.684   0.066  0.00  0.00    +0.008 A 
ATOM     24  C   UNL     1       2.402   5.870   0.055  0.00  0.00    +0.046 A 
ATOM     25  S   UNL     1       3.018   4.195   0.031  0.00  0.00    -0.095 S 
ENDBRANCH  10  21
BRANCH   1  26
ATOM     26  C   UNL     1      -4.345  -2.302   1.288  0.00  0.00    +0.120 C 
BRANCH  26  28
ATOM     27  N   UNL     1      -6.431  -1.476   2.330  0.00  0.00    -0.285 N 
ATOM     28  C   UNL     1      -5.561  -1.411   1.303  0.00  0.00    +0.219 C 
ATOM     29  O   UNL     1      -5.756  -0.636   0.391  0.00  0.00    -0.275 OA
ATOM     30  H   UNL     1      -6.295  -2.230   3.119  0.00  0.00    +0.155 HD
BRANCH  27  35
ATOM     31  C   UNL     1     -10.791   2.145   2.585  0.00  0.00    +0.044 C 
ATOM     32  C   UNL     1      -9.633   1.183   2.518  0.00  0.00    -0.050 A 
ATOM     33  C   UNL     1      -9.195   0.716   1.292  0.00  0.00    +0.005 A 
ATOM     34  C   UNL     1      -8.134  -0.166   1.226  0.00  0.00    +0.023 A 
ATOM     35  C   UNL     1      -7.506  -0.583   2.393  0.00  0.00    +0.033 A 
ATOM     36  C   UNL     1      -7.952  -0.115   3.623  0.00  0.00    +0.023 A 
ATOM     37  C   UNL     1      -9.009   0.771   3.681  0.00  0.00    +0.005 A 
ENDBRANCH  27  35
ENDBRANCH  26  28
ENDBRANCH   1  26
TORSDOF 6
