REMARK  Name = ZINC06668599
REMARK  9 active torsions:
REMARK  status: ('A' for Active; 'I' for Inactive)
REMARK    1  A    between atoms: C_1  and  C_2
REMARK    2  A    between atoms: C_5  and  C_23
REMARK    3  A    between atoms: C_13  and  S_14
REMARK    4  A    between atoms: S_14  and  N_17
REMARK    5  A    between atoms: N_17  and  C_18
REMARK    6  A    between atoms: C_18  and  C_19
REMARK    7  A    between atoms: C_19  and  C_20
REMARK    8  A    between atoms: C_19  and  C_21
REMARK    9  A    between atoms: C_19  and  C_22
REMARK                            x       y       z     vdW  Elec       q    Type
REMARK                         _______ _______ _______ _____ _____    ______ ____
ROOT
ATOM      1  C   UNL     1       1.307   1.919  -1.671  0.00  0.00    +0.046 C 
ATOM      2  C   UNL     1       2.352   0.836  -1.754  0.00  0.00    -0.023 A 
ATOM      3  C   UNL     1       3.659   1.170  -1.966  0.00  0.00    +0.015 A 
ATOM      4  C   UNL     1       4.628   0.165  -2.048  0.00  0.00    +0.002 A 
ATOM      5  C   UNL     1       6.037   0.488  -2.280  0.00  0.00    -0.036 A 
ATOM      6  C   UNL     1       6.931  -0.529  -2.350  0.00  0.00    +0.074 A 
ATOM      7  C   UNL     1       6.502  -1.865  -2.202  0.00  0.00    +0.249 A 
ATOM      8  O   UNL     1       7.322  -2.764  -2.269  0.00  0.00    -0.268 OA
ATOM      9  N   UNL     1       5.210  -2.172  -1.989  0.00  0.00    -0.322 N 
ATOM     10  H   UNL     1       4.941  -3.130  -1.888  0.00  0.00    +0.169 HD
ATOM     11  C   UNL     1       4.251  -1.184  -1.906  0.00  0.00    +0.051 A 
ATOM     12  C   UNL     1       2.915  -1.500  -1.686  0.00  0.00    +0.055 A 
ATOM     13  C   UNL     1       1.977  -0.493  -1.609  0.00  0.00    +0.110 A 
ATOM     14  C   UNL     1       6.483   1.918  -2.437  0.00  0.00    +0.044 C 
ENDROOT
BRANCH  13  15
ATOM     15  S   UNL     1       0.285  -0.896  -1.330  0.00  0.00    +0.059 S 
ATOM     16  O   UNL     1      -0.165  -0.054  -0.278  0.00  0.00    -0.153 OA
ATOM     17  O   UNL     1       0.212  -2.313  -1.255  0.00  0.00    -0.153 OA
BRANCH  15  18
ATOM     18  N   UNL     1      -0.554  -0.450  -2.686  0.00  0.00    -0.189 NA
ATOM     19  H   UNL     1      -1.227   0.247  -2.632  0.00  0.00    +0.148 HD
BRANCH  18  20
ATOM     20  C   UNL     1      -0.282  -1.109  -3.966  0.00  0.00    +0.112 C 
BRANCH  20  21
ATOM     21  C   UNL     1      -1.417  -0.807  -4.946  0.00  0.00    -0.024 C 
ATOM     22  C   UNL     1      -1.516   0.705  -5.161  0.00  0.00    +0.012 C 
ATOM     23  C   UNL     1      -1.132  -1.494  -6.283  0.00  0.00    +0.012 C 
ATOM     24  C   UNL     1      -2.737  -1.329  -4.375  0.00  0.00    +0.012 C 
ENDBRANCH  20  21
ENDBRANCH  18  20
ENDBRANCH  15  18
ENDBRANCH  13  15
TORSDOF 4
