REMARK  Name = ZINC63695818
REMARK  5 active torsions:
REMARK  status: ('A' for Active; 'I' for Inactive)
REMARK    1  A    between atoms: C_3  and  C_6
REMARK    2  A    between atoms: C_6  and  C_7
REMARK    3  A    between atoms: C_7  and  N_8
REMARK    4  A    between atoms: C_9  and  C_11
REMARK    5  A    between atoms: N_16  and  C_18
REMARK                            x       y       z     vdW  Elec       q    Type
REMARK                         _______ _______ _______ _____ _____    ______ ____
ROOT
ATOM      1  C   UNL     1       7.697   3.238   2.554  0.00  0.00    +0.089 C 
ATOM      2  C   UNL     1       7.748   4.591   1.841  0.00  0.00    +0.015 C 
ATOM      3  C   UNL     1       9.181   5.130   1.886  0.00  0.00    +0.016 C 
ATOM      4  C   UNL     1       9.632   5.243   3.344  0.00  0.00    +0.088 C 
ATOM      5  N   UNL     1       9.566   3.922   3.983  0.00  0.00    -0.265 NA
ATOM      6  C   UNL     1       8.191   3.405   3.993  0.00  0.00    +0.100 C 
ENDROOT
BRANCH   5   7
ATOM      7  C   UNL     1      10.122   3.966   5.342  0.00  0.00    +0.252 C 
ATOM      8  N   UNL     1       9.339   4.886   6.177  0.00  0.00    -0.351 N 
ATOM      9  C   UNL     1      10.142   5.828   6.579  0.00  0.00    +0.061 A 
ATOM     10  C   UNL     1       9.946   7.013   7.425  0.00  0.00    +0.028 A 
ATOM     11  C   UNL     1      10.988   7.831   7.676  0.00  0.00    +0.017 A 
ATOM     12  C   UNL     1      12.276   7.599   7.157  0.00  0.00    +0.020 A 
ATOM     13  C   UNL     1      12.563   6.542   6.370  0.00  0.00    +0.042 A 
ATOM     14  C   UNL     1      11.504   5.583   6.030  0.00  0.00    +0.062 A 
ATOM     15  N   UNL     1      11.490   4.497   5.309  0.00  0.00    -0.351 N 
ATOM     16 BR   UNL     1      13.658   8.819   7.579  0.00  0.00    -0.050 Br
ATOM     17  H   UNL     1       8.396   4.806   6.390  0.00  0.00    +0.163 HD
ATOM     18  H   UNL     1      12.245   4.110   4.838  0.00  0.00    +0.163 HD
ENDBRANCH   5   7
BRANCH   1  20
ATOM     19  N   UNL     1       5.633   2.506   1.403  0.00  0.00    -0.315 N 
ATOM     20  C   UNL     1       6.279   2.728   2.565  0.00  0.00    +0.217 C 
ATOM     21  O   UNL     1       5.718   2.518   3.620  0.00  0.00    -0.275 OA
ATOM     22  H   UNL     1       6.082   2.674   0.560  0.00  0.00    +0.149 HD
BRANCH  19  23
ATOM     23  C   UNL     1       4.255   2.011   1.414  0.00  0.00    +0.109 C 
BRANCH  23  24
ATOM     24  C   UNL     1       3.761   1.845  -0.024  0.00  0.00    +0.061 C 
BRANCH  24  27
ATOM     25  C   UNL     1      -0.016   1.351   0.009  0.00  0.00    +0.008 A 
ATOM     26  C   UNL     1       1.183   2.038   0.002  0.00  0.00    +0.011 A 
ATOM     27  C   UNL     1       2.343   1.336  -0.013  0.00  0.00    -0.009 A 
ATOM     28  S   UNL     1       1.754  -0.349  -0.017  0.00  0.00    -0.102 S 
ATOM     29  C   UNL     1       0.002  -0.004   0.002  0.00  0.00    +0.045 A 
ENDBRANCH  24  27
ENDBRANCH  23  24
ENDBRANCH  19  23
ENDBRANCH   1  20
TORSDOF 5
