REMARK  Name = ZINC22805040
REMARK  8 active torsions:
REMARK  status: ('A' for Active; 'I' for Inactive)
REMARK    1  A    between atoms: C_1  and  C_2
REMARK    2  A    between atoms: C_2  and  C_4
REMARK    3  A    between atoms: C_2  and  N_19
REMARK    4  A    between atoms: N_6  and  C_7
REMARK    5  A    between atoms: C_8  and  C_17
REMARK    6  A    between atoms: N_22  and  C_25
REMARK    7  A    between atoms: C_25  and  C_26
REMARK    8  A    between atoms: C_28  and  C_31
REMARK                            x       y       z     vdW  Elec       q    Type
REMARK                         _______ _______ _______ _____ _____    ______ ____
ROOT
ATOM      1  C   UNL     1      -0.019   1.526   0.010  0.00  0.00    +0.034 C 
ATOM      2  C   UNL     1       0.002  -0.004   0.002  0.00  0.00    +0.140 C 
ENDROOT
BRANCH   2   3
ATOM      3  N   UNL     1       0.713  -0.491   1.192  0.00  0.00    -0.295 NA
ATOM      4  C   UNL     1       2.047   0.117   1.294  0.00  0.00    +0.066 C 
ATOM      5  C   UNL     1       2.775  -0.459   2.511  0.00  0.00    -0.063 C 
ATOM      6  N   UNL     1       1.997  -0.180   3.725  0.00  0.00    +0.387 N 
ATOM      7  C   UNL     1       0.676  -0.815   3.618  0.00  0.00    -0.063 C 
ATOM      8  C   UNL     1      -0.070  -0.241   2.411  0.00  0.00    +0.066 C 
ATOM      9  H   UNL     1       1.883   0.817   3.830  0.00  0.00    -0.081 HD
BRANCH   6  10
ATOM     10  C   UNL     1       2.705  -0.718   4.894  0.00  0.00    +0.022 C 
BRANCH  10  11
ATOM     11  C   UNL     1       1.970  -0.327   6.150  0.00  0.00    +0.211 A 
ATOM     12  N   UNL     1       1.029  -1.017   6.728  0.00  0.00    -0.193 NA
ATOM     13  C   UNL     1       0.594  -0.374   7.827  0.00  0.00    +0.202 A 
ATOM     14  N   UNL     1       1.269   0.744   7.952  0.00  0.00    -0.056 NA
ATOM     15  O   UNL     1       2.179   0.787   6.864  0.00  0.00    -0.340 OA
BRANCH  13  16
ATOM     16  C   UNL     1      -0.470  -0.849   8.743  0.00  0.00    +0.029 A 
ATOM     17  C   UNL     1      -0.846  -0.096   9.855  0.00  0.00    +0.019 A 
ATOM     18  C   UNL     1      -1.826  -0.617  10.628  0.00  0.00    +0.046 A 
ATOM     19  S   UNL     1      -2.202  -2.143   9.789  0.00  0.00    -0.104 S 
ATOM     20  C   UNL     1      -1.110  -2.030   8.518  0.00  0.00    +0.057 A 
ENDBRANCH  13  16
ENDBRANCH  10  11
ENDBRANCH   6  10
ENDBRANCH   2   3
BRANCH   2  21
ATOM     21  C   UNL     1       0.707  -0.490  -1.238  0.00  0.00    +0.235 C 
ATOM     22  O   UNL     1       1.704  -1.175  -1.140  0.00  0.00    -0.274 OA
ATOM     23  N   UNL     1       0.231  -0.164  -2.456  0.00  0.00    -0.278 N 
ATOM     24  H   UNL     1      -0.566   0.383  -2.534  0.00  0.00    +0.155 HD
BRANCH  23  25
ATOM     25  C   UNL     1       0.881  -0.612  -3.598  0.00  0.00    +0.090 A 
ATOM     26  C   UNL     1       0.542  -0.374  -4.918  0.00  0.00    +0.084 A 
ATOM     27  C   UNL     1       1.391  -0.961  -5.944  0.00  0.00    -0.018 A 
ATOM     28  C   UNL     1       2.421  -1.683  -5.454  0.00  0.00    -0.004 A 
ATOM     29  S   UNL     1       2.262  -1.560  -3.695  0.00  0.00    -0.077 S 
ATOM     30  C   UNL     1       3.464  -2.430  -6.227  0.00  0.00    +0.043 C 
ATOM     31  C   UNL     1       4.037  -1.512  -7.315  0.00  0.00    +0.005 C 
ATOM     32  C   UNL     1       3.194  -1.669  -8.577  0.00  0.00    +0.001 C 
ATOM     33  C   UNL     1       1.738  -1.944  -8.209  0.00  0.00    +0.005 C 
ATOM     34  C   UNL     1       1.151  -0.767  -7.434  0.00  0.00    +0.037 C 
BRANCH  26  35
ATOM     35  C   UNL     1      -0.600   0.418  -5.261  0.00  0.00    +0.102 C 
ATOM     36  N   UNL     1      -1.506   1.047  -5.534  0.00  0.00    -0.191 NA
ENDBRANCH  26  35
ENDBRANCH  23  25
ENDBRANCH   2  21
TORSDOF 7
