REMARK  Name = ZINC25043013
REMARK  6 active torsions:
REMARK  status: ('A' for Active; 'I' for Inactive)
REMARK    1  A    between atoms: C_1  and  C_2
REMARK    2  A    between atoms: C_4  and  C_14
REMARK    3  A    between atoms: C_5  and  C_13
REMARK    4  A    between atoms: N_6  and  C_7
REMARK    5  A    between atoms: C_7  and  C_8
REMARK    6  A    between atoms: C_17  and  N_19
REMARK                            x       y       z     vdW  Elec       q    Type
REMARK                         _______ _______ _______ _____ _____    ______ ____
ROOT
ATOM      1  C   UNL     1      -0.009   1.492   0.091  0.00  0.00    +0.063 C 
ATOM      2  C   UNL     1       0.010  -0.015   0.069  0.00  0.00    +0.017 A 
ATOM      3  C   UNL     1       0.014  -0.786  -1.035  0.00  0.00    +0.032 A 
ATOM      4  C   UNL     1       0.033  -2.137  -0.608  0.00  0.00    +0.022 A 
ATOM      5  C   UNL     1       0.040  -2.127   0.751  0.00  0.00    +0.025 A 
ATOM      6  N   UNL     1       0.032  -0.828   1.164  0.00  0.00    -0.343 N 
ATOM      7  C   UNL     1       0.060  -3.340   1.646  0.00  0.00    +0.064 C 
ENDROOT
BRANCH   4   8
ATOM      8  C   UNL     1       0.044  -3.338  -1.481  0.00  0.00    +0.082 A 
ATOM      9  C   UNL     1       0.040  -3.201  -2.840  0.00  0.00    +0.077 A 
ATOM     10  S   UNL     1       0.055  -4.915  -3.350  0.00  0.00    -0.056 S 
ATOM     11  C   UNL     1       0.065  -5.634  -1.714  0.00  0.00    +0.196 A 
ATOM     12  N   UNL     1       0.062  -4.550  -0.949  0.00  0.00    -0.221 NA
BRANCH  11  13
ATOM     13  N   UNL     1       0.079  -6.944  -1.350  0.00  0.00    -0.189 NA
ATOM     14  C   UNL     1      -1.050  -7.561  -1.070  0.00  0.00    +0.195 C 
ATOM     15  N   UNL     1      -2.246  -6.917  -1.251  0.00  0.00    -0.370 N 
ATOM     16  N   UNL     1      -1.029  -8.847  -0.598  0.00  0.00    -0.370 N 
ATOM     17  H   UNL     1      -2.266  -6.036  -1.656  0.00  0.00    +0.159 HD
ATOM     18  H   UNL     1      -3.073  -7.342  -0.974  0.00  0.00    +0.159 HD
ATOM     19  H   UNL     1      -0.182  -9.303  -0.469  0.00  0.00    +0.159 HD
ATOM     20  H   UNL     1      -1.860  -9.302  -0.391  0.00  0.00    +0.159 HD
ENDBRANCH  11  13
ENDBRANCH   4   8
BRANCH   6  21
ATOM     21  C   UNL     1       0.041  -0.377   2.558  0.00  0.00    +0.164 C 
BRANCH  21  22
ATOM     22  C   UNL     1      -1.376  -0.241   3.052  0.00  0.00    +0.009 A 
ATOM     23  C   UNL     1      -2.161  -1.164   3.660  0.00  0.00    +0.013 A 
ATOM     24  C   UNL     1      -3.445  -0.812   4.032  0.00  0.00    +0.008 A 
ATOM     25  C   UNL     1      -3.881   0.446   3.777  0.00  0.00    +0.045 A 
ATOM     26  S   UNL     1      -2.455   1.180   2.994  0.00  0.00    -0.100 S 
ENDBRANCH  21  22
ENDBRANCH   6  21
TORSDOF 4
