REMARK  Name = ZINC03336406
REMARK  10 active torsions:
REMARK  status: ('A' for Active; 'I' for Inactive)
REMARK    1  A    between atoms: C_1  and  N_50
REMARK    2  A    between atoms: C_2  and  N_50
REMARK    3  A    between atoms: C_3  and  C_5
REMARK    4  A    between atoms: C_3  and  C_25
REMARK    5  A    between atoms: C_3  and  N_50
REMARK    6  A    between atoms: C_5  and  N_6
REMARK    7  A    between atoms: C_7  and  C_9
REMARK    8  A    between atoms: C_12  and  S_18
REMARK    9  A    between atoms: C_13  and  N_15
REMARK   10  A    between atoms: S_18  and  C_19
REMARK                            x       y       z     vdW  Elec       q    Type
REMARK                         _______ _______ _______ _____ _____    ______ ____
ROOT
ATOM      1  C   UNL     1       4.232   1.844   2.175  0.00  0.00    +0.039 A 
ATOM      2  C   UNL     1       3.876   0.800   3.035  0.00  0.00    +0.014 A 
ATOM      3  C   UNL     1       4.727   0.412   4.030  0.00  0.00    +0.018 A 
ATOM      4  C   UNL     1       5.947   1.061   4.200  0.00  0.00    +0.043 A 
ATOM      5  C   UNL     1       6.308   2.105   3.352  0.00  0.00    +0.141 A 
ATOM      6  C   UNL     1       5.457   2.497   2.344  0.00  0.00    +0.047 A 
ENDROOT
BRANCH   1   8
ATOM      7  N   UNL     1       2.136   1.628   0.936  0.00  0.00    -0.312 N 
ATOM      8  C   UNL     1       3.316   2.259   1.097  0.00  0.00    +0.244 C 
ATOM      9  O   UNL     1       3.625   3.170   0.353  0.00  0.00    -0.270 OA
ATOM     10  H   UNL     1       1.889   0.902   1.529  0.00  0.00    +0.149 HD
BRANCH   7  11
ATOM     11  C   UNL     1       1.225   2.040  -0.136  0.00  0.00    +0.097 C 
BRANCH  11  12
ATOM     12  C   UNL     1      -0.033   1.170  -0.099  0.00  0.00    +0.016 C 
BRANCH  12  13
ATOM     13  C   UNL     1      -1.021   1.673  -1.120  0.00  0.00    +0.093 A 
ATOM     14  C   UNL     1      -1.348   1.054  -2.269  0.00  0.00    +0.043 A 
ATOM     15  C   UNL     1      -2.306   1.869  -2.914  0.00  0.00    +0.041 A 
ATOM     16  C   UNL     1      -2.501   2.941  -2.125  0.00  0.00    +0.195 A 
ATOM     17  O   UNL     1      -1.720   2.816  -1.040  0.00  0.00    -0.469 OA
ENDBRANCH  12  13
BRANCH  12  20
ATOM     18  C   UNL     1      -1.020   2.614   1.576  0.00  0.00    -0.096 C 
ATOM     19  C   UNL     1      -1.785   0.329   1.345  0.00  0.00    -0.096 C 
ATOM     20  N   UNL     1      -0.615   1.228   1.259  0.00  0.00    +0.384 N 
ATOM     21  H   UNL     1       0.091   0.923   1.938  0.00  0.00    -0.082 HD
ENDBRANCH  12  20
ENDBRANCH  11  12
ENDBRANCH   7  11
ENDBRANCH   1   8
BRANCH   5  22
ATOM     22  N   UNL     1       7.606   2.794   3.535  0.00  0.00    +0.058 N 
ATOM     23  O   UNL     1       7.921   3.707   2.793  0.00  0.00    -0.126 OA
ATOM     24  O   UNL     1       8.359   2.447   4.428  0.00  0.00    -0.126 OA
ENDBRANCH   5  22
BRANCH   4  25
ATOM     25  S   UNL     1       7.037   0.560   5.491  0.00  0.00    -0.087 S 
BRANCH  25  26
ATOM     26  C   UNL     1       8.267  -0.394   4.665  0.00  0.00    +0.013 A 
ATOM     27  C   UNL     1       8.128  -0.689   3.314  0.00  0.00    +0.015 A 
ATOM     28  C   UNL     1       9.096  -1.432   2.668  0.00  0.00    +0.001 A 
ATOM     29  C   UNL     1      10.198  -1.891   3.366  0.00  0.00    +0.000 A 
ATOM     30  C   UNL     1      10.337  -1.604   4.712  0.00  0.00    +0.001 A 
ATOM     31  C   UNL     1       9.375  -0.857   5.363  0.00  0.00    +0.015 A 
ENDBRANCH  25  26
ENDBRANCH   4  25
TORSDOF 8
