REMARK  Name = ZINC09713698
REMARK  10 active torsions:
REMARK  status: ('A' for Active; 'I' for Inactive)
REMARK    1  A    between atoms: C_1  and  C_2
REMARK    2  A    between atoms: C_15  and  C_17
REMARK    3  A    between atoms: C_17  and  S_18
REMARK    4  A    between atoms: S_18  and  C_19
REMARK    5  A    between atoms: C_22  and  C_31
REMARK    6  A    between atoms: N_23  and  C_24
REMARK    7  A    between atoms: C_31  and  C_33
REMARK    8  A    between atoms: C_31  and  N_61
REMARK    9  A    between atoms: C_34  and  N_61
REMARK   10  A    between atoms: C_35  and  N_61
REMARK                            x       y       z     vdW  Elec       q    Type
REMARK                         _______ _______ _______ _____ _____    ______ ____
ROOT
ATOM      1  S   UNL     1      -1.215   6.484   3.587  0.00  0.00    -0.076 S 
ENDROOT
BRANCH   1   2
ATOM      2  C   UNL     1      -1.613   5.416   4.930  0.00  0.00    +0.197 A 
ATOM      3  N   UNL     1      -1.587   4.103   4.917  0.00  0.00    -0.122 NA
ATOM      4  N   UNL     1      -1.935   3.647   6.068  0.00  0.00    -0.135 NA
ATOM      5  C   UNL     1      -2.202   4.632   6.878  0.00  0.00    +0.125 A 
ATOM      6  N   UNL     1      -2.002   5.796   6.185  0.00  0.00    -0.275 N 
BRANCH   6   7
ATOM      7  C   UNL     1      -2.164   7.106   6.661  0.00  0.00    +0.050 A 
ATOM      8  C   UNL     1      -1.343   7.584   7.673  0.00  0.00    +0.029 A 
ATOM      9  C   UNL     1      -1.500   8.876   8.137  0.00  0.00    +0.040 A 
ATOM     10  C   UNL     1      -2.484   9.689   7.601  0.00  0.00    +0.124 A 
ATOM     11  C   UNL     1      -3.308   9.212   6.595  0.00  0.00    +0.040 A 
ATOM     12  C   UNL     1      -3.150   7.923   6.125  0.00  0.00    +0.029 A 
ATOM     13  F   UNL     1      -2.641  10.950   8.060  0.00  0.00    -0.205 F 
ENDBRANCH   6   7
BRANCH   5  14
ATOM     14  C   UNL     1      -2.644   4.513   8.314  0.00  0.00    -0.003 C 
ATOM     15  C   UNL     1      -1.448   4.122   9.185  0.00  0.00    -0.005 C 
BRANCH  14  18
ATOM     16  C   UNL     1      -3.145   2.153   8.111  0.00  0.00    -0.096 C 
ATOM     17  C   UNL     1      -4.308   3.500   9.752  0.00  0.00    -0.096 C 
ATOM     18  N   UNL     1      -3.706   3.489   8.402  0.00  0.00    +0.382 N 
ATOM     19  H   UNL     1      -4.434   3.703   7.711  0.00  0.00    -0.082 HD
ENDBRANCH  14  18
ENDBRANCH   5  14
ENDBRANCH   1   2
BRANCH   1  20
ATOM     20  C   UNL     1      -0.803   5.258   2.321  0.00  0.00    +0.173 C 
BRANCH  20  34
ATOM     21  C   UNL     1      -0.868   5.851  -2.271  0.00  0.00    +0.029 C 
ATOM     22  C   UNL     1       0.303   5.916  -1.289  0.00  0.00    +0.087 C 
ATOM     23  C   UNL     1       1.521   5.225  -1.904  0.00  0.00    +0.118 C 
ATOM     24  C   UNL     1       2.540   4.924  -0.836  0.00  0.00    +0.219 C 
ATOM     25  O   UNL     1       3.541   5.604  -0.750  0.00  0.00    -0.275 OA
ATOM     26  N   UNL     1       2.347   3.902   0.026  0.00  0.00    -0.284 N 
ATOM     27  C   UNL     1       1.157   3.166   0.000  0.00  0.00    +0.055 A 
ATOM     28  C   UNL     1       1.177   1.781   0.000  0.00  0.00    +0.025 A 
ATOM     29  C   UNL     1      -0.013   1.076   0.008  0.00  0.00    +0.002 A 
ATOM     30  C   UNL     1      -1.221   1.748   0.017  0.00  0.00    +0.002 A 
ATOM     31  C   UNL     1      -1.249   3.131   0.021  0.00  0.00    +0.025 A 
ATOM     32  C   UNL     1      -0.062   3.845  -0.001  0.00  0.00    +0.058 A 
ATOM     33  N   UNL     1      -0.072   5.246  -0.042  0.00  0.00    -0.266 N 
ATOM     34  C   UNL     1      -0.420   5.962   1.045  0.00  0.00    +0.230 C 
ATOM     35  O   UNL     1      -0.424   7.174   0.996  0.00  0.00    -0.274 OA
ATOM     36  H   UNL     1       3.039   3.676   0.667  0.00  0.00    +0.155 HD
ENDBRANCH  20  34
ENDBRANCH   1  20
TORSDOF 6
