REMARK  Name = ZINC15980065
REMARK  11 active torsions:
REMARK  status: ('A' for Active; 'I' for Inactive)
REMARK    1  A    between atoms: C_1  and  C_2
REMARK    2  A    between atoms: C_4  and  C_17
REMARK    3  A    between atoms: C_5  and  C_16
REMARK    4  A    between atoms: N_6  and  C_7
REMARK    5  A    between atoms: C_12  and  O_13
REMARK    6  A    between atoms: O_13  and  C_14
REMARK    7  A    between atoms: C_17  and  O_19
REMARK    8  A    between atoms: O_19  and  C_20
REMARK    9  A    between atoms: C_20  and  C_21
REMARK   10  A    between atoms: N_23  and  C_24
REMARK   11  A    between atoms: C_29  and  N_30
REMARK                            x       y       z     vdW  Elec       q    Type
REMARK                         _______ _______ _______ _____ _____    ______ ____
ROOT
ATOM      1  C   UNL     1       4.221   8.312  -0.013  0.00  0.00    +0.341 C 
ATOM      2  O   UNL     1       5.350   7.900  -0.196  0.00  0.00    -0.245 OA
ENDROOT
BRANCH   1   6
ATOM      3  C   UNL     1       1.909  12.819   0.588  0.00  0.00    +0.064 C 
ATOM      4  C   UNL     1       2.938  11.739   0.377  0.00  0.00    +0.022 A 
ATOM      5  C   UNL     1       2.686  10.419   0.332  0.00  0.00    +0.038 A 
ATOM      6  C   UNL     1       3.977   9.757   0.110  0.00  0.00    +0.080 A 
ATOM      7  C   UNL     1       4.915  10.766   0.046  0.00  0.00    +0.035 A 
ATOM      8  N   UNL     1       4.278  11.944   0.202  0.00  0.00    -0.314 N 
ATOM      9  C   UNL     1       6.396  10.584  -0.165  0.00  0.00    +0.065 C 
BRANCH   8  10
ATOM     10  C   UNL     1       4.902  13.200   0.191  0.00  0.00    +0.090 A 
ATOM     11  C   UNL     1       5.378  13.750   1.372  0.00  0.00    +0.049 A 
ATOM     12  C   UNL     1       5.993  14.989   1.359  0.00  0.00    +0.043 A 
ATOM     13  C   UNL     1       6.135  15.681   0.169  0.00  0.00    +0.024 A 
ATOM     14  C   UNL     1       5.662  15.139  -1.011  0.00  0.00    +0.049 A 
ATOM     15  C   UNL     1       5.050  13.896  -1.006  0.00  0.00    +0.144 A 
ATOM     16 CL   UNL     1       6.588  15.676   2.838  0.00  0.00    -0.083 Cl
BRANCH  15  17
ATOM     17  O   UNL     1       4.590  13.358  -2.167  0.00  0.00    -0.493 OA
ATOM     18  C   UNL     1       4.777  14.128  -3.357  0.00  0.00    +0.277 C 
ENDBRANCH  15  17
ENDBRANCH   8  10
ENDBRANCH   1   6
BRANCH   1  19
ATOM     19  O   UNL     1       3.194   7.445   0.078  0.00  0.00    -0.452 OA
BRANCH  19  20
ATOM     20  C   UNL     1       3.509   6.033  -0.052  0.00  0.00    +0.328 C 
BRANCH  20  21
ATOM     21  C   UNL     1       2.245   5.223   0.075  0.00  0.00    +0.255 C 
ATOM     22  O   UNL     1       1.183   5.779   0.257  0.00  0.00    -0.272 OA
ATOM     23  N   UNL     1       2.294   3.879  -0.015  0.00  0.00    -0.281 N 
ATOM     24  H   UNL     1       3.151   3.428  -0.084  0.00  0.00    +0.155 HD
BRANCH  23  25
ATOM     25  C   UNL     1       1.111   3.133  -0.007  0.00  0.00    +0.065 A 
ATOM     26  C   UNL     1      -0.033   3.637  -0.612  0.00  0.00    +0.045 A 
ATOM     27  C   UNL     1      -1.201   2.898  -0.602  0.00  0.00    +0.043 A 
ATOM     28  C   UNL     1      -1.229   1.654   0.004  0.00  0.00    +0.022 A 
ATOM     29  C   UNL     1      -0.093   1.153   0.612  0.00  0.00    +0.036 A 
ATOM     30  C   UNL     1       1.077   1.887   0.605  0.00  0.00    +0.147 A 
ATOM     31 CL   UNL     1      -2.632   3.527  -1.358  0.00  0.00    -0.083 Cl
BRANCH  30  32
ATOM     32  N   UNL     1       2.295   1.346   1.250  0.00  0.00    +0.058 N 
ATOM     33  O   UNL     1       2.243   0.295   1.865  0.00  0.00    -0.126 OA
ATOM     34  O   UNL     1       3.348   1.951   1.167  0.00  0.00    -0.126 OA
ENDBRANCH  30  32
ENDBRANCH  23  25
ENDBRANCH  20  21
ENDBRANCH  19  20
ENDBRANCH   1  19
TORSDOF 8
