REMARK  Name = ZINC59170601
REMARK  5 active torsions:
REMARK  status: ('A' for Active; 'I' for Inactive)
REMARK    1  A    between atoms: C_8  and  C_22
REMARK    2  A    between atoms: N_10  and  C_11
REMARK    3  A    between atoms: C_14  and  S_17
REMARK    4  A    between atoms: S_17  and  N_20
REMARK    5  A    between atoms: N_24  and  C_25
REMARK                            x       y       z     vdW  Elec       q    Type
REMARK                         _______ _______ _______ _____ _____    ______ ____
ROOT
ATOM      1  C   UNL     1       0.081   1.386  -0.657  0.00  0.00    +0.001 A 
ATOM      2  C   UNL     1       0.911   2.076   0.214  0.00  0.00    +0.004 A 
ATOM      3  C   UNL     1       2.080   1.504   0.675  0.00  0.00    +0.047 A 
ATOM      4  C   UNL     1       2.429   0.225   0.267  0.00  0.00    +0.137 A 
ATOM      5  C   UNL     1       1.583  -0.476  -0.613  0.00  0.00    +0.018 A 
ATOM      6  C   UNL     1       0.404   0.125  -1.072  0.00  0.00    +0.011 A 
ATOM      7  C   UNL     1       1.949  -1.830  -1.036  0.00  0.00    +0.030 A 
ATOM      8  C   UNL     1       2.970  -2.462  -0.339  0.00  0.00    +0.098 A 
ATOM      9  C   UNL     1       3.596  -1.708   0.766  0.00  0.00    +0.212 A 
ATOM     10  N   UNL     1       4.160  -2.332   1.778  0.00  0.00    -0.325 N 
ATOM     11  O   UNL     1       3.574  -0.352   0.705  0.00  0.00    -0.439 OA
ATOM     12  H   UNL     1       4.016  -3.284   1.902  0.00  0.00    +0.169 HD
ENDROOT
BRANCH  10  13
ATOM     13  C   UNL     1       4.947  -1.639   2.656  0.00  0.00    +0.042 A 
ATOM     14  C   UNL     1       5.893  -0.728   2.181  0.00  0.00    +0.027 A 
ATOM     15  C   UNL     1       6.683  -0.033   3.072  0.00  0.00    +0.030 A 
ATOM     16  C   UNL     1       6.541  -0.236   4.434  0.00  0.00    +0.105 A 
ATOM     17  C   UNL     1       5.606  -1.138   4.911  0.00  0.00    +0.030 A 
ATOM     18  C   UNL     1       4.805  -1.836   4.032  0.00  0.00    +0.027 A 
BRANCH  16  19
ATOM     19  S   UNL     1       7.555   0.657   5.565  0.00  0.00    +0.056 S 
ATOM     20  O   UNL     1       7.606  -0.112   6.758  0.00  0.00    -0.153 OA
ATOM     21  O   UNL     1       8.724   1.034   4.851  0.00  0.00    -0.153 OA
BRANCH  19  22
ATOM     22  N   UNL     1       6.755   2.058   5.938  0.00  0.00    -0.204 NA
ATOM     23  H   UNL     1       6.879   2.471   6.807  0.00  0.00    +0.144 HD
ATOM     24  H   UNL     1       6.162   2.467   5.287  0.00  0.00    +0.144 HD
ENDBRANCH  19  22
ENDBRANCH  16  19
ENDBRANCH  10  13
BRANCH   8  25
ATOM     25  C   UNL     1       3.410  -3.823  -0.686  0.00  0.00    +0.253 C 
ATOM     26  O   UNL     1       2.801  -4.464  -1.521  0.00  0.00    -0.270 OA
ATOM     27  N   UNL     1       4.487  -4.359  -0.078  0.00  0.00    -0.281 N 
ATOM     28  H   UNL     1       4.952  -3.861   0.611  0.00  0.00    +0.155 HD
BRANCH  27  29
ATOM     29  C   UNL     1       4.933  -5.634  -0.443  0.00  0.00    +0.035 A 
ATOM     30  C   UNL     1       4.027  -6.586  -0.893  0.00  0.00    +0.025 A 
ATOM     31  C   UNL     1       4.469  -7.844  -1.253  0.00  0.00    +0.023 A 
ATOM     32  C   UNL     1       5.814  -8.157  -1.164  0.00  0.00    +0.059 A 
ATOM     33  C   UNL     1       6.720  -7.211  -0.715  0.00  0.00    +0.061 A 
ATOM     34  C   UNL     1       6.283  -5.949  -0.359  0.00  0.00    +0.044 A 
ATOM     35 CL   UNL     1       8.406  -7.608  -0.605  0.00  0.00    -0.082 Cl
ATOM     36 CL   UNL     1       6.367  -9.740  -1.615  0.00  0.00    -0.082 Cl
ENDBRANCH  27  29
ENDBRANCH   8  25
TORSDOF 5
