REMARK  Name = ZINC00886233
REMARK  11 active torsions:
REMARK  status: ('A' for Active; 'I' for Inactive)
REMARK    1  A    between atoms: C_1  and  C_2
REMARK    2  A    between atoms: C_5  and  C_7
REMARK    3  A    between atoms: N_10  and  C_12
REMARK    4  A    between atoms: C_12  and  C_13
REMARK    5  A    between atoms: N_15  and  C_16
REMARK    6  A    between atoms: N_15  and  C_28
REMARK    7  A    between atoms: C_19  and  C_22
REMARK    8  A    between atoms: C_28  and  C_30
REMARK    9  A    between atoms: C_28  and  C_36
REMARK   10  A    between atoms: C_33  and  C_35
REMARK   11  A    between atoms: N_38  and  C_39
REMARK                            x       y       z     vdW  Elec       q    Type
REMARK                         _______ _______ _______ _____ _____    ______ ____
ROOT
ATOM      1  C   UNL     1       5.773  -4.661  -2.189  0.00  0.00    +0.244 C 
ATOM      2  O   UNL     1       5.426  -4.257  -3.279  0.00  0.00    -0.273 OA
ATOM      3  N   UNL     1       7.083  -4.721  -1.878  0.00  0.00    -0.251 N 
ENDROOT
BRANCH   3   4
ATOM      4  C   UNL     1       8.037  -4.204  -2.762  0.00  0.00    +0.038 A 
ATOM      5  C   UNL     1       9.389  -4.426  -2.536  0.00  0.00    +0.024 A 
ATOM      6  C   UNL     1      10.327  -3.914  -3.410  0.00  0.00    +0.006 A 
ATOM      7  C   UNL     1       9.922  -3.181  -4.511  0.00  0.00    -0.044 A 
ATOM      8  C   UNL     1       8.576  -2.958  -4.739  0.00  0.00    +0.006 A 
ATOM      9  C   UNL     1       7.633  -3.472  -3.871  0.00  0.00    +0.024 A 
BRANCH   7  10
ATOM     10  C   UNL     1      10.948  -2.624  -5.463  0.00  0.00    +0.019 C 
ATOM     11  C   UNL     1      10.828  -1.099  -5.508  0.00  0.00    +0.008 C 
ATOM     12  C   UNL     1      11.870  -0.534  -6.474  0.00  0.00    +0.001 C 
ATOM     13  C   UNL     1      11.632  -1.106  -7.873  0.00  0.00    +0.000 C 
ATOM     14  C   UNL     1      11.752  -2.630  -7.828  0.00  0.00    +0.001 C 
ATOM     15  C   UNL     1      10.710  -3.196  -6.862  0.00  0.00    +0.008 C 
ENDBRANCH   7  10
ENDBRANCH   3   4
BRANCH   1  16
ATOM     16  C   UNL     1       4.739  -5.095  -1.182  0.00  0.00    +0.264 C 
BRANCH  16  20
ATOM     17  C   UNL     1       1.582  -3.853  -2.158  0.00  0.00    +0.239 A 
ATOM     18  N   UNL     1       1.572  -5.078  -2.707  0.00  0.00    -0.105 NA
ATOM     19  N   UNL     1       2.696  -5.639  -2.412  0.00  0.00    -0.045 NA
ATOM     20  N   UNL     1       3.400  -4.822  -1.709  0.00  0.00    -0.154 N 
ATOM     21  N   UNL     1       2.745  -3.724  -1.545  0.00  0.00    -0.127 NA
BRANCH  17  26
ATOM     22  C   UNL     1      -0.972   0.418  -1.503  0.00  0.00    +0.086 C 
ATOM     23  C   UNL     1      -0.617  -0.978  -1.946  0.00  0.00    +0.103 A 
ATOM     24  C   UNL     1      -1.401  -1.792  -2.679  0.00  0.00    +0.045 A 
ATOM     25  C   UNL     1      -0.687  -2.993  -2.866  0.00  0.00    +0.053 A 
ATOM     26  C   UNL     1       0.504  -2.844  -2.230  0.00  0.00    +0.175 A 
ATOM     27  O   UNL     1       0.536  -1.614  -1.682  0.00  0.00    -0.457 OA
ENDBRANCH  17  26
ENDBRANCH  16  20
ENDBRANCH   1  16
BRANCH   3  28
ATOM     28  C   UNL     1       7.509  -5.329  -0.615  0.00  0.00    +0.233 C 
BRANCH  28  29
ATOM     29  C   UNL     1       8.296  -4.323   0.185  0.00  0.00    +0.135 A 
ATOM     30  C   UNL     1       8.341  -4.248   1.528  0.00  0.00    +0.047 A 
ATOM     31  C   UNL     1       9.193  -3.167   1.849  0.00  0.00    +0.045 A 
ATOM     32  C   UNL     1       9.618  -2.646   0.684  0.00  0.00    +0.102 A 
ATOM     33  O   UNL     1       9.076  -3.354  -0.320  0.00  0.00    -0.462 OA
ATOM     34  C   UNL     1      10.549  -1.470   0.532  0.00  0.00    +0.086 C 
ENDBRANCH  28  29
BRANCH  28  35
ATOM     35  C   UNL     1       8.373  -6.530  -0.901  0.00  0.00    +0.242 C 
ATOM     36  O   UNL     1       8.592  -6.861  -2.048  0.00  0.00    -0.273 OA
ATOM     37  N   UNL     1       8.903  -7.237   0.116  0.00  0.00    -0.311 N 
ATOM     38  H   UNL     1       8.729  -6.973   1.033  0.00  0.00    +0.149 HD
BRANCH  37  39
ATOM     39  C   UNL     1       9.743  -8.405  -0.162  0.00  0.00    +0.073 C 
ATOM     40  C   UNL     1       8.866  -9.667  -0.295  0.00  0.00    +0.022 C 
ATOM     41  C   UNL     1       9.713 -10.788   0.357  0.00  0.00    +0.002 C 
ATOM     42  C   UNL     1      10.373 -10.064   1.556  0.00  0.00    +0.002 C 
ATOM     43  C   UNL     1      10.701  -8.657   1.015  0.00  0.00    +0.022 C 
ENDBRANCH  37  39
ENDBRANCH  28  35
ENDBRANCH   3  28
TORSDOF 9
