REMARK  Name = ZINC14882220
REMARK  7 active torsions:
REMARK  status: ('A' for Active; 'I' for Inactive)
REMARK    1  A    between atoms: C_1  and  C_2
REMARK    2  A    between atoms: C_2  and  C_3
REMARK    3  A    between atoms: C_3  and  C_20
REMARK    4  A    between atoms: N_6  and  C_10
REMARK    5  A    between atoms: C_10  and  C_11
REMARK    6  A    between atoms: C_25  and  C_26
REMARK    7  A    between atoms: C_25  and  N_65
REMARK                            x       y       z     vdW  Elec       q    Type
REMARK                         _______ _______ _______ _____ _____    ______ ____
ROOT
ATOM      1  C   UNL     1      -2.811   2.002   3.511  0.00  0.00    +0.115 C 
ATOM      2  C   UNL     1      -2.617   1.373   2.145  0.00  0.00    +0.247 C 
ATOM      3  O   UNL     1      -3.024   0.294   1.771  0.00  0.00    -0.273 OA
ATOM      4  N   UNL     1      -1.898   2.264   1.433  0.00  0.00    -0.220 N 
ATOM      5  C   UNL     1      -1.620   3.359   2.149  0.00  0.00    +0.310 C 
ATOM      6  O   UNL     1      -0.986   4.303   1.720  0.00  0.00    -0.252 OA
ATOM      7  N   UNL     1      -2.120   3.298   3.396  0.00  0.00    -0.285 N 
ATOM      8  H   UNL     1      -2.041   3.976   4.086  0.00  0.00    +0.151 HD
ENDROOT
BRANCH   1   9
ATOM      9  C   UNL     1      -2.167   1.142   4.600  0.00  0.00    +0.018 C 
ATOM     10  C   UNL     1      -2.262   1.866   5.946  0.00  0.00    -0.013 C 
ATOM     11  C   UNL     1      -1.562   1.030   7.020  0.00  0.00    -0.078 C 
ATOM     12  C   UNL     1      -0.038   0.097   5.382  0.00  0.00    -0.078 C 
ATOM     13  C   UNL     1      -0.693   0.906   4.260  0.00  0.00    -0.013 C 
ATOM     14  N   UNL     1      -0.142   0.859   6.645  0.00  0.00    +0.380 N 
ATOM     15  H   UNL     1       0.281   1.784   6.511  0.00  0.00    -0.082 HD
BRANCH  14  16
ATOM     16  C   UNL     1       0.582   0.151   7.722  0.00  0.00    -0.075 C 
BRANCH  16  17
ATOM     17  C   UNL     1       0.360   0.892   9.042  0.00  0.00    -0.024 C 
ATOM     18  C   UNL     1       0.909   2.320   8.931  0.00  0.00    +0.006 C 
ATOM     19  C   UNL     1       0.516   3.090  10.194  0.00  0.00    +0.027 C 
ATOM     20  C   UNL     1       0.867   2.292  11.415  0.00  0.00    -0.031 C 
ATOM     21  C   UNL     1       1.119   1.022  11.404  0.00  0.00    -0.031 C 
ATOM     22  C   UNL     1       1.106   0.173  10.167  0.00  0.00    +0.028 C 
ENDBRANCH  16  17
ENDBRANCH  14  16
ENDBRANCH   1   9
BRANCH   1  24
ATOM     23  C   UNL     1      -4.930   3.026   2.671  0.00  0.00    +0.006 C 
ATOM     24  C   UNL     1      -4.299   2.209   3.801  0.00  0.00    +0.032 C 
ENDBRANCH   1  24
BRANCH   4  25
ATOM     25  C   UNL     1      -1.479   2.059   0.044  0.00  0.00    +0.153 C 
BRANCH  25  26
ATOM     26  C   UNL     1      -0.130   1.387   0.021  0.00  0.00    -0.026 A 
ATOM     27  C   UNL     1      -0.048   0.007   0.006  0.00  0.00    +0.009 A 
ATOM     28  C   UNL     1       1.187  -0.615  -0.022  0.00  0.00    +0.050 A 
ATOM     29  C   UNL     1       2.345   0.145  -0.035  0.00  0.00    +0.166 A 
ATOM     30  C   UNL     1       2.262   1.535  -0.020  0.00  0.00    +0.167 A 
ATOM     31  C   UNL     1       1.022   2.151   0.008  0.00  0.00    +0.054 A 
ATOM     32  O   UNL     1       3.527   2.048  -0.037  0.00  0.00    -0.453 OA
ATOM     33  C   UNL     1       4.388   0.961   0.349  0.00  0.00    +0.466 C 
ATOM     34  O   UNL     1       3.662  -0.213  -0.061  0.00  0.00    -0.453 OA
ENDBRANCH  25  26
ENDBRANCH   4  25
TORSDOF 6
