REMARK  Name = ZINC20137438
REMARK  7 active torsions:
REMARK  status: ('A' for Active; 'I' for Inactive)
REMARK    1  A    between atoms: C_1  and  C_2
REMARK    2  A    between atoms: C_2  and  O_3
REMARK    3  A    between atoms: O_3  and  C_4
REMARK    4  A    between atoms: C_4  and  C_6
REMARK    5  A    between atoms: C_10  and  N_11
REMARK    6  A    between atoms: C_12  and  C_14
REMARK    7  A    between atoms: C_16  and  C_19
REMARK                            x       y       z     vdW  Elec       q    Type
REMARK                         _______ _______ _______ _____ _____    ______ ____
ROOT
ATOM      1  N   UNL     1      -0.011   0.966   0.007  0.00  0.00    -0.274 N 
ATOM      2  C   UNL     1       1.147   1.655   0.000  0.00  0.00    +0.270 C 
ATOM      3  O   UNL     1       1.130   2.870   0.007  0.00  0.00    -0.268 OA
ATOM      4  H   UNL     1       0.004  -0.134   0.006  0.00  0.00    +0.156 HD
ENDROOT
BRANCH   1   9
ATOM      5  C   UNL     1      -2.504   1.113   0.014  0.00  0.00    +0.091 A 
ATOM      6  C   UNL     1      -3.615   2.051   0.031  0.00  0.00    -0.021 A 
ATOM      7  C   UNL     1      -3.267   3.356   0.035  0.00  0.00    -0.004 A 
ATOM      8  S   UNL     1      -1.496   3.352   0.027  0.00  0.00    -0.077 S 
ATOM      9  C   UNL     1      -1.220   1.642   0.017  0.00  0.00    +0.087 A 
ATOM     10  C   UNL     1      -4.188   4.536   0.045  0.00  0.00    +0.043 C 
ATOM     11  C   UNL     1      -5.597   4.053  -0.328  0.00  0.00    +0.005 C 
ATOM     12  C   UNL     1      -5.930   2.811   0.504  0.00  0.00    +0.005 C 
ATOM     13  C   UNL     1      -5.079   1.629   0.037  0.00  0.00    +0.037 C 
BRANCH   5  14
ATOM     14  C   UNL     1      -2.731  -0.333   0.000  0.00  0.00    +0.342 C 
ATOM     15  O   UNL     1      -2.823  -0.945   1.048  0.00  0.00    -0.245 OA
BRANCH  14  16
ATOM     16  O   UNL     1      -2.837  -0.988  -1.174  0.00  0.00    -0.461 OA
BRANCH  16  18
ATOM     17  C   UNL     1      -3.155  -2.985  -2.532  0.00  0.00    +0.048 C 
ATOM     18  C   UNL     1      -3.062  -2.421  -1.112  0.00  0.00    +0.229 C 
ENDBRANCH  16  18
ENDBRANCH  14  16
ENDBRANCH   5  14
ENDBRANCH   1   9
BRANCH   2  19
ATOM     19  C   UNL     1       2.441   0.932  -0.016  0.00  0.00    +0.169 A 
ATOM     20  C   UNL     1       3.738   1.508  -0.031  0.00  0.00    +0.086 A 
ATOM     21  C   UNL     1       4.575   0.426  -0.040  0.00  0.00    +0.168 A 
ATOM     22  O   UNL     1       3.787  -0.663  -0.038  0.00  0.00    -0.354 OA
ATOM     23  N   UNL     1       2.615  -0.368  -0.025  0.00  0.00    -0.073 NA
BRANCH  21  24
ATOM     24  C   UNL     1       6.053   0.451  -0.053  0.00  0.00    +0.020 A 
ATOM     25  C   UNL     1       6.734   1.669  -0.058  0.00  0.00    +0.013 A 
ATOM     26  C   UNL     1       8.113   1.685  -0.067  0.00  0.00    +0.016 A 
ATOM     27  C   UNL     1       8.822   0.496  -0.080  0.00  0.00    +0.018 A 
ATOM     28  C   UNL     1       8.152  -0.716  -0.080  0.00  0.00    +0.016 A 
ATOM     29  C   UNL     1       6.773  -0.745  -0.067  0.00  0.00    +0.013 A 
ATOM     30 BR   UNL     1      10.713   0.526  -0.099  0.00  0.00    -0.050 Br
ENDBRANCH  21  24
ENDBRANCH   2  19
TORSDOF 6
