REMARK  Name = ZINC63515292
REMARK  6 active torsions:
REMARK  status: ('A' for Active; 'I' for Inactive)
REMARK    1  A    between atoms: C_1  and  C_2
REMARK    2  A    between atoms: C_4  and  C_13
REMARK    3  A    between atoms: C_13  and  C_14
REMARK    4  A    between atoms: C_14  and  N_15
REMARK    5  A    between atoms: C_20  and  C_21
REMARK    6  A    between atoms: C_20  and  O_22
REMARK                            x       y       z     vdW  Elec       q    Type
REMARK                         _______ _______ _______ _____ _____    ______ ____
ROOT
ATOM      1  C   UNL     1      -3.765  -1.048  -0.551  0.00  0.00    +0.118 C 
ENDROOT
BRANCH   1   2
ATOM      2  N   UNL     1      -4.819  -0.826  -1.544  0.00  0.00    -0.235 N 
ATOM      3  C   UNL     1      -5.712   0.183  -1.542  0.00  0.00    +0.406 C 
ATOM      4  O   UNL     1      -5.730   1.063  -0.704  0.00  0.00    -0.226 OA
ATOM      5  O   UNL     1      -6.581   0.113  -2.567  0.00  0.00    -0.439 OA
ATOM      6  C   UNL     1      -6.024  -0.763  -3.557  0.00  0.00    +0.160 C 
ATOM      7  C   UNL     1      -5.090  -1.664  -2.731  0.00  0.00    +0.175 C 
ATOM      8  C   UNL     1      -3.798  -1.961  -3.495  0.00  0.00    +0.068 C 
ATOM      9  C   UNL     1      -7.115  -1.590  -4.223  0.00  0.00    +0.053 C 
ATOM     10  C   UNL     1      -8.046  -0.669  -5.016  0.00  0.00    +0.004 C 
ATOM     11  C   UNL     1      -7.234   0.089  -6.069  0.00  0.00    +0.000 C 
ATOM     12  C   UNL     1      -6.163   0.936  -5.379  0.00  0.00    +0.004 C 
ATOM     13  C   UNL     1      -5.224   0.022  -4.587  0.00  0.00    +0.053 C 
BRANCH   7  14
ATOM     14  O   UNL     1      -5.750  -2.876  -2.360  0.00  0.00    -0.368 OA
ATOM     15  H   UNL     1      -5.236  -3.438  -1.764  0.00  0.00    +0.212 HD
ENDBRANCH   7  14
ENDBRANCH   1   2
BRANCH   1  16
ATOM     16  C   UNL     1      -2.494  -0.316  -0.984  0.00  0.00    +0.052 C 
BRANCH  16  19
ATOM     17  C   UNL     1      -0.019   1.526   0.010  0.00  0.00    +0.035 C 
ATOM     18  C   UNL     1       0.002  -0.004   0.002  0.00  0.00    +0.103 C 
ATOM     19  C   UNL     1      -1.410  -0.545   0.038  0.00  0.00    -0.037 C 
ATOM     20  C   UNL     1      -1.503  -1.275   1.172  0.00  0.00    +0.001 A 
ATOM     21  C   UNL     1      -2.599  -2.045   1.772  0.00  0.00    +0.030 A 
ATOM     22  C   UNL     1      -2.386  -2.687   2.944  0.00  0.00    +0.042 A 
ATOM     23  C   UNL     1      -1.147  -2.633   3.599  0.00  0.00    +0.022 A 
ATOM     24  C   UNL     1      -0.093  -1.946   3.110  0.00  0.00    +0.027 A 
ATOM     25  C   UNL     1      -0.205  -1.235   1.884  0.00  0.00    +0.043 A 
ATOM     26  N   UNL     1       0.658  -0.508   1.214  0.00  0.00    -0.378 N 
ATOM     27 CL   UNL     1      -3.680  -3.598   3.657  0.00  0.00    -0.084 Cl
ATOM     28  H   UNL     1       1.576  -0.332   1.475  0.00  0.00    +0.160 HD
ENDBRANCH  16  19
ENDBRANCH   1  16
TORSDOF 4
