REMARK  Name = ZINC02327729
REMARK  7 active torsions:
REMARK  status: ('A' for Active; 'I' for Inactive)
REMARK    1  A    between atoms: C_1  and  C_2
REMARK    2  A    between atoms: C_7  and  N_8
REMARK    3  A    between atoms: C_9  and  C_11
REMARK    4  A    between atoms: C_11  and  C_33
REMARK    5  A    between atoms: N_13  and  C_27
REMARK    6  A    between atoms: C_16  and  C_19
REMARK    7  A    between atoms: C_19  and  C_20
REMARK                            x       y       z     vdW  Elec       q    Type
REMARK                         _______ _______ _______ _____ _____    ______ ____
ROOT
ATOM      1  C   UNL     1       2.357   8.865  -3.753  0.00  0.00    +0.142 C 
ATOM      2  C   UNL     1       1.585   8.245  -2.770  0.00  0.00    +0.098 C 
ATOM      3  N   UNL     1       0.877   8.835  -1.750  0.00  0.00    -0.232 N 
ATOM      4  C   UNL     1       0.178   8.136  -0.873  0.00  0.00    +0.238 C 
ATOM      5  O   UNL     1      -0.443   8.663   0.024  0.00  0.00    -0.274 OA
ATOM      6  C   UNL     1       0.204   6.627  -1.061  0.00  0.00    +0.143 C 
ATOM      7  S   UNL     1       1.285   6.500  -2.540  0.00  0.00    -0.095 S 
ENDROOT
BRANCH   3   8
ATOM      8  C   UNL     1       0.897  10.232  -1.636  0.00  0.00    +0.042 A 
ATOM      9  C   UNL     1      -0.083  10.995  -2.257  0.00  0.00    +0.024 A 
ATOM     10  C   UNL     1      -0.064  12.370  -2.138  0.00  0.00    +0.002 A 
ATOM     11  C   UNL     1       0.937  12.989  -1.411  0.00  0.00    +0.000 A 
ATOM     12  C   UNL     1       1.918  12.233  -0.797  0.00  0.00    +0.002 A 
ATOM     13  C   UNL     1       1.901  10.856  -0.907  0.00  0.00    +0.024 A 
ENDBRANCH   3   8
BRANCH   1  15
ATOM     14  N   UNL     1       3.860   8.653  -5.656  0.00  0.00    -0.281 N 
ATOM     15  C   UNL     1       3.115   8.055  -4.706  0.00  0.00    +0.261 C 
ATOM     16  O   UNL     1       3.073   6.840  -4.640  0.00  0.00    -0.269 OA
ATOM     17  H   UNL     1       3.948   9.619  -5.667  0.00  0.00    +0.155 HD
BRANCH  14  24
ATOM     18  C   UNL     1       4.130   9.736  -8.274  0.00  0.00    +0.045 C 
ATOM     19  C   UNL     1       4.660   8.371  -7.917  0.00  0.00    -0.029 A 
ATOM     20  C   UNL     1       5.304   7.609  -8.872  0.00  0.00    +0.005 A 
ATOM     21  C   UNL     1       5.787   6.354  -8.547  0.00  0.00    +0.000 A 
ATOM     22  C   UNL     1       5.631   5.861  -7.264  0.00  0.00    +0.002 A 
ATOM     23  C   UNL     1       4.992   6.621  -6.303  0.00  0.00    +0.023 A 
ATOM     24  C   UNL     1       4.507   7.881  -6.627  0.00  0.00    +0.037 A 
ENDBRANCH  14  24
ENDBRANCH   1  15
BRANCH   1  25
ATOM     25  C   UNL     1       2.406  10.294  -3.830  0.00  0.00    +0.107 C 
ATOM     26  N   UNL     1       2.445  11.428  -3.892  0.00  0.00    -0.191 NA
ENDBRANCH   1  25
BRANCH   6  27
ATOM     27  C   UNL     1       0.832   5.928   0.147  0.00  0.00    +0.059 C 
BRANCH  27  28
ATOM     28  C   UNL     1       0.727   4.435  -0.025  0.00  0.00    -0.046 A 
ATOM     29  C   UNL     1       1.738   3.740  -0.662  0.00  0.00    +0.005 A 
ATOM     30  C   UNL     1       1.641   2.370  -0.821  0.00  0.00    +0.015 A 
ATOM     31  C   UNL     1       0.532   1.695  -0.343  0.00  0.00    +0.018 A 
ATOM     32  C   UNL     1      -0.482   2.392   0.289  0.00  0.00    +0.015 A 
ATOM     33  C   UNL     1      -0.382   3.761   0.453  0.00  0.00    +0.005 A 
ATOM     34 BR   UNL     1       0.400  -0.178  -0.560  0.00  0.00    -0.050 Br
ENDBRANCH  27  28
ENDBRANCH   6  27
TORSDOF 6
