REMARK  Name = ZINC39674253
REMARK  11 active torsions:
REMARK  status: ('A' for Active; 'I' for Inactive)
REMARK    1  A    between atoms: C_1  and  C_2
REMARK    2  A    between atoms: C_4  and  C_9
REMARK    3  A    between atoms: C_5  and  C_8
REMARK    4  A    between atoms: C_9  and  C_11
REMARK    5  A    between atoms: C_9  and  N_12
REMARK    6  A    between atoms: C_13  and  C_15
REMARK    7  A    between atoms: C_26  and  C_28
REMARK    8  A    between atoms: C_31  and  O_36
REMARK    9  A    between atoms: C_33  and  O_34
REMARK   10  A    between atoms: O_34  and  C_35
REMARK   11  A    between atoms: O_36  and  C_37
REMARK                            x       y       z     vdW  Elec       q    Type
REMARK                         _______ _______ _______ _____ _____    ______ ____
ROOT
ATOM      1  C   UNL     1      -3.106  -0.728  -5.544  0.00  0.00    +0.100 C 
ATOM      2  C   UNL     1      -3.849  -2.027  -5.158  0.00  0.00    +0.121 C 
ATOM      3  N   UNL     1      -4.600  -2.405  -6.378  0.00  0.00    -0.296 N 
ATOM      4  C   UNL     1      -3.671  -2.099  -7.493  0.00  0.00    +0.115 C 
ATOM      5  C   UNL     1      -2.991  -0.780  -7.077  0.00  0.00    -0.004 C 
ATOM      6  C   UNL     1      -1.524  -0.789  -7.497  0.00  0.00    -0.010 C 
ATOM      7  C   UNL     1      -1.435  -0.781  -9.025  0.00  0.00    -0.082 C 
ATOM      8  N   UNL     1      -2.108   0.413  -9.551  0.00  0.00    +0.379 N 
ATOM      9  C   UNL     1      -3.538   0.367  -9.222  0.00  0.00    -0.082 C 
ATOM     10  C   UNL     1      -3.716   0.408  -7.702  0.00  0.00    -0.010 C 
ATOM     11  C   UNL     1      -5.846  -2.913  -6.457  0.00  0.00    +0.250 C 
ATOM     12  O   UNL     1      -6.518  -3.036  -5.451  0.00  0.00    -0.270 OA
ATOM     13  H   UNL     1      -1.696   1.238  -9.140  0.00  0.00    -0.086 HD
ATOM     14  H   UNL     1      -1.996   0.448 -10.553  0.00  0.00    -0.086 HD
ENDROOT
BRANCH  11  15
ATOM     15  C   UNL     1      -6.395  -3.319  -7.763  0.00  0.00    +0.079 A 
ATOM     16  C   UNL     1      -5.557  -3.874  -8.734  0.00  0.00    +0.020 A 
ATOM     17  C   UNL     1      -6.073  -4.253  -9.952  0.00  0.00    +0.046 A 
ATOM     18  C   UNL     1      -7.428  -4.084 -10.222  0.00  0.00    +0.124 A 
ATOM     19  C   UNL     1      -8.268  -3.534  -9.265  0.00  0.00    +0.092 A 
ATOM     20  C   UNL     1      -7.762  -3.155  -8.034  0.00  0.00    +0.136 A 
BRANCH  20  21
ATOM     21  O   UNL     1      -8.583  -2.621  -7.095  0.00  0.00    -0.494 OA
ATOM     22  C   UNL     1      -9.962  -2.485  -7.442  0.00  0.00    +0.277 C 
ENDBRANCH  20  21
BRANCH  18  23
ATOM     23  O   UNL     1      -7.929  -4.460 -11.426  0.00  0.00    -0.495 OA
ATOM     24  C   UNL     1      -7.009  -5.019 -12.365  0.00  0.00    +0.277 C 
ENDBRANCH  18  23
ENDBRANCH  11  15
BRANCH   1  26
ATOM     25  N   UNL     1      -1.159   0.478  -4.611  0.00  0.00    -0.309 N 
ATOM     26  C   UNL     1      -1.736  -0.701  -4.916  0.00  0.00    +0.219 C 
ATOM     27  O   UNL     1      -1.154  -1.739  -4.685  0.00  0.00    -0.275 OA
ATOM     28  H   UNL     1      -1.625   1.309  -4.796  0.00  0.00    +0.149 HD
BRANCH  25  29
ATOM     29  C   UNL     1       0.172   0.505  -4.000  0.00  0.00    +0.100 C 
ATOM     30  C   UNL     1       1.238   0.433  -5.095  0.00  0.00    +0.033 C 
BRANCH  29  33
ATOM     31  C   UNL     1       1.122   3.534  -4.834  0.00  0.00    +0.039 C 
ATOM     32  C   UNL     1       0.145   3.208  -3.703  0.00  0.00    +0.154 C 
ATOM     33  C   UNL     1       0.341   1.783  -3.218  0.00  0.00    -0.001 C 
ATOM     34  C   UNL     1       0.696   1.923  -1.939  0.00  0.00    +0.063 C 
ATOM     35  N   UNL     1       0.739   3.229  -1.594  0.00  0.00    -0.159 NA
ATOM     36  N   UNL     1       0.447   4.013  -2.506  0.00  0.00    -0.180 NA
ATOM     37  C   UNL     1       1.006   0.781  -1.006  0.00  0.00    +0.067 C 
ENDBRANCH  29  33
ENDBRANCH  25  29
ENDBRANCH   1  26
TORSDOF 6
