REMARK  Name = ZINC39945648
REMARK  7 active torsions:
REMARK  status: ('A' for Active; 'I' for Inactive)
REMARK    1  A    between atoms: C_4  and  C_7
REMARK    2  A    between atoms: C_7  and  C_9
REMARK    3  A    between atoms: C_7  and  O_20
REMARK    4  A    between atoms: C_9  and  C_11
REMARK    5  A    between atoms: O_20  and  C_21
REMARK    6  A    between atoms: C_21  and  C_23
REMARK    7  A    between atoms: C_23  and  C_24
REMARK                            x       y       z     vdW  Elec       q    Type
REMARK                         _______ _______ _______ _____ _____    ______ ____
ROOT
ATOM      1  C   UNL     1       3.711  -0.707  -0.038  0.00  0.00    +0.277 C 
ENDROOT
BRANCH   1   5
ATOM      2  C   UNL     1      -0.017   1.378   0.010  0.00  0.00    +0.000 A 
ATOM      3  C   UNL     1       1.171   2.086   0.002  0.00  0.00    +0.000 A 
ATOM      4  C   UNL     1       2.377   1.411  -0.013  0.00  0.00    +0.008 A 
ATOM      5  C   UNL     1       2.396   0.029  -0.020  0.00  0.00    +0.000 A 
ATOM      6  C   UNL     1       1.208  -0.679  -0.012  0.00  0.00    +0.008 A 
ATOM      7  C   UNL     1       0.002  -0.004   0.002  0.00  0.00    +0.000 A 
ENDBRANCH   1   5
BRANCH   1   8
ATOM      8  C   UNL     1       4.044  -1.175   1.356  0.00  0.00    +0.206 C 
ATOM      9  O   UNL     1       3.918  -2.346   1.649  0.00  0.00    -0.288 OA
BRANCH   8  10
ATOM     10  C   UNL     1       4.501  -0.251   2.320  0.00  0.00    +0.027 C 
ATOM     11  C   UNL     1       4.852  -0.515   3.631  0.00  0.00    +0.006 A 
ATOM     12  C   UNL     1       4.873  -1.702   4.401  0.00  0.00    +0.010 A 
ATOM     13  C   UNL     1       5.271  -1.669   5.693  0.00  0.00    +0.001 A 
ATOM     14  C   UNL     1       5.675  -0.483   6.327  0.00  0.00    +0.002 A 
ATOM     15  C   UNL     1       5.691   0.703   5.682  0.00  0.00    +0.026 A 
ATOM     16  C   UNL     1       5.273   0.755   4.271  0.00  0.00    +0.043 A 
ATOM     17  N   UNL     1       5.192   1.742   3.424  0.00  0.00    -0.380 N 
ATOM     18  C   UNL     1       4.716   1.235   2.133  0.00  0.00    +0.152 C 
ATOM     19  H   UNL     1       5.416   2.666   3.616  0.00  0.00    +0.160 HD
ENDBRANCH   8  10
ENDBRANCH   1   8
BRANCH   1  20
ATOM     20  O   UNL     1       3.614  -1.836  -0.908  0.00  0.00    -0.448 OA
BRANCH  20  21
ATOM     21  C   UNL     1       3.938  -1.642  -2.196  0.00  0.00    +0.309 C 
ATOM     22  O   UNL     1       4.293  -0.550  -2.572  0.00  0.00    -0.251 OA
BRANCH  21  23
ATOM     23  C   UNL     1       3.860  -2.786  -3.174  0.00  0.00    +0.127 C 
BRANCH  23  24
ATOM     24  C   UNL     1       4.279  -2.300  -4.563  0.00  0.00    -0.017 C 
ATOM     25  C   UNL     1       5.715  -1.774  -4.507  0.00  0.00    +0.011 C 
ATOM     26  C   UNL     1       6.134  -1.288  -5.896  0.00  0.00    -0.009 C 
ATOM     27  C   UNL     1       6.054  -2.450  -6.888  0.00  0.00    +0.007 C 
ATOM     28  C   UNL     1       4.619  -2.976  -6.944  0.00  0.00    -0.009 C 
ATOM     29  C   UNL     1       4.199  -3.462  -5.555  0.00  0.00    +0.011 C 
ATOM     30  C   UNL     1       3.682  -1.854  -7.396  0.00  0.00    +0.021 C 
ATOM     31  C   UNL     1       3.761  -0.693  -6.404  0.00  0.00    +0.027 C 
ATOM     32  C   UNL     1       5.197  -0.167  -6.348  0.00  0.00    +0.021 C 
ATOM     33  C   UNL     1       3.342  -1.179  -5.015  0.00  0.00    +0.025 C 
ATOM     34 BR   UNL     1       2.557   0.749  -6.984  0.00  0.00    -0.084 Br
ENDBRANCH  23  24
ENDBRANCH  21  23
ENDBRANCH  20  21
ENDBRANCH   1  20
TORSDOF 7
