REMARK  Name = ZINC59105788
REMARK  5 active torsions:
REMARK  status: ('A' for Active; 'I' for Inactive)
REMARK    1  A    between atoms: C_2  and  C_3
REMARK    2  A    between atoms: C_3  and  C_4
REMARK    3  A    between atoms: C_6  and  C_11
REMARK    4  A    between atoms: C_9  and  O_10
REMARK    5  A    between atoms: N_17  and  C_18
REMARK                            x       y       z     vdW  Elec       q    Type
REMARK                         _______ _______ _______ _____ _____    ______ ____
ROOT
ATOM      1  C   UNL     1      -0.735  -5.361  -1.857  0.00  0.00    +0.028 C 
ATOM      2  C   UNL     1      -0.858  -6.233  -2.890  0.00  0.00    +0.078 C 
ATOM      3  C   UNL     1      -0.703  -7.700  -2.900  0.00  0.00    +0.256 C 
ATOM      4  O   UNL     1      -0.426  -8.318  -1.889  0.00  0.00    -0.269 OA
ATOM      5  N   UNL     1      -0.880  -8.314  -4.058  0.00  0.00    -0.260 N 
ATOM      6  C   UNL     1      -1.194  -7.597  -5.192  0.00  0.00    +0.166 C 
ATOM      7  N   UNL     1      -1.402  -8.044  -6.410  0.00  0.00    -0.226 NA
ATOM      8  S   UNL     1      -1.257  -5.913  -4.603  0.00  0.00    -0.049 S 
ATOM      9  H   UNL     1      -0.788  -9.278  -4.109  0.00  0.00    +0.157 HD
ENDROOT
BRANCH   7  10
ATOM     10  C   UNL     1      -1.314  -9.386  -6.671  0.00  0.00    +0.067 A 
ATOM     11  C   UNL     1      -0.253 -10.132  -6.154  0.00  0.00    +0.030 A 
ATOM     12  C   UNL     1      -0.170 -11.483  -6.420  0.00  0.00    +0.040 A 
ATOM     13  C   UNL     1      -1.137 -12.100  -7.198  0.00  0.00    +0.124 A 
ATOM     14  C   UNL     1      -2.191 -11.364  -7.715  0.00  0.00    +0.040 A 
ATOM     15  C   UNL     1      -2.288 -10.013  -7.451  0.00  0.00    +0.030 A 
ATOM     16  F   UNL     1      -1.050 -13.423  -7.455  0.00  0.00    -0.205 F 
ENDBRANCH   7  10
BRANCH   1  19
ATOM     17  C   UNL     1      -1.052  -1.670  -1.293  0.00  0.00    -0.002 A 
ATOM     18  C   UNL     1      -1.012  -3.026  -1.052  0.00  0.00    +0.015 A 
ATOM     19  C   UNL     1      -0.778  -3.915  -2.108  0.00  0.00    -0.023 A 
ATOM     20  C   UNL     1      -0.586  -3.420  -3.404  0.00  0.00    +0.011 A 
ATOM     21  C   UNL     1      -0.627  -2.063  -3.633  0.00  0.00    +0.046 A 
ATOM     22  C   UNL     1      -0.865  -1.185  -2.582  0.00  0.00    +0.120 A 
BRANCH  22  23
ATOM     23  O   UNL     1      -0.911   0.152  -2.814  0.00  0.00    -0.506 OA
ATOM     24  H   UNL     1      -0.055   0.594  -2.735  0.00  0.00    +0.292 HD
ENDBRANCH  22  23
BRANCH  17  25
ATOM     25  C   UNL     1      -1.303  -0.712  -0.157  0.00  0.00    +0.065 C 
BRANCH  25  27
ATOM     26  C   UNL     1       0.153   1.185   0.334  0.00  0.00    +0.004 C 
ATOM     27  C   UNL     1       0.005  -0.116   0.296  0.00  0.00    -0.030 C 
ENDBRANCH  25  27
ENDBRANCH  17  25
ENDBRANCH   1  19
TORSDOF 5
