REMARK  Name = ZINC33126321
REMARK  13 active torsions:
REMARK  status: ('A' for Active; 'I' for Inactive)
REMARK    1  A    between atoms: C_1  and  C_2
REMARK    2  A    between atoms: C_2  and  C_3
REMARK    3  A    between atoms: C_3  and  N_4
REMARK    4  A    between atoms: N_4  and  C_5
REMARK    5  A    between atoms: N_4  and  C_15
REMARK    6  A    between atoms: C_5  and  C_6
REMARK    7  A    between atoms: C_9  and  C_12
REMARK    8  A    between atoms: C_12  and  C_13
REMARK    9  A    between atoms: C_12  and  C_14
REMARK   10  A    between atoms: C_15  and  C_16
REMARK   11  A    between atoms: C_24  and  C_27
REMARK   12  A    between atoms: C_30  and  O_33
REMARK   13  A    between atoms: O_33  and  C_34
REMARK                            x       y       z     vdW  Elec       q    Type
REMARK                         _______ _______ _______ _____ _____    ______ ____
ROOT
ATOM      1  C   UNL     1      -1.153   2.110  -1.280  0.00  0.00    +0.032 A 
ATOM      2  C   UNL     1      -0.708   3.133  -2.070  0.00  0.00    +0.093 A 
ATOM      3  C   UNL     1      -1.567   3.664  -3.048  0.00  0.00    +0.273 A 
ATOM      4  O   UNL     1      -1.198   4.574  -3.772  0.00  0.00    -0.266 OA
ATOM      5  N   UNL     1      -2.809   3.152  -3.167  0.00  0.00    -0.201 N 
ATOM      6  C   UNL     1      -3.209   2.129  -2.345  0.00  0.00    +0.158 A 
ATOM      7  N   UNL     1      -2.384   1.635  -1.429  0.00  0.00    -0.234 NA
ATOM      8  C   UNL     1      -4.535   1.799  -2.691  0.00  0.00    +0.075 A 
ATOM      9  C   UNL     1      -4.925   2.617  -3.709  0.00  0.00    +0.066 A 
ATOM     10  N   UNL     1      -3.878   3.458  -4.019  0.00  0.00    -0.288 N 
ATOM     11  H   UNL     1      -3.773   4.257  -4.767  0.00  0.00    +0.187 HD
ENDROOT
BRANCH   9  12
ATOM     12  C   UNL     1      -6.244   2.604  -4.369  0.00  0.00    +0.000 A 
ATOM     13  C   UNL     1      -6.519   3.504  -5.403  0.00  0.00    +0.013 A 
ATOM     14  C   UNL     1      -7.751   3.486  -6.019  0.00  0.00    +0.046 A 
ATOM     15  C   UNL     1      -8.723   2.581  -5.608  0.00  0.00    +0.120 A 
ATOM     16  C   UNL     1      -8.455   1.688  -4.577  0.00  0.00    +0.046 A 
ATOM     17  C   UNL     1      -7.224   1.696  -3.959  0.00  0.00    +0.013 A 
BRANCH  15  18
ATOM     18  O   UNL     1      -9.937   2.570  -6.215  0.00  0.00    -0.495 OA
ATOM     19  C   UNL     1     -10.146   3.515  -7.266  0.00  0.00    +0.277 C 
ENDBRANCH  15  18
ENDBRANCH   9  12
BRANCH   1  20
ATOM     20  C   UNL     1      -0.245   1.524  -0.230  0.00  0.00    -0.022 C 
BRANCH  20  21
ATOM     21  N   UNL     1      -0.798   1.797   1.103  0.00  0.00    +0.386 N 
ATOM     22  H   UNL     1      -1.001   2.876   1.171  0.00  0.00    -0.081 HD
BRANCH  21  23
ATOM     23  C   UNL     1      -2.068   1.086   1.303  0.00  0.00    -0.078 C 
BRANCH  23  25
ATOM     24  C   UNL     1      -4.103   0.908   2.742  0.00  0.00    +0.002 C 
ATOM     25  C   UNL     1      -2.782   1.652   2.532  0.00  0.00    -0.022 C 
ENDBRANCH  23  25
ENDBRANCH  21  23
BRANCH  21  26
ATOM     26  C   UNL     1       0.168   1.453   2.155  0.00  0.00    -0.042 C 
BRANCH  26  27
ATOM     27  C   UNL     1       1.239   2.511   2.219  0.00  0.00    -0.064 A 
ATOM     28  C   UNL     1       2.430   2.332   1.540  0.00  0.00    +0.002 A 
ATOM     29  C   UNL     1       3.410   3.305   1.595  0.00  0.00    +0.004 A 
ATOM     30  C   UNL     1       3.203   4.453   2.337  0.00  0.00    -0.045 A 
ATOM     31  C   UNL     1       2.015   4.630   3.020  0.00  0.00    +0.004 A 
ATOM     32  C   UNL     1       1.033   3.659   2.961  0.00  0.00    +0.002 A 
BRANCH  30  33
ATOM     33  C   UNL     1       4.273   5.513   2.400  0.00  0.00    +0.013 C 
ATOM     34  C   UNL     1       5.549   4.913   2.995  0.00  0.00    +0.012 C 
ATOM     35  C   UNL     1       4.563   6.030   0.989  0.00  0.00    +0.012 C 
ENDBRANCH  30  33
ENDBRANCH  26  27
ENDBRANCH  21  26
ENDBRANCH  20  21
ENDBRANCH   1  20
TORSDOF 9
