REMARK  Name = ZINC23667563
REMARK  14 active torsions:
REMARK  status: ('A' for Active; 'I' for Inactive)
REMARK    1  A    between atoms: C_1  and  C_2
REMARK    2  A    between atoms: C_2  and  O_3
REMARK    3  A    between atoms: O_3  and  C_4
REMARK    4  A    between atoms: C_4  and  C_6
REMARK    5  A    between atoms: C_7  and  C_32
REMARK    6  A    between atoms: C_8  and  C_28
REMARK    7  A    between atoms: C_10  and  N_11
REMARK    8  A    between atoms: C_12  and  C_14
REMARK    9  A    between atoms: C_14  and  N_15
REMARK   10  A    between atoms: N_15  and  C_16
REMARK   11  A    between atoms: N_15  and  C_17
REMARK   12  A    between atoms: C_17  and  C_19
REMARK   13  A    between atoms: C_17  and  C_20
REMARK   14  A    between atoms: N_30  and  C_31
REMARK                            x       y       z     vdW  Elec       q    Type
REMARK                         _______ _______ _______ _____ _____    ______ ____
ROOT
ATOM      1  N   UNL     1       2.443   3.891  -1.013  0.00  0.00    -0.281 N 
ATOM      2  C   UNL     1       1.294   3.289  -0.645  0.00  0.00    +0.201 C 
ATOM      3  O   UNL     1       0.303   3.954  -0.429  0.00  0.00    -0.278 OA
ATOM      4  H   UNL     1       3.342   3.288  -1.209  0.00  0.00    +0.155 HD
ENDROOT
BRANCH   1   9
ATOM      5  C   UNL     1       3.576   6.068  -1.512  0.00  0.00    +0.091 A 
ATOM      6  C   UNL     1       3.373   7.439  -1.573  0.00  0.00    -0.015 A 
ATOM      7  C   UNL     1       2.125   7.910  -1.270  0.00  0.00    +0.079 A 
ATOM      8  S   UNL     1       1.221   6.419  -0.901  0.00  0.00    -0.068 S 
ATOM      9  C   UNL     1       2.491   5.265  -1.144  0.00  0.00    +0.087 A 
ATOM     10  C   UNL     1       4.488   8.376  -1.960  0.00  0.00    +0.046 C 
BRANCH   7  11
ATOM     11  C   UNL     1       1.649   9.295  -1.258  0.00  0.00    +0.251 C 
ATOM     12  O   UNL     1       2.408  10.202  -1.545  0.00  0.00    -0.270 OA
ATOM     13  N   UNL     1       0.370   9.565  -0.929  0.00  0.00    -0.314 N 
ATOM     14  C   UNL     1      -0.107  10.950  -0.917  0.00  0.00    +0.128 C 
ATOM     15  H   UNL     1      -0.316   8.745  -0.669  0.00  0.00    +0.149 HD
ENDBRANCH   7  11
BRANCH   5  16
ATOM     16  C   UNL     1       4.884   5.481  -1.821  0.00  0.00    +0.342 C 
ATOM     17  O   UNL     1       5.148   5.151  -2.962  0.00  0.00    -0.245 OA
BRANCH  16  18
ATOM     18  O   UNL     1       5.794   5.307  -0.842  0.00  0.00    -0.461 OA
BRANCH  18  20
ATOM     19  C   UNL     1       7.962   4.602   0.015  0.00  0.00    +0.048 C 
ATOM     20  C   UNL     1       7.067   4.720  -1.221  0.00  0.00    +0.229 C 
ENDBRANCH  18  20
ENDBRANCH  16  18
ENDBRANCH   5  16
ENDBRANCH   1   9
BRANCH   2  21
ATOM     21  C   UNL     1       1.242   1.790  -0.502  0.00  0.00    +0.019 C 
BRANCH  21  22
ATOM     22  N   UNL     1      -0.110   1.385  -0.095  0.00  0.00    +0.388 N 
ATOM     23  C   UNL     1      -1.087   1.669  -1.155  0.00  0.00    -0.095 C 
ATOM     24  H   UNL     1      -0.389   1.977   0.789  0.00  0.00    -0.081 HD
BRANCH  22  25
ATOM     25  C   UNL     1      -0.143  -0.035   0.283  0.00  0.00    -0.040 C 
ATOM     26  C   UNL     1       0.085  -0.899  -0.959  0.00  0.00    -0.008 C 
BRANCH  25  27
ATOM     27  C   UNL     1      -1.484  -0.363   0.886  0.00  0.00    -0.058 A 
ATOM     28  C   UNL     1      -2.067  -1.593   0.643  0.00  0.00    +0.005 A 
ATOM     29  C   UNL     1      -3.297  -1.898   1.196  0.00  0.00    +0.041 A 
ATOM     30  C   UNL     1      -3.947  -0.971   1.992  0.00  0.00    +0.158 A 
ATOM     31  C   UNL     1      -3.362   0.263   2.234  0.00  0.00    +0.159 A 
ATOM     32  C   UNL     1      -2.128   0.563   1.685  0.00  0.00    +0.043 A 
ATOM     33  F   UNL     1      -3.995   1.170   3.011  0.00  0.00    -0.202 F 
ATOM     34  F   UNL     1      -5.149  -1.267   2.531  0.00  0.00    -0.202 F 
ENDBRANCH  25  27
ENDBRANCH  22  25
ENDBRANCH  21  22
ENDBRANCH   2  21
TORSDOF 9
