REMARK  Name = ZINC08748481
REMARK  9 active torsions:
REMARK  status: ('A' for Active; 'I' for Inactive)
REMARK    1  A    between atoms: C_1  and  C_2
REMARK    2  A    between atoms: C_2  and  C_3
REMARK    3  A    between atoms: C_2  and  C_4
REMARK    4  A    between atoms: C_4  and  C_6
REMARK    5  A    between atoms: C_4  and  N_43
REMARK    6  A    between atoms: C_13  and  C_14
REMARK    7  A    between atoms: C_13  and  N_43
REMARK    8  A    between atoms: N_16  and  C_17
REMARK    9  A    between atoms: C_18  and  C_22
REMARK                            x       y       z     vdW  Elec       q    Type
REMARK                         _______ _______ _______ _____ _____    ______ ____
ROOT
ATOM      1  C   UNL     1       0.665   1.644   4.742  0.00  0.00    +0.016 C 
ENDROOT
BRANCH   1   2
ATOM      2  C   UNL     1       0.089   2.215   6.013  0.00  0.00    +0.201 C 
ATOM      3  O   UNL     1      -1.095   2.469   6.081  0.00  0.00    -0.278 OA
ATOM      4  N   UNL     1       0.890   2.444   7.072  0.00  0.00    -0.281 N 
ATOM      5  H   UNL     1       1.837   2.240   7.017  0.00  0.00    +0.155 HD
BRANCH   4   6
ATOM      6  C   UNL     1       0.361   2.969   8.241  0.00  0.00    +0.084 A 
ATOM      7  C   UNL     1       1.018   3.266   9.429  0.00  0.00    +0.065 A 
ATOM      8  C   UNL     1       0.214   3.813  10.496  0.00  0.00    +0.022 A 
ATOM      9  C   UNL     1      -1.099   3.979  10.253  0.00  0.00    +0.048 A 
ATOM     10  S   UNL     1      -1.280   3.408   8.576  0.00  0.00    -0.081 S 
BRANCH   7  11
ATOM     11  C   UNL     1       2.457   3.038   9.590  0.00  0.00    +0.244 C 
ATOM     12  O   UNL     1       3.107   2.578   8.669  0.00  0.00    -0.270 OA
ATOM     13  N   UNL     1       3.061   3.338  10.757  0.00  0.00    -0.325 N 
ATOM     14  H   UNL     1       2.543   3.704  11.491  0.00  0.00    +0.145 HD
ATOM     15  H   UNL     1       4.013   3.187  10.864  0.00  0.00    +0.145 HD
ENDBRANCH   7  11
ENDBRANCH   4   6
ENDBRANCH   1   2
BRANCH   1  16
ATOM     16  N   UNL     1      -0.414   1.492   3.748  0.00  0.00    +0.389 N 
ATOM     17  H   UNL     1      -1.107   0.821   4.100  0.00  0.00    -0.084 HD
ATOM     18  H   UNL     1      -0.865   2.402   3.596  0.00  0.00    -0.084 HD
BRANCH  16  19
ATOM     19  C   UNL     1       0.133   1.001   2.469  0.00  0.00    -0.038 C 
BRANCH  19  20
ATOM     20  C   UNL     1       0.219  -0.503   2.504  0.00  0.00    -0.061 A 
ATOM     21  C   UNL     1      -0.790  -1.240   3.095  0.00  0.00    +0.003 A 
ATOM     22  C   UNL     1      -0.714  -2.619   3.122  0.00  0.00    +0.020 A 
ATOM     23  C   UNL     1       0.378  -3.263   2.567  0.00  0.00    +0.041 A 
ATOM     24  C   UNL     1       1.390  -2.525   1.980  0.00  0.00    +0.020 A 
ATOM     25  C   UNL     1       1.310  -1.145   1.948  0.00  0.00    +0.003 A 
ATOM     26 CL   UNL     1       0.478  -4.995   2.607  0.00  0.00    -0.084 Cl
ENDBRANCH  19  20
BRANCH  19  28
ATOM     27  C   UNL     1      -0.298   0.825   0.015  0.00  0.00    +0.006 C 
ATOM     28  C   UNL     1      -0.791   1.433   1.329  0.00  0.00    -0.027 C 
ATOM     29  C   UNL     1      -0.786   2.959   1.218  0.00  0.00    +0.006 C 
ENDBRANCH  19  28
ENDBRANCH  16  19
ENDBRANCH   1  16
TORSDOF 7
