REMARK  Name = ZINC04705986
REMARK  6 active torsions:
REMARK  status: ('A' for Active; 'I' for Inactive)
REMARK    1  A    between atoms: C_4  and  N_10
REMARK    2  A    between atoms: C_6  and  N_7
REMARK    3  A    between atoms: N_11  and  C_12
REMARK    4  A    between atoms: C_14  and  S_20
REMARK    5  A    between atoms: C_15  and  N_19
REMARK    6  A    between atoms: C_17  and  N_18
REMARK                            x       y       z     vdW  Elec       q    Type
REMARK                         _______ _______ _______ _____ _____    ______ ____
ROOT
ATOM      1  C   UNL     1       1.186   2.087   0.002  0.00  0.00    +0.109 A 
ATOM      2  C   UNL     1      -0.017   1.371   0.010  0.00  0.00    +0.063 A 
ATOM      3  C   UNL     1       0.002  -0.004   0.002  0.00  0.00    +0.142 A 
ATOM      4  C   UNL     1       1.215  -0.690  -0.014  0.00  0.00    +0.054 A 
ATOM      5  C   UNL     1       2.415   0.009  -0.021  0.00  0.00    +0.049 A 
ATOM      6  C   UNL     1       2.410   1.394  -0.013  0.00  0.00    +0.054 A 
ENDROOT
BRANCH   3   7
ATOM      7  S   UNL     1      -1.514  -0.902   0.012  0.00  0.00    +0.141 S 
ATOM      8  O   UNL     1      -1.950  -0.977  -1.339  0.00  0.00    -0.140 OA
ATOM      9  O   UNL     1      -1.295  -2.060   0.806  0.00  0.00    -0.140 OA
ATOM     10  O   UNL     1      -2.536  -0.052   0.753  0.00  0.00    -0.043 OA
ENDBRANCH   3   7
BRANCH   6  11
ATOM     11  N   UNL     1       3.610   2.098  -0.021  0.00  0.00    -0.356 N 
ATOM     12  H   UNL     1       4.453   1.618  -0.031  0.00  0.00    +0.142 HD
ATOM     13  H   UNL     1       3.604   3.067  -0.015  0.00  0.00    +0.142 HD
ENDBRANCH   6  11
BRANCH   4  14
ATOM     14  N   UNL     1       1.224  -2.083  -0.021  0.00  0.00    -0.356 N 
ATOM     15  H   UNL     1       0.387  -2.573  -0.016  0.00  0.00    +0.142 HD
ATOM     16  H   UNL     1       2.067  -2.562  -0.032  0.00  0.00    +0.142 HD
ENDBRANCH   4  14
BRANCH   1  18
ATOM     17  N   UNL     1       0.047   4.082   0.023  0.00  0.00    -0.145 NA
ATOM     18  N   UNL     1       1.171   3.449   0.009  0.00  0.00    -0.147 NA
BRANCH  17  22
ATOM     19  C   UNL     1       0.003   8.221   0.044  0.00  0.00    +0.036 A 
ATOM     20  C   UNL     1      -1.191   7.524   0.052  0.00  0.00    +0.055 A 
ATOM     21  C   UNL     1      -1.188   6.140   0.039  0.00  0.00    +0.206 A 
ATOM     22  C   UNL     1       0.032   5.447   0.030  0.00  0.00    +0.135 A 
ATOM     23  C   UNL     1       1.232   6.163   0.022  0.00  0.00    +0.066 A 
ATOM     24  C   UNL     1       1.210   7.542   0.029  0.00  0.00    +0.128 A 
ATOM     25  O   UNL     1      -2.360   5.455   0.040  0.00  0.00    -0.286 OA
BRANCH  24  26
ATOM     26  N   UNL     1       2.481   8.300   0.021  0.00  0.00    +0.056 N 
ATOM     27  O   UNL     1       3.544   7.705   0.008  0.00  0.00    -0.126 OA
ATOM     28  O   UNL     1       2.465   9.517   0.028  0.00  0.00    -0.126 OA
ENDBRANCH  24  26
ENDBRANCH  17  22
ENDBRANCH   1  18
TORSDOF 6
