REMARK  Name = ZINC39972762
REMARK  12 active torsions:
REMARK  status: ('A' for Active; 'I' for Inactive)
REMARK    1  A    between atoms: C_1  and  C_2
REMARK    2  A    between atoms: C_2  and  C_3
REMARK    3  A    between atoms: C_3  and  C_5
REMARK    4  A    between atoms: C_3  and  N_6
REMARK    5  A    between atoms: N_9  and  C_10
REMARK    6  A    between atoms: C_11  and  C_26
REMARK    7  A    between atoms: C_12  and  C_16
REMARK    8  A    between atoms: C_13  and  C_15
REMARK    9  A    between atoms: C_19  and  C_22
REMARK   10  A    between atoms: C_22  and  C_23
REMARK   11  A    between atoms: C_22  and  C_24
REMARK   12  A    between atoms: C_22  and  C_25
REMARK                            x       y       z     vdW  Elec       q    Type
REMARK                         _______ _______ _______ _____ _____    ______ ____
ROOT
ATOM      1  C   UNL     1      -5.448   0.427  -2.444  0.00  0.00    +0.086 A 
ATOM      2  C   UNL     1      -6.244   0.771  -3.524  0.00  0.00    +0.073 A 
ATOM      3  C   UNL     1      -7.676   0.815  -3.287  0.00  0.00    +0.006 A 
ATOM      4  C   UNL     1      -8.067   0.510  -2.023  0.00  0.00    -0.003 A 
ATOM      5  S   UNL     1      -6.532   0.169  -1.191  0.00  0.00    -0.077 S 
ATOM      6  C   UNL     1      -9.465   0.466  -1.462  0.00  0.00    +0.052 C 
ENDROOT
BRANCH   1  10
ATOM      7  N   UNL     1      -2.105  -0.148  -1.230  0.00  0.00    -0.297 N 
ATOM      8  C   UNL     1      -3.448  -0.040  -1.265  0.00  0.00    +0.304 C 
ATOM      9  O   UNL     1      -4.102  -0.261  -0.264  0.00  0.00    -0.252 OA
ATOM     10  N   UNL     1      -4.067   0.315  -2.409  0.00  0.00    -0.263 N 
ATOM     11  H   UNL     1      -1.584   0.029  -2.029  0.00  0.00    +0.151 HD
ATOM     12  H   UNL     1      -3.545   0.492  -3.207  0.00  0.00    +0.157 HD
BRANCH   7  13
ATOM     13  C   UNL     1      -1.433  -0.534   0.013  0.00  0.00    +0.071 C 
ATOM     14  C   UNL     1      -1.413  -2.059   0.130  0.00  0.00    +0.028 C 
BRANCH  13  16
ATOM     15  C   UNL     1      -0.019   1.526   0.010  0.00  0.00    +0.005 C 
ATOM     16  C   UNL     1       0.002  -0.004   0.002  0.00  0.00    +0.019 C 
ENDBRANCH  13  16
ENDBRANCH   7  13
ENDBRANCH   1  10
BRANCH   3  17
ATOM     17  C   UNL     1      -8.644   1.169  -4.352  0.00  0.00    -0.016 A 
ATOM     18  C   UNL     1      -8.635   2.447  -4.910  0.00  0.00    +0.009 A 
ATOM     19  C   UNL     1      -9.539   2.771  -5.901  0.00  0.00    +0.005 A 
ATOM     20  C   UNL     1     -10.453   1.830  -6.342  0.00  0.00    -0.042 A 
ATOM     21  C   UNL     1     -10.467   0.561  -5.792  0.00  0.00    +0.005 A 
ATOM     22  C   UNL     1      -9.564   0.224  -4.804  0.00  0.00    +0.009 A 
BRANCH  20  23
ATOM     23  C   UNL     1     -11.437   2.190  -7.424  0.00  0.00    -0.013 C 
ATOM     24  C   UNL     1     -10.678   2.592  -8.691  0.00  0.00    +0.015 C 
ATOM     25  C   UNL     1     -12.328   0.983  -7.725  0.00  0.00    +0.015 C 
ATOM     26  C   UNL     1     -12.305   3.360  -6.957  0.00  0.00    +0.015 C 
ENDBRANCH  20  23
ENDBRANCH   3  17
BRANCH   2  27
ATOM     27  C   UNL     1      -5.671   1.076  -4.837  0.00  0.00    +0.244 C 
ATOM     28  O   UNL     1      -5.508   0.187  -5.651  0.00  0.00    -0.270 OA
ATOM     29  N   UNL     1      -5.324   2.342  -5.143  0.00  0.00    -0.325 N 
ATOM     30  H   UNL     1      -5.453   3.051  -4.493  0.00  0.00    +0.145 HD
ATOM     31  H   UNL     1      -4.944   2.544  -6.012  0.00  0.00    +0.145 HD
ENDBRANCH   2  27
TORSDOF 6
