REMARK  Name = ZINC10562249
REMARK  14 active torsions:
REMARK  status: ('A' for Active; 'I' for Inactive)
REMARK    1  A    between atoms: C_1  and  C_2
REMARK    2  A    between atoms: C_3  and  C_31
REMARK    3  A    between atoms: C_4  and  C_30
REMARK    4  A    between atoms: C_7  and  C_8
REMARK    5  A    between atoms: C_8  and  C_10
REMARK    6  A    between atoms: C_10  and  C_12
REMARK    7  A    between atoms: C_10  and  O_13
REMARK    8  A    between atoms: O_13  and  C_14
REMARK    9  A    between atoms: C_14  and  C_16
REMARK   10  A    between atoms: C_21  and  O_22
REMARK   11  A    between atoms: O_22  and  C_23
REMARK   12  A    between atoms: C_23  and  C_24
REMARK   13  A    between atoms: C_26  and  C_29
REMARK   14  A    between atoms: C_31  and  C_33
REMARK                            x       y       z     vdW  Elec       q    Type
REMARK                         _______ _______ _______ _____ _____    ______ ____
ROOT
ATOM      1  O   UNL     1      -1.722   8.450   3.707  0.00  0.00    -0.450 OA
ENDROOT
BRANCH   1   2
ATOM      2  C   UNL     1      -1.011   7.519   2.848  0.00  0.00    +0.246 C 
ATOM      3  C   UNL     1       0.494   7.653   3.087  0.00  0.00    +0.061 C 
BRANCH   2   4
ATOM      4  C   UNL     1      -1.447   6.111   3.163  0.00  0.00    +0.219 C 
ATOM      5  O   UNL     1      -2.056   5.879   4.188  0.00  0.00    -0.287 OA
BRANCH   4  12
ATOM      6  C   UNL     1      -2.236   3.136   3.591  0.00  0.00    +0.047 C 
ATOM      7  C   UNL     1      -1.484   3.734   2.430  0.00  0.00    -0.012 A 
ATOM      8  C   UNL     1      -0.989   3.043   1.301  0.00  0.00    +0.041 A 
ATOM      9  C   UNL     1      -0.361   3.979   0.492  0.00  0.00    +0.024 A 
ATOM     10  N   UNL     1      -0.464   5.183   1.071  0.00  0.00    -0.355 N 
ATOM     11  H   UNL     1      -0.111   6.011   0.711  0.00  0.00    +0.166 HD
ATOM     12  C   UNL     1      -1.147   5.059   2.265  0.00  0.00    +0.090 A 
ATOM     13  C   UNL     1       0.321   3.691  -0.821  0.00  0.00    +0.064 C 
BRANCH   8  14
ATOM     14  C   UNL     1      -1.110   1.605   1.037  0.00  0.00    +0.162 C 
ATOM     15  O   UNL     1      -0.243   0.844   1.412  0.00  0.00    -0.292 OA
ATOM     16  C   UNL     1      -2.312   1.073   0.300  0.00  0.00    +0.091 C 
ENDBRANCH   8  14
ENDBRANCH   4  12
ENDBRANCH   2   4
ENDBRANCH   1   2
BRANCH   1  17
ATOM     17  C   UNL     1      -1.960   9.680   3.211  0.00  0.00    +0.343 C 
ATOM     18  O   UNL     1      -1.583   9.967   2.092  0.00  0.00    -0.245 OA
BRANCH  17  19
ATOM     19  C   UNL     1      -2.676  10.677   4.026  0.00  0.00    +0.101 A 
ATOM     20  C   UNL     1      -3.111  10.351   5.314  0.00  0.00    +0.018 A 
ATOM     21  C   UNL     1      -3.781  11.288   6.070  0.00  0.00    +0.001 A 
ATOM     22  C   UNL     1      -4.025  12.553   5.561  0.00  0.00    +0.004 A 
ATOM     23  C   UNL     1      -3.601  12.889   4.291  0.00  0.00    +0.046 A 
ATOM     24  C   UNL     1      -2.921  11.960   3.517  0.00  0.00    +0.135 A 
BRANCH  24  25
ATOM     25  O   UNL     1      -2.498  12.290   2.271  0.00  0.00    -0.483 OA
BRANCH  25  26
ATOM     26  C   UNL     1      -2.784  13.616   1.819  0.00  0.00    +0.308 C 
BRANCH  26  27
ATOM     27  C   UNL     1      -2.243  13.799   0.424  0.00  0.00    +0.209 A 
ATOM     28  N   UNL     1      -2.900  13.553  -0.723  0.00  0.00    -0.193 NA
ATOM     29  C   UNL     1      -2.057  13.848  -1.683  0.00  0.00    +0.224 A 
ATOM     30  O   UNL     1      -0.929  14.259  -1.096  0.00  0.00    -0.338 OA
ATOM     31  N   UNL     1      -1.058  14.229   0.109  0.00  0.00    -0.058 NA
ATOM     32  C   UNL     1      -2.312  13.744  -3.164  0.00  0.00    +0.112 C 
ENDBRANCH  26  27
ENDBRANCH  25  26
ENDBRANCH  24  25
ENDBRANCH  17  19
ENDBRANCH   1  17
TORSDOF 9
