REMARK  Name = ZINC16480920
REMARK  7 active torsions:
REMARK  status: ('A' for Active; 'I' for Inactive)
REMARK    1  A    between atoms: C_4  and  C_7
REMARK    2  A    between atoms: C_7  and  C_8
REMARK    3  A    between atoms: C_10  and  C_16
REMARK    4  A    between atoms: C_11  and  O_15
REMARK    5  A    between atoms: N_17  and  C_18
REMARK    6  A    between atoms: C_20  and  C_30
REMARK    7  A    between atoms: C_23  and  N_24
REMARK                            x       y       z     vdW  Elec       q    Type
REMARK                         _______ _______ _______ _____ _____    ______ ____
ROOT
ATOM      1  C   UNL     1      -0.060   5.316   0.090  0.00  0.00    +0.123 C 
ATOM      2  N   UNL     1      -1.191   5.961   0.044  0.00  0.00    -0.253 NA
ENDROOT
BRANCH   1   5
ATOM      3  C   UNL     1       1.200   1.807  -0.316  0.00  0.00    -0.041 A 
ATOM      4  C   UNL     1       1.180   3.167  -0.096  0.00  0.00    +0.017 A 
ATOM      5  C   UNL     1      -0.031   3.864  -0.144  0.00  0.00    +0.036 A 
ATOM      6  C   UNL     1      -1.220   3.170  -0.416  0.00  0.00    +0.139 A 
ATOM      7  C   UNL     1      -1.180   1.802  -0.640  0.00  0.00    +0.060 A 
ATOM      8  C   UNL     1       0.024   1.125  -0.584  0.00  0.00    +0.023 A 
ATOM      9 BR   UNL     1      -2.776   0.860  -1.014  0.00  0.00    -0.046 Br
BRANCH   6  10
ATOM     10  O   UNL     1      -2.402   3.835  -0.466  0.00  0.00    -0.505 OA
ATOM     11  H   UNL     1      -2.629   4.168  -1.345  0.00  0.00    +0.292 HD
ENDBRANCH   6  10
BRANCH   3  12
ATOM     12  C   UNL     1       2.506   1.057  -0.264  0.00  0.00    +0.070 C 
BRANCH  12  16
ATOM     13  C   UNL     1       4.266   0.994  -4.156  0.00  0.00    +0.000 A 
ATOM     14  C   UNL     1       4.557   2.025  -3.283  0.00  0.00    +0.000 A 
ATOM     15  C   UNL     1       3.987   2.046  -2.023  0.00  0.00    +0.004 A 
ATOM     16  C   UNL     1       3.127   1.035  -1.637  0.00  0.00    -0.043 A 
ATOM     17  C   UNL     1       2.840   0.001  -2.509  0.00  0.00    +0.004 A 
ATOM     18  C   UNL     1       3.405  -0.017  -3.770  0.00  0.00    +0.000 A 
ENDBRANCH  12  16
ENDBRANCH   3  12
ENDBRANCH   1   5
BRANCH   2  19
ATOM     19  C   UNL     1      -1.206   7.324   0.155  0.00  0.00    +0.085 A 
ATOM     20  C   UNL     1      -0.332   8.100  -0.609  0.00  0.00    +0.042 A 
ATOM     21  C   UNL     1      -0.355   9.475  -0.497  0.00  0.00    +0.057 A 
ATOM     22  C   UNL     1      -1.235  10.090   0.378  0.00  0.00    +0.014 A 
ATOM     23  C   UNL     1      -2.101   9.334   1.145  0.00  0.00    +0.026 A 
ATOM     24  C   UNL     1      -2.095   7.951   1.041  0.00  0.00    +0.056 A 
BRANCH  24  25
ATOM     25  N   UNL     1      -2.970   7.186   1.813  0.00  0.00    -0.324 N 
ATOM     26  C   UNL     1      -4.369   7.470   1.462  0.00  0.00    +0.133 C 
ATOM     27  C   UNL     1      -5.290   6.569   2.288  0.00  0.00    +0.178 C 
ATOM     28  O   UNL     1      -5.028   6.776   3.679  0.00  0.00    -0.377 OA
ATOM     29  C   UNL     1      -3.675   6.508   4.056  0.00  0.00    +0.178 C 
ATOM     30  C   UNL     1      -2.738   7.409   3.248  0.00  0.00    +0.133 C 
ENDBRANCH  24  25
BRANCH  21  31
ATOM     31  C   UNL     1       0.585  10.311  -1.326  0.00  0.00    +0.417 C 
ATOM     32  F   UNL     1       0.382  11.665  -1.038  0.00  0.00    -0.166 F 
ATOM     33  F   UNL     1       1.906   9.963  -1.026  0.00  0.00    -0.166 F 
ATOM     34  F   UNL     1       0.339  10.081  -2.684  0.00  0.00    -0.166 F 
ENDBRANCH  21  31
ENDBRANCH   2  19
TORSDOF 7
