REMARK  Name = ZINC59170586
REMARK  9 active torsions:
REMARK  status: ('A' for Active; 'I' for Inactive)
REMARK    1  A    between atoms: C_1  and  C_2
REMARK    2  A    between atoms: C_2  and  O_3
REMARK    3  A    between atoms: O_3  and  C_4
REMARK    4  A    between atoms: C_8  and  N_10
REMARK    5  A    between atoms: C_11  and  C_13
REMARK    6  A    between atoms: C_17  and  C_34
REMARK    7  A    between atoms: N_23  and  C_24
REMARK    8  A    between atoms: C_27  and  S_30
REMARK    9  A    between atoms: S_30  and  N_33
REMARK                            x       y       z     vdW  Elec       q    Type
REMARK                         _______ _______ _______ _____ _____    ______ ____
ROOT
ATOM      1  C   UNL     1      -5.704  -6.222  -0.257  0.00  0.00    +0.098 A 
ATOM      2  C   UNL     1      -5.884  -7.599  -0.252  0.00  0.00    +0.030 A 
ATOM      3  C   UNL     1      -7.260  -8.098  -0.308  0.00  0.00    +0.018 A 
ATOM      4  C   UNL     1      -7.547  -9.442  -0.041  0.00  0.00    +0.015 A 
ATOM      5  C   UNL     1      -8.839  -9.883  -0.096  0.00  0.00    -0.050 A 
ATOM      6  C   UNL     1      -9.869  -9.009  -0.414  0.00  0.00    +0.007 A 
ATOM      7  C   UNL     1      -9.607  -7.680  -0.683  0.00  0.00    +0.047 A 
ATOM      8  C   UNL     1      -8.303  -7.211  -0.634  0.00  0.00    +0.137 A 
ATOM      9  O   UNL     1      -8.026  -5.912  -0.901  0.00  0.00    -0.439 OA
ATOM     10  C   UNL     1      -6.919  -5.385  -0.312  0.00  0.00    +0.212 A 
ATOM     11  N   UNL     1      -6.927  -4.169   0.188  0.00  0.00    -0.325 N 
ATOM     12  C   UNL     1      -9.148 -11.329   0.191  0.00  0.00    +0.044 C 
ATOM     13  H   UNL     1      -6.165  -3.848   0.696  0.00  0.00    +0.169 HD
ENDROOT
BRANCH  11  14
ATOM     14  C   UNL     1      -8.009  -3.356  -0.007  0.00  0.00    +0.042 A 
ATOM     15  C   UNL     1      -8.598  -3.264  -1.271  0.00  0.00    +0.027 A 
ATOM     16  C   UNL     1      -9.690  -2.443  -1.461  0.00  0.00    +0.030 A 
ATOM     17  C   UNL     1     -10.200  -1.710  -0.404  0.00  0.00    +0.105 A 
ATOM     18  C   UNL     1      -9.622  -1.795   0.850  0.00  0.00    +0.030 A 
ATOM     19  C   UNL     1      -8.534  -2.618   1.056  0.00  0.00    +0.027 A 
BRANCH  17  20
ATOM     20  S   UNL     1     -11.594  -0.661  -0.657  0.00  0.00    +0.056 S 
ATOM     21  O   UNL     1     -11.543   0.333   0.357  0.00  0.00    -0.153 OA
ATOM     22  O   UNL     1     -11.614  -0.338  -2.041  0.00  0.00    -0.153 OA
BRANCH  20  23
ATOM     23  N   UNL     1     -12.948  -1.568  -0.363  0.00  0.00    -0.204 NA
ATOM     24  H   UNL     1     -13.751  -1.144  -0.022  0.00  0.00    +0.144 HD
ATOM     25  H   UNL     1     -12.938  -2.523  -0.532  0.00  0.00    +0.144 HD
ENDBRANCH  20  23
ENDBRANCH  17  20
ENDBRANCH  11  14
BRANCH   1  27
ATOM     26  N   UNL     1      -4.209  -4.291  -0.348  0.00  0.00    -0.281 N 
ATOM     27  C   UNL     1      -4.359  -5.623  -0.204  0.00  0.00    +0.253 C 
ATOM     28  O   UNL     1      -3.385  -6.330  -0.029  0.00  0.00    -0.270 OA
ATOM     29  H   UNL     1      -4.989  -3.722  -0.434  0.00  0.00    +0.155 HD
BRANCH  26  34
ATOM     30  C   UNL     1      -1.395  -2.081  -1.206  0.00  0.00    +0.122 A 
ATOM     31  C   UNL     1      -0.388  -2.627  -0.422  0.00  0.00    +0.046 A 
ATOM     32  C   UNL     1      -0.650  -3.720   0.382  0.00  0.00    +0.005 A 
ATOM     33  C   UNL     1      -1.916  -4.273   0.408  0.00  0.00    +0.023 A 
ATOM     34  C   UNL     1      -2.928  -3.731  -0.374  0.00  0.00    +0.037 A 
ATOM     35  C   UNL     1      -2.668  -2.630  -1.178  0.00  0.00    +0.069 A 
BRANCH  30  36
ATOM     36  O   UNL     1      -1.135  -1.006  -1.996  0.00  0.00    -0.492 OA
BRANCH  36  38
ATOM     37  C   UNL     1       0.297   0.706  -2.920  0.00  0.00    +0.048 C 
ATOM     38  C   UNL     1       0.198  -0.493  -1.975  0.00  0.00    +0.225 C 
ENDBRANCH  36  38
ENDBRANCH  30  36
ENDBRANCH  26  34
ENDBRANCH   1  27
TORSDOF 7
