REMARK  Name = ZINC35449332
REMARK  7 active torsions:
REMARK  status: ('A' for Active; 'I' for Inactive)
REMARK    1  A    between atoms: C_1  and  C_2
REMARK    2  A    between atoms: C_2  and  C_3
REMARK    3  A    between atoms: C_3  and  C_4
REMARK    4  A    between atoms: C_4  and  S_5
REMARK    5  A    between atoms: S_5  and  C_6
REMARK    6  A    between atoms: C_16  and  C_18
REMARK    7  A    between atoms: C_23  and  N_24
REMARK                            x       y       z     vdW  Elec       q    Type
REMARK                         _______ _______ _______ _____ _____    ______ ____
ROOT
ATOM      1  C   UNL     1      -0.206  -3.862  -2.239  0.00  0.00    +0.171 A 
ATOM      2  N   UNL     1       0.643  -4.839  -1.998  0.00  0.00    -0.185 NA
ATOM      3  C   UNL     1       0.227  -6.003  -1.476  0.00  0.00    +0.280 A 
ATOM      4  O   UNL     1       1.028  -6.900  -1.256  0.00  0.00    -0.265 OA
ATOM      5  C   UNL     1      -1.142  -6.186  -1.182  0.00  0.00    +0.069 A 
ATOM      6  C   UNL     1      -2.009  -5.169  -1.432  0.00  0.00    +0.111 A 
ATOM      7  N   UNL     1      -1.533  -3.997  -1.961  0.00  0.00    -0.322 N 
ATOM      8  N   UNL     1      -3.346  -5.313  -1.147  0.00  0.00    -0.304 N 
ATOM      9  C   UNL     1      -3.776  -6.283  -0.283  0.00  0.00    +0.017 C 
ATOM     10  C   UNL     1      -2.988  -7.339   0.013  0.00  0.00    +0.024 C 
ATOM     11  C   UNL     1      -1.623  -7.486  -0.609  0.00  0.00    +0.095 C 
ATOM     12  C   UNL     1      -3.417  -8.332   0.910  0.00  0.00    +0.162 C 
ATOM     13  O   UNL     1      -2.686  -9.273   1.151  0.00  0.00    -0.292 OA
ATOM     14  C   UNL     1      -4.761  -8.253   1.579  0.00  0.00    +0.080 C 
ATOM     15  C   UNL     1      -5.166  -6.781   1.715  0.00  0.00    +0.014 C 
ATOM     16  C   UNL     1      -5.151  -6.144   0.323  0.00  0.00    +0.051 C 
ATOM     17  H   UNL     1      -3.992  -4.721  -1.564  0.00  0.00    +0.153 HD
ATOM     18  H   UNL     1      -2.143  -3.264  -2.141  0.00  0.00    +0.169 HD
ENDROOT
BRANCH  11  19
ATOM     19  C   UNL     1      -1.690  -8.516  -1.707  0.00  0.00    -0.005 A 
ATOM     20  C   UNL     1      -2.592  -8.364  -2.743  0.00  0.00    +0.007 A 
ATOM     21  C   UNL     1      -2.653  -9.308  -3.751  0.00  0.00    +0.000 A 
ATOM     22  C   UNL     1      -1.812 -10.404  -3.723  0.00  0.00    +0.002 A 
ATOM     23  C   UNL     1      -0.909 -10.556  -2.687  0.00  0.00    +0.033 A 
ATOM     24  C   UNL     1      -0.845  -9.609  -1.682  0.00  0.00    +0.130 A 
BRANCH  24  25
ATOM     25  N   UNL     1       0.126  -9.769  -0.575  0.00  0.00    +0.057 N 
ATOM     26  O   UNL     1       1.246 -10.160  -0.806  0.00  0.00    -0.126 OA
ATOM     27  O   UNL     1      -0.203  -9.510   0.559  0.00  0.00    -0.126 OA
ENDBRANCH  24  25
ENDBRANCH  11  19
BRANCH   1  28
ATOM     28  S   UNL     1       0.385  -2.352  -2.927  0.00  0.00    -0.088 S 
BRANCH  28  29
ATOM     29  C   UNL     1       2.167  -2.626  -3.123  0.00  0.00    +0.077 C 
BRANCH  29  30
ATOM     30  C   UNL     1       2.813  -1.374  -3.720  0.00  0.00    +0.011 C 
BRANCH  30  32
ATOM     31  C   UNL     1       4.963  -0.354  -4.482  0.00  0.00    +0.004 C 
ATOM     32  C   UNL     1       4.317  -1.606  -3.886  0.00  0.00    -0.003 C 
ENDBRANCH  30  32
ENDBRANCH  29  30
ENDBRANCH  28  29
ENDBRANCH   1  28
TORSDOF 6
