REMARK  Name = ZINC13368714
REMARK  8 active torsions:
REMARK  status: ('A' for Active; 'I' for Inactive)
REMARK    1  A    between atoms: C_1  and  C_2
REMARK    2  A    between atoms: N_5  and  S_8
REMARK    3  A    between atoms: S_8  and  C_11
REMARK    4  A    between atoms: N_17  and  C_22
REMARK    5  A    between atoms: C_22  and  C_23
REMARK    6  A    between atoms: N_25  and  C_26
REMARK    7  A    between atoms: C_26  and  C_28
REMARK    8  A    between atoms: C_26  and  C_29
REMARK                            x       y       z     vdW  Elec       q    Type
REMARK                         _______ _______ _______ _____ _____    ______ ____
ROOT
ATOM      1  C   UNL     1       1.906   4.292  -3.454  0.00  0.00    +0.107 A 
ATOM      2  C   UNL     1       3.246   3.957  -3.383  0.00  0.00    +0.032 A 
ATOM      3  C   UNL     1       3.842   3.248  -4.410  0.00  0.00    +0.049 A 
ATOM      4  C   UNL     1       3.098   2.883  -5.518  0.00  0.00    +0.143 A 
ATOM      5  C   UNL     1       1.749   3.225  -5.592  0.00  0.00    +0.081 A 
ATOM      6  C   UNL     1       1.156   3.930  -4.558  0.00  0.00    +0.055 A 
ATOM      7  N   UNL     1       1.007   2.849  -6.721  0.00  0.00    -0.256 N 
ATOM      8  C   UNL     1       1.510   1.911  -7.553  0.00  0.00    +0.258 C 
ATOM      9  O   UNL     1       0.900   1.592  -8.551  0.00  0.00    -0.271 OA
ATOM     10  C   UNL     1       2.832   1.262  -7.234  0.00  0.00    +0.325 C 
ATOM     11  O   UNL     1       3.669   2.190  -6.540  0.00  0.00    -0.481 OA
ENDROOT
BRANCH   1  12
ATOM     12  S   UNL     1       1.154   5.190  -2.137  0.00  0.00    +0.061 S 
ATOM     13  O   UNL     1       0.030   5.859  -2.692  0.00  0.00    -0.153 OA
ATOM     14  O   UNL     1       2.200   5.882  -1.468  0.00  0.00    -0.153 OA
BRANCH  12  19
ATOM     15  C   UNL     1       0.002  -0.004   0.002  0.00  0.00    +0.007 C 
ATOM     16  C   UNL     1      -0.019   1.526   0.010  0.00  0.00    -0.012 C 
ATOM     17  C   UNL     1      -0.760   2.032  -1.229  0.00  0.00    +0.020 C 
ATOM     18  C   UNL     1      -0.809   3.563  -1.199  0.00  0.00    +0.110 C 
ATOM     19  N   UNL     1       0.560   4.078  -1.063  0.00  0.00    -0.177 NA
ATOM     20  C   UNL     1       1.393   3.586   0.043  0.00  0.00    +0.110 C 
ATOM     21  C   UNL     1       1.417   2.055  -0.000  0.00  0.00    +0.020 C 
ENDBRANCH  12  19
ENDBRANCH   1  12
BRANCH   7  22
ATOM     22  C   UNL     1      -0.294   3.465  -6.995  0.00  0.00    +0.209 C 
BRANCH  22  23
ATOM     23  C   UNL     1      -0.101   4.692  -7.847  0.00  0.00    +0.231 C 
ATOM     24  O   UNL     1       1.015   5.021  -8.193  0.00  0.00    -0.274 OA
ATOM     25  N   UNL     1      -1.167   5.425  -8.226  0.00  0.00    -0.311 N 
ATOM     26  H   UNL     1      -2.058   5.162  -7.950  0.00  0.00    +0.149 HD
BRANCH  25  27
ATOM     27  C   UNL     1      -0.978   6.618  -9.055  0.00  0.00    +0.076 C 
ATOM     28  C   UNL     1      -0.658   7.816  -8.159  0.00  0.00    +0.028 C 
BRANCH  27  29
ATOM     29  C   UNL     1      -2.259   6.898  -9.843  0.00  0.00    -0.010 C 
ATOM     30  C   UNL     1      -3.416   7.131  -8.870  0.00  0.00    +0.012 C 
ATOM     31  C   UNL     1      -4.697   7.412  -9.659  0.00  0.00    -0.010 C 
ATOM     32  C   UNL     1      -4.500   8.658 -10.524  0.00  0.00    +0.007 C 
ATOM     33  C   UNL     1      -3.343   8.425 -11.498  0.00  0.00    -0.010 C 
ATOM     34  C   UNL     1      -2.062   8.144 -10.709  0.00  0.00    +0.012 C 
ATOM     35  C   UNL     1      -3.663   7.227 -12.393  0.00  0.00    +0.007 C 
ATOM     36  C   UNL     1      -3.860   5.981 -11.528  0.00  0.00    -0.010 C 
ATOM     37  C   UNL     1      -5.018   6.214 -10.554  0.00  0.00    +0.007 C 
ATOM     38  C   UNL     1      -2.579   5.700 -10.739  0.00  0.00    +0.012 C 
ENDBRANCH  27  29
ENDBRANCH  25  27
ENDBRANCH  22  23
ENDBRANCH   7  22
TORSDOF 6
