REMARK  Name = ZINC11963542
REMARK  8 active torsions:
REMARK  status: ('A' for Active; 'I' for Inactive)
REMARK    1  A    between atoms: C_1  and  N_2
REMARK    2  A    between atoms: N_2  and  C_3
REMARK    3  A    between atoms: C_3  and  C_5
REMARK    4  A    between atoms: C_3  and  C_13
REMARK    5  A    between atoms: C_5  and  C_6
REMARK    6  A    between atoms: C_18  and  C_19
REMARK    7  A    between atoms: C_18  and  N_65
REMARK    8  A    between atoms: C_29  and  C_31
REMARK                            x       y       z     vdW  Elec       q    Type
REMARK                         _______ _______ _______ _____ _____    ______ ____
ROOT
ATOM      1  C   UNL     1      -2.894   7.226   0.473  0.00  0.00    +0.083 C 
ENDROOT
BRANCH   1   2
ATOM      2  C   UNL     1      -2.791   7.686   1.929  0.00  0.00    +0.006 C 
ATOM      3  C   UNL     1      -1.317   7.799   2.328  0.00  0.00    -0.013 C 
ATOM      4  C   UNL     1      -1.222   8.198   3.802  0.00  0.00    -0.078 C 
ATOM      5  C   UNL     1      -3.325   7.101   4.297  0.00  0.00    -0.078 C 
ATOM      6  C   UNL     1      -3.483   6.667   2.838  0.00  0.00    -0.013 C 
ATOM      7  N   UNL     1      -1.885   7.164   4.625  0.00  0.00    +0.382 N 
ATOM      8  H   UNL     1      -1.456   6.253   4.423  0.00  0.00    -0.081 HD
BRANCH   7   9
ATOM      9  C   UNL     1      -1.707   7.471   6.059  0.00  0.00    -0.042 C 
BRANCH   9  10
ATOM     10  C   UNL     1      -0.269   7.845   6.311  0.00  0.00    -0.053 A 
ATOM     11  C   UNL     1       0.086   9.141   6.559  0.00  0.00    +0.022 A 
ATOM     12  C   UNL     1       1.422   9.464   6.788  0.00  0.00    +0.111 A 
ATOM     13  N   UNL     1       2.364   8.553   6.774  0.00  0.00    -0.255 NA
ATOM     14  C   UNL     1       2.084   7.267   6.537  0.00  0.00    +0.071 A 
ATOM     15  C   UNL     1       0.745   6.869   6.302  0.00  0.00    +0.002 A 
ATOM     16  C   UNL     1       0.456   5.516   6.060  0.00  0.00    +0.010 A 
ATOM     17  C   UNL     1       1.464   4.602   6.060  0.00  0.00    +0.001 A 
ATOM     18  C   UNL     1       2.782   4.991   6.296  0.00  0.00    +0.002 A 
ATOM     19  C   UNL     1       3.099   6.295   6.522  0.00  0.00    +0.028 A 
ENDBRANCH   9  10
ENDBRANCH   7   9
ENDBRANCH   1   2
BRANCH   1  21
ATOM     20  C   UNL     1      -0.709   6.106  -0.167  0.00  0.00    +0.132 C 
ATOM     21  N   UNL     1      -2.098   6.010   0.288  0.00  0.00    -0.297 N 
ATOM     22  C   UNL     1      -2.643   4.803   0.537  0.00  0.00    +0.247 C 
ATOM     23  O   UNL     1      -3.811   4.720   0.867  0.00  0.00    -0.270 OA
BRANCH  22  24
ATOM     24  C   UNL     1      -1.826   3.586   0.410  0.00  0.00    +0.044 A 
ATOM     25  C   UNL     1      -2.000   2.466   1.301  0.00  0.00    +0.020 A 
ATOM     26  C   UNL     1      -1.201   1.399   1.107  0.00  0.00    +0.046 A 
ATOM     27  S   UNL     1      -0.210   1.885  -0.291  0.00  0.00    -0.104 S 
ATOM     28  C   UNL     1      -0.864   3.464  -0.571  0.00  0.00    +0.058 A 
ENDBRANCH  22  24
ENDBRANCH   1  21
BRANCH   1  29
ATOM     29  C   UNL     1      -2.365   8.327  -0.448  0.00  0.00    +0.060 C 
BRANCH  29  30
ATOM     30  C   UNL     1      -2.554   7.914  -1.885  0.00  0.00    -0.010 A 
ATOM     31  C   UNL     1      -1.469   7.500  -2.634  0.00  0.00    +0.006 A 
ATOM     32  C   UNL     1      -1.644   7.115  -3.950  0.00  0.00    +0.000 A 
ATOM     33  C   UNL     1      -2.902   7.156  -4.522  0.00  0.00    +0.003 A 
ATOM     34  C   UNL     1      -3.987   7.575  -3.777  0.00  0.00    +0.038 A 
ATOM     35  C   UNL     1      -3.814   7.955  -2.456  0.00  0.00    +0.127 A 
ATOM     36  F   UNL     1      -4.875   8.366  -1.727  0.00  0.00    -0.205 F 
ENDBRANCH  29  30
ENDBRANCH   1  29
TORSDOF 7
