REMARK  Name = ZINC27549414
REMARK  13 active torsions:
REMARK  status: ('A' for Active; 'I' for Inactive)
REMARK    1  A    between atoms: C_1  and  C_2
REMARK    2  A    between atoms: C_2  and  C_3
REMARK    3  A    between atoms: C_3  and  C_4
REMARK    4  A    between atoms: C_4  and  C_5
REMARK    5  A    between atoms: C_11  and  C_12
REMARK    6  A    between atoms: C_14  and  O_29
REMARK    7  A    between atoms: C_15  and  O_19
REMARK    8  A    between atoms: O_19  and  C_20
REMARK    9  A    between atoms: C_20  and  C_21
REMARK   10  A    between atoms: C_21  and  O_22
REMARK   11  A    between atoms: O_22  and  C_23
REMARK   12  A    between atoms: O_29  and  C_30
REMARK   13  A    between atoms: C_30  and  C_31
REMARK                            x       y       z     vdW  Elec       q    Type
REMARK                         _______ _______ _______ _____ _____    ______ ____
ROOT
ATOM      1  C   UNL     1      -9.618  -3.129   1.690  0.00  0.00    -0.019 A 
ATOM      2  C   UNL     1     -10.758  -2.617   2.325  0.00  0.00    +0.057 A 
ATOM      3  C   UNL     1     -11.688  -3.480   2.867  0.00  0.00    +0.164 A 
ATOM      4  C   UNL     1     -11.493  -4.859   2.784  0.00  0.00    +0.180 A 
ATOM      5  C   UNL     1     -10.363  -5.370   2.155  0.00  0.00    +0.087 A 
ATOM      6  C   UNL     1      -9.432  -4.516   1.605  0.00  0.00    +0.032 A 
ATOM      7 CL   UNL     1     -10.129  -7.087   2.057  0.00  0.00    -0.080 Cl
ENDROOT
BRANCH   1  14
ATOM      8  C   UNL     1      -7.857   3.646   1.175  0.00  0.00    +0.100 C 
ATOM      9  N   UNL     1      -7.553   2.461   0.726  0.00  0.00    -0.169 NA
ATOM     10  N   UNL     1      -7.841   1.326   1.452  0.00  0.00    -0.152 N 
ATOM     11  C   UNL     1      -7.477   0.008   1.102  0.00  0.00    +0.152 C 
ATOM     12  N   UNL     1      -6.488  -0.273   0.296  0.00  0.00    -0.283 NA
ATOM     13  C   UNL     1      -8.331  -1.032   1.743  0.00  0.00    +0.081 C 
ATOM     14  C   UNL     1      -8.627  -2.219   1.111  0.00  0.00    +0.024 C 
ATOM     15  C   UNL     1      -8.846  -0.719   3.100  0.00  0.00    +0.273 C 
ATOM     16  O   UNL     1      -9.146  -1.609   3.878  0.00  0.00    -0.268 OA
ATOM     17  N   UNL     1      -8.972   0.577   3.447  0.00  0.00    -0.152 NA
ATOM     18  C   UNL     1      -8.521   1.503   2.638  0.00  0.00    +0.181 C 
ATOM     19  S   UNL     1      -8.622   3.271   2.747  0.00  0.00    -0.038 S 
ATOM     20  H   UNL     1      -5.962   0.442  -0.094  0.00  0.00    +0.188 HD
BRANCH   8  21
ATOM     21  C   UNL     1      -7.620   4.989   0.535  0.00  0.00    +0.064 C 
BRANCH  21  22
ATOM     22  C   UNL     1      -6.929   4.795  -0.817  0.00  0.00    +0.006 C 
BRANCH  22  24
ATOM     23  C   UNL     1      -5.998   5.966  -2.818  0.00  0.00    +0.004 C 
ATOM     24  C   UNL     1      -6.688   6.160  -1.466  0.00  0.00    -0.003 C 
ENDBRANCH  22  24
ENDBRANCH  21  22
ENDBRANCH   8  21
ENDBRANCH   1  14
BRANCH   4  25
ATOM     25  O   UNL     1     -12.410  -5.705   3.319  0.00  0.00    -0.483 OA
BRANCH  25  26
ATOM     26  C   UNL     1     -13.475  -6.131   2.466  0.00  0.00    +0.270 C 
BRANCH  26  27
ATOM     27  C   UNL     1     -14.401  -7.073   3.238  0.00  0.00    +0.270 C 
BRANCH  27  28
ATOM     28  O   UNL     1     -15.032  -6.356   4.301  0.00  0.00    -0.489 OA
BRANCH  28  29
ATOM     29  C   UNL     1     -15.892  -7.052   5.090  0.00  0.00    +0.121 A 
ATOM     30  C   UNL     1     -16.120  -8.399   4.849  0.00  0.00    +0.045 A 
ATOM     31  C   UNL     1     -16.995  -9.105   5.652  0.00  0.00    +0.004 A 
ATOM     32  C   UNL     1     -17.643  -8.469   6.695  0.00  0.00    +0.000 A 
ATOM     33  C   UNL     1     -17.418  -7.127   6.937  0.00  0.00    +0.004 A 
ATOM     34  C   UNL     1     -16.539  -6.418   6.141  0.00  0.00    +0.045 A 
ENDBRANCH  28  29
ENDBRANCH  27  28
ENDBRANCH  26  27
ENDBRANCH  25  26
ENDBRANCH   4  25
BRANCH   3  35
ATOM     35  O   UNL     1     -12.795  -2.986   3.484  0.00  0.00    -0.489 OA
BRANCH  35  36
ATOM     36  C   UNL     1     -12.930  -1.565   3.534  0.00  0.00    +0.226 C 
ATOM     37  C   UNL     1     -14.226  -1.201   4.261  0.00  0.00    +0.048 C 
ENDBRANCH  35  36
ENDBRANCH   3  35
TORSDOF 11
