REMARK  Name = ZINC12312945
REMARK  8 active torsions:
REMARK  status: ('A' for Active; 'I' for Inactive)
REMARK    1  A    between atoms: C_1  and  C_2
REMARK    2  A    between atoms: C_2  and  O_3
REMARK    3  A    between atoms: O_3  and  C_4
REMARK    4  A    between atoms: C_4  and  C_6
REMARK    5  A    between atoms: C_6  and  N_7
REMARK    6  A    between atoms: N_16  and  C_17
REMARK    7  A    between atoms: C_17  and  C_19
REMARK    8  A    between atoms: C_19  and  C_20
REMARK                            x       y       z     vdW  Elec       q    Type
REMARK                         _______ _______ _______ _____ _____    ______ ____
ROOT
ATOM      1  N   UNL     1      -0.984   1.347   1.073  0.00  0.00    -0.310 N 
ATOM      2  C   UNL     1      -0.547   1.735   2.326  0.00  0.00    +0.058 A 
ATOM      3  C   UNL     1       0.772   1.930   2.767  0.00  0.00    +0.027 A 
ATOM      4  C   UNL     1       1.031   2.319   4.059  0.00  0.00    +0.002 A 
ATOM      5  C   UNL     1       0.004   2.532   4.964  0.00  0.00    +0.001 A 
ATOM      6  C   UNL     1      -1.305   2.348   4.556  0.00  0.00    +0.017 A 
ATOM      7  C   UNL     1      -1.565   1.958   3.264  0.00  0.00    +0.039 A 
ATOM      8  S   UNL     1      -3.046   1.616   2.346  0.00  0.00    -0.052 S 
ATOM      9  C   UNL     1      -2.314   1.214   0.826  0.00  0.00    +0.167 A 
ATOM     10  N   UNL     1      -2.911   0.859  -0.309  0.00  0.00    -0.156 NA
ENDROOT
BRANCH  10  11
ATOM     11  C   UNL     1      -4.237   0.781  -0.367  0.00  0.00    +0.243 C 
ATOM     12  O   UNL     1      -4.904   1.034   0.618  0.00  0.00    -0.273 OA
BRANCH  11  13
ATOM     13  C   UNL     1      -4.913   0.378  -1.652  0.00  0.00    +0.133 C 
BRANCH  13  14
ATOM     14  C   UNL     1      -6.406   0.367  -1.451  0.00  0.00    -0.038 A 
ATOM     15  C   UNL     1      -7.038  -0.790  -1.033  0.00  0.00    +0.007 A 
ATOM     16  C   UNL     1      -8.407  -0.800  -0.845  0.00  0.00    +0.038 A 
ATOM     17  C   UNL     1      -9.147   0.345  -1.085  0.00  0.00    +0.123 A 
ATOM     18  C   UNL     1      -8.514   1.501  -1.508  0.00  0.00    +0.038 A 
ATOM     19  C   UNL     1      -7.144   1.511  -1.691  0.00  0.00    +0.007 A 
ATOM     20  F   UNL     1     -10.486   0.335  -0.905  0.00  0.00    -0.205 F 
ENDBRANCH  13  14
ENDBRANCH  11  13
ENDBRANCH  10  11
BRANCH   1  21
ATOM     21  C   UNL     1      -0.013   1.086   0.008  0.00  0.00    +0.244 C 
BRANCH  21  22
ATOM     22  C   UNL     1      -0.525   1.656  -1.290  0.00  0.00    +0.327 C 
ATOM     23  O   UNL     1      -1.504   2.363  -1.294  0.00  0.00    -0.249 OA
BRANCH  22  24
ATOM     24  O   UNL     1       0.107   1.377  -2.441  0.00  0.00    -0.464 OA
BRANCH  24  26
ATOM     25  C   UNL     1       0.406   1.534  -4.853  0.00  0.00    +0.048 C 
ATOM     26  C   UNL     1      -0.441   1.960  -3.652  0.00  0.00    +0.229 C 
ENDBRANCH  24  26
ENDBRANCH  22  24
ENDBRANCH  21  22
ENDBRANCH   1  21
TORSDOF 7
