REMARK  Name = ZINC04863043
REMARK  5 active torsions:
REMARK  status: ('A' for Active; 'I' for Inactive)
REMARK    1  A    between atoms: C_1  and  C_2
REMARK    2  A    between atoms: C_2  and  C_3
REMARK    3  A    between atoms: C_2  and  C_4
REMARK    4  A    between atoms: C_7  and  C_14
REMARK    5  A    between atoms: C_9  and  C_12
REMARK                            x       y       z     vdW  Elec       q    Type
REMARK                         _______ _______ _______ _____ _____    ______ ____
ROOT
ATOM      1  C   UNL     1       1.383   2.062  -0.000  0.00  0.00    -0.070 C 
ATOM      2  C   UNL     1       2.429   1.362   0.302  0.00  0.00    -0.027 C 
ATOM      3  C   UNL     1       2.388  -0.085   0.695  0.00  0.00    +0.042 C 
ATOM      4  C   UNL     1       0.965  -0.482   1.096  0.00  0.00    +0.120 C 
ATOM      5  C   UNL     1       0.002  -0.004   0.002  0.00  0.00    +0.120 C 
ATOM      6  C   UNL     1      -0.019   1.526   0.010  0.00  0.00    +0.046 C 
ENDROOT
BRANCH   1   8
ATOM      7  C   UNL     1       1.062   3.730  -1.807  0.00  0.00    +0.012 C 
ATOM      8  C   UNL     1       1.585   3.504  -0.387  0.00  0.00    +0.008 C 
ATOM      9  C   UNL     1       0.822   4.405   0.586  0.00  0.00    +0.012 C 
ENDBRANCH   1   8
BRANCH   5  10
ATOM     10  C   UNL     1      -1.382  -0.531   0.280  0.00  0.00    +0.360 C 
ATOM     11  O   UNL     1      -1.578  -1.235   1.243  0.00  0.00    -0.246 OA
ATOM     12  O   UNL     1      -2.397  -0.218  -0.541  0.00  0.00    -0.246 OA
ENDBRANCH   5  10
BRANCH   4  13
ATOM     13  C   UNL     1       0.876  -1.981   1.230  0.00  0.00    +0.360 C 
ATOM     14  O   UNL     1       0.121  -2.606   0.524  0.00  0.00    -0.246 OA
ATOM     15  O   UNL     1       1.636  -2.620   2.133  0.00  0.00    -0.246 OA
ENDBRANCH   4  13
TORSDOF 3
