REMARK  Name = ZINC11782874
REMARK  11 active torsions:
REMARK  status: ('A' for Active; 'I' for Inactive)
REMARK    1  A    between atoms: C_1  and  O_2
REMARK    2  A    between atoms: O_2  and  C_3
REMARK    3  A    between atoms: C_3  and  C_4
REMARK    4  A    between atoms: C_7  and  C_9
REMARK    5  A    between atoms: C_9  and  N_74
REMARK    6  A    between atoms: C_12  and  C_15
REMARK    7  A    between atoms: C_18  and  S_27
REMARK    8  A    between atoms: N_19  and  C_20
REMARK    9  A    between atoms: C_20  and  C_21
REMARK   10  A    between atoms: S_27  and  C_28
REMARK   11  A    between atoms: C_28  and  C_29
REMARK                            x       y       z     vdW  Elec       q    Type
REMARK                         _______ _______ _______ _____ _____    ______ ____
ROOT
ATOM      1  C   UNL     1      -3.938   2.098   7.192  0.00  0.00    +0.137 A 
ATOM      2  N   UNL     1      -4.597   2.683   6.233  0.00  0.00    -0.133 NA
ATOM      3  N   UNL     1      -4.101   2.358   5.093  0.00  0.00    -0.122 NA
ATOM      4  C   UNL     1      -3.089   1.540   5.265  0.00  0.00    +0.192 A 
ATOM      5  N   UNL     1      -2.957   1.344   6.610  0.00  0.00    -0.303 N 
ENDROOT
BRANCH   1   8
ATOM      6  C   UNL     1      -4.411   3.819  10.579  0.00  0.00    -0.078 C 
ATOM      7  C   UNL     1      -4.075   3.689   9.091  0.00  0.00    -0.008 C 
ATOM      8  C   UNL     1      -4.210   2.224   8.669  0.00  0.00    +0.054 C 
ATOM      9  C   UNL     1      -5.631   1.741   8.971  0.00  0.00    -0.008 C 
ATOM     10  C   UNL     1      -5.923   1.929  10.461  0.00  0.00    -0.078 C 
ATOM     11  N   UNL     1      -5.800   3.363  10.798  0.00  0.00    +0.384 N 
ATOM     12  H   UNL     1      -6.428   3.903  10.190  0.00  0.00    -0.081 HD
BRANCH  11  13
ATOM     13  C   UNL     1      -6.188   3.586  12.206  0.00  0.00    -0.003 C 
BRANCH  13  17
ATOM     14  C   UNL     1      -9.834   3.634  12.393  0.00  0.00    +0.131 A 
ATOM     15  C   UNL     1      -9.622   2.340  12.694  0.00  0.00    +0.047 A 
ATOM     16  C   UNL     1      -8.224   2.136  12.662  0.00  0.00    +0.043 A 
ATOM     17  C   UNL     1      -7.664   3.320  12.351  0.00  0.00    +0.089 A 
ATOM     18  O   UNL     1      -8.645   4.222  12.186  0.00  0.00    -0.464 OA
BRANCH  14  19
ATOM     19  C   UNL     1     -11.179   4.309  12.303  0.00  0.00    +0.233 C 
BRANCH  19  21
ATOM     20  C   UNL     1     -12.797   5.503  13.606  0.00  0.00    +0.194 C 
ATOM     21  O   UNL     1     -11.532   4.839  13.582  0.00  0.00    -0.375 OA
ENDBRANCH  19  21
ENDBRANCH  14  19
ENDBRANCH  13  17
ENDBRANCH  11  13
ENDBRANCH   1   8
BRANCH   5  22
ATOM     22  C   UNL     1      -1.968   0.503   7.288  0.00  0.00    +0.157 C 
BRANCH  22  23
ATOM     23  C   UNL     1      -0.721   1.333   7.600  0.00  0.00    +0.138 C 
ATOM     24  C   UNL     1       0.318   0.476   8.367  0.00  0.00    +0.035 C 
ATOM     25  C   UNL     1       1.635   1.217   8.008  0.00  0.00    +0.031 C 
ATOM     26  C   UNL     1       1.358   1.697   6.567  0.00  0.00    +0.160 C 
ATOM     27  O   UNL     1      -0.062   1.720   6.383  0.00  0.00    -0.375 OA
ENDBRANCH  22  23
ENDBRANCH   5  22
BRANCH   4  28
ATOM     28  S   UNL     1      -2.094   0.824   3.999  0.00  0.00    -0.086 S 
BRANCH  28  29
ATOM     29  C   UNL     1      -2.880   1.543   2.537  0.00  0.00    +0.081 C 
BRANCH  29  30
ATOM     30  C   UNL     1      -2.164   1.050   1.278  0.00  0.00    -0.001 C 
ATOM     31  C   UNL     1      -0.729   1.579   1.267  0.00  0.00    +0.004 C 
ATOM     32  C   UNL     1      -0.013   1.086   0.008  0.00  0.00    +0.000 C 
ATOM     33  C   UNL     1      -0.753   1.593  -1.232  0.00  0.00    +0.000 C 
ATOM     34  C   UNL     1      -2.188   1.063  -1.221  0.00  0.00    +0.000 C 
ATOM     35  C   UNL     1      -2.904   1.556   0.038  0.00  0.00    +0.004 C 
ENDBRANCH  29  30
ENDBRANCH  28  29
ENDBRANCH   4  28
TORSDOF 10
