REMARK  Name = ZINC39966388
REMARK  9 active torsions:
REMARK  status: ('A' for Active; 'I' for Inactive)
REMARK    1  A    between atoms: C_1  and  C_2
REMARK    2  A    between atoms: C_2  and  N_3
REMARK    3  A    between atoms: C_4  and  C_26
REMARK    4  A    between atoms: C_7  and  S_8
REMARK    5  A    between atoms: S_8  and  C_9
REMARK    6  A    between atoms: C_9  and  C_10
REMARK    7  A    between atoms: C_15  and  C_18
REMARK    8  A    between atoms: C_21  and  C_25
REMARK    9  A    between atoms: C_22  and  C_24
REMARK                            x       y       z     vdW  Elec       q    Type
REMARK                         _______ _______ _______ _____ _____    ______ ____
ROOT
ATOM      1  S   UNL     1       3.310  -0.122  -0.270  0.00  0.00    -0.077 S 
ENDROOT
BRANCH   1   6
ATOM      2  N   UNL     1       0.702  -0.332  -1.264  0.00  0.00    -0.302 N 
ATOM      3  C   UNL     1       0.113  -0.840  -2.399  0.00  0.00    +0.166 A 
ATOM      4  N   UNL     1       1.073  -1.335  -3.143  0.00  0.00    -0.128 NA
ATOM      5  N   UNL     1       2.208  -1.175  -2.561  0.00  0.00    -0.122 NA
ATOM      6  C   UNL     1       2.042  -0.562  -1.412  0.00  0.00    +0.192 A 
BRANCH   3   7
ATOM      7  C   UNL     1      -1.331  -0.830  -2.718  0.00  0.00    +0.030 A 
ATOM      8  C   UNL     1      -2.242  -1.233  -1.787  0.00  0.00    +0.057 A 
ATOM      9  S   UNL     1      -3.782  -1.026  -2.666  0.00  0.00    -0.101 S 
ATOM     10  C   UNL     1      -3.113  -0.416  -4.192  0.00  0.00    -0.006 A 
ATOM     11  C   UNL     1      -1.773  -0.398  -3.985  0.00  0.00    -0.026 A 
ATOM     12  C   UNL     1      -0.792   0.047  -5.066  0.00  0.00    +0.036 C 
ATOM     13  C   UNL     1      -1.476   1.018  -6.022  0.00  0.00    +0.005 C 
ATOM     14  C   UNL     1      -2.136   0.265  -7.176  0.00  0.00    +0.001 C 
ATOM     15  C   UNL     1      -3.229  -0.657  -6.644  0.00  0.00    +0.005 C 
ATOM     16  C   UNL     1      -3.863  -0.003  -5.417  0.00  0.00    +0.043 C 
ENDBRANCH   3   7
BRANCH   2  18
ATOM     17  C   UNL     1      -0.164   1.807  -0.455  0.00  0.00    +0.027 C 
ATOM     18  C   UNL     1       0.035   0.324  -0.137  0.00  0.00    +0.122 C 
ENDBRANCH   2  18
ENDBRANCH   1   6
BRANCH   1  19
ATOM     19  C   UNL     1       4.835  -0.705  -1.062  0.00  0.00    +0.173 C 
BRANCH  19  20
ATOM     20  C   UNL     1       6.013  -0.387  -0.177  0.00  0.00    +0.229 C 
ATOM     21  O   UNL     1       5.841   0.177   0.882  0.00  0.00    -0.275 OA
ATOM     22  N   UNL     1       7.258  -0.729  -0.564  0.00  0.00    -0.264 N 
ATOM     23  C   UNL     1       8.344  -0.436   0.251  0.00  0.00    +0.165 A 
ATOM     24  N   UNL     1       9.627  -0.679   0.053  0.00  0.00    -0.225 NA
ATOM     25  C   UNL     1      10.539  -0.326   0.946  0.00  0.00    +0.080 A 
ATOM     26  C   UNL     1      10.146   0.302   2.095  0.00  0.00    +0.076 A 
ATOM     27  S   UNL     1       8.377   0.378   1.842  0.00  0.00    -0.060 S 
ATOM     28  H   UNL     1       7.396  -1.180  -1.412  0.00  0.00    +0.157 HD
BRANCH  25  29
ATOM     29  C   UNL     1      11.974  -0.610   0.702  0.00  0.00    +0.001 A 
ATOM     30  C   UNL     1      12.931  -0.243   1.648  0.00  0.00    +0.010 A 
ATOM     31  C   UNL     1      14.264  -0.510   1.415  0.00  0.00    +0.004 A 
ATOM     32  C   UNL     1      14.653  -1.140   0.247  0.00  0.00    -0.047 A 
ATOM     33  C   UNL     1      13.709  -1.507  -0.694  0.00  0.00    -0.047 A 
ATOM     34  C   UNL     1      12.371  -1.251  -0.470  0.00  0.00    +0.013 A 
ATOM     35  C   UNL     1      14.140  -2.194  -1.965  0.00  0.00    +0.044 C 
ATOM     36  C   UNL     1      16.111  -1.428  -0.001  0.00  0.00    +0.044 C 
ENDBRANCH  25  29
ENDBRANCH  19  20
ENDBRANCH   1  19
TORSDOF 6
