REMARK  Name = ZINC12116524
REMARK  3 active torsions:
REMARK  status: ('A' for Active; 'I' for Inactive)
REMARK    1  A    between atoms: C_16  and  C_17
REMARK    2  A    between atoms: C_16  and  N_47
REMARK    3  A    between atoms: C_22  and  C_23
REMARK                            x       y       z     vdW  Elec       q    Type
REMARK                         _______ _______ _______ _____ _____    ______ ____
ROOT
ATOM      1  C   UNL     1       1.181   1.779   0.000  0.00  0.00    +0.001 A 
ATOM      2  C   UNL     1      -0.013   1.076   0.008  0.00  0.00    +0.004 A 
ATOM      3  C   UNL     1      -1.222   1.744   0.017  0.00  0.00    +0.046 A 
ATOM      4  C   UNL     1      -1.244   3.128   0.033  0.00  0.00    +0.135 A 
ATOM      5  C   UNL     1      -0.035   3.841   0.039  0.00  0.00    +0.078 A 
ATOM      6  C   UNL     1       1.178   3.159   0.014  0.00  0.00    +0.017 A 
ATOM      7  C   UNL     1      -0.095   5.316   0.060  0.00  0.00    +0.250 C 
ATOM      8  O   UNL     1       0.900   5.987  -0.136  0.00  0.00    -0.270 OA
ATOM      9  N   UNL     1      -1.290   5.898   0.304  0.00  0.00    -0.274 N 
ATOM     10  C   UNL     1      -2.439   5.077   0.696  0.00  0.00    +0.175 C 
ATOM     11  O   UNL     1      -2.411   3.816   0.027  0.00  0.00    -0.468 OA
ATOM     12  C   UNL     1      -3.732   5.814   0.333  0.00  0.00    +0.050 C 
ATOM     13  C   UNL     1      -3.793   7.136   1.103  0.00  0.00    -0.073 C 
ATOM     14  C   UNL     1      -2.502   6.198   2.926  0.00  0.00    -0.073 C 
ATOM     15  C   UNL     1      -2.404   4.849   2.210  0.00  0.00    +0.050 C 
ATOM     16  H   UNL     1      -1.388   6.859   0.220  0.00  0.00    +0.153 HD
ATOM     17  N   UNL     1      -3.776   6.848   2.553  0.00  0.00    +0.383 N 
ATOM     18  H   UNL     1      -4.551   6.213   2.775  0.00  0.00    -0.081 HD
ENDROOT
BRANCH  17  19
ATOM     19  C   UNL     1      -3.946   8.101   3.317  0.00  0.00    -0.039 C 
BRANCH  19  20
ATOM     20  C   UNL     1      -5.339   8.626   3.084  0.00  0.00    -0.018 A 
ATOM     21  C   UNL     1      -5.681   9.630   2.248  0.00  0.00    +0.107 A 
ATOM     22  N   UNL     1      -7.019   9.797   2.320  0.00  0.00    -0.284 N 
ATOM     23  H   UNL     1      -7.555  10.467   1.807  0.00  0.00    +0.188 HD
ATOM     24  N   UNL     1      -7.526   8.870   3.240  0.00  0.00    -0.173 NA
ATOM     25  C   UNL     1      -6.517   8.161   3.704  0.00  0.00    +0.100 A 
BRANCH  25  26
ATOM     26  C   UNL     1      -6.605   7.070   4.699  0.00  0.00    +0.039 A 
ATOM     27  C   UNL     1      -7.441   6.951   5.776  0.00  0.00    +0.018 A 
ATOM     28  C   UNL     1      -7.339   5.831   6.573  0.00  0.00    +0.008 A 
ATOM     29  C   UNL     1      -6.416   4.883   6.268  0.00  0.00    +0.046 A 
ATOM     30  S   UNL     1      -5.653   5.563   4.804  0.00  0.00    -0.095 S 
ENDBRANCH  25  26
ENDBRANCH  19  20
ENDBRANCH  17  19
TORSDOF 3
