REMARK  Name = ZINC49765396
REMARK  5 active torsions:
REMARK  status: ('A' for Active; 'I' for Inactive)
REMARK    1  A    between atoms: C_4  and  C_7
REMARK    2  A    between atoms: C_7  and  N_8
REMARK    3  A    between atoms: N_16  and  C_17
REMARK    4  A    between atoms: C_17  and  C_19
REMARK    5  A    between atoms: C_23  and  C_25
REMARK                            x       y       z     vdW  Elec       q    Type
REMARK                         _______ _______ _______ _____ _____    ______ ____
ROOT
ATOM      1  N   UNL     1       4.153  -0.953   1.342  0.00  0.00    +0.386 N 
ATOM      2  C   UNL     1       5.489  -1.562   1.326  0.00  0.00    -0.072 C 
ATOM      3  C   UNL     1       6.093  -1.550   2.734  0.00  0.00    +0.035 C 
ATOM      4  C   UNL     1       5.081  -2.174   3.686  0.00  0.00    +0.024 A 
ATOM      5  C   UNL     1       3.797  -2.294   3.308  0.00  0.00    -0.004 A 
ATOM      6  S   UNL     1       3.021  -3.058   4.702  0.00  0.00    -0.059 S 
ATOM      7  C   UNL     1       4.375  -3.184   5.696  0.00  0.00    +0.164 A 
ATOM      8  N   UNL     1       5.367  -2.643   4.938  0.00  0.00    -0.339 N 
ATOM      9  N   UNL     1       4.455  -3.689   6.926  0.00  0.00    -0.152 NA
ATOM     10  C   UNL     1       3.204  -1.866   2.007  0.00  0.00    -0.033 C 
ATOM     11  H   UNL     1       6.272  -2.591   5.283  0.00  0.00    +0.167 HD
ATOM     12  H   UNL     1       4.188  -0.079   1.845  0.00  0.00    -0.081 HD
ENDROOT
BRANCH   9  13
ATOM     13  C   UNL     1       5.626  -3.704   7.566  0.00  0.00    +0.269 C 
ATOM     14  O   UNL     1       6.622  -3.254   7.026  0.00  0.00    -0.268 OA
BRANCH  13  15
ATOM     15  C   UNL     1       5.715  -4.267   8.934  0.00  0.00    +0.040 A 
ATOM     16  C   UNL     1       4.576  -4.787   9.552  0.00  0.00    +0.013 A 
ATOM     17  C   UNL     1       4.656  -5.311  10.826  0.00  0.00    +0.002 A 
ATOM     18  C   UNL     1       5.862  -5.325  11.499  0.00  0.00    +0.019 A 
ATOM     19  C   UNL     1       7.009  -4.808  10.893  0.00  0.00    +0.052 A 
ATOM     20  C   UNL     1       6.935  -4.282   9.603  0.00  0.00    +0.032 A 
BRANCH  19  21
ATOM     21  C   UNL     1       8.259  -4.822  11.591  0.00  0.00    +0.099 C 
ATOM     22  N   UNL     1       9.251  -4.833  12.145  0.00  0.00    -0.191 NA
ENDBRANCH  19  21
ENDBRANCH  13  15
ENDBRANCH   9  13
BRANCH   1  23
ATOM     23  C   UNL     1       3.711  -0.707  -0.038  0.00  0.00    -0.043 C 
BRANCH  23  27
ATOM     24  C   UNL     1      -0.017   1.378   0.010  0.00  0.00    +0.000 A 
ATOM     25  C   UNL     1       1.171   2.086   0.002  0.00  0.00    +0.000 A 
ATOM     26  C   UNL     1       2.377   1.411  -0.013  0.00  0.00    +0.002 A 
ATOM     27  C   UNL     1       2.396   0.029  -0.020  0.00  0.00    -0.064 A 
ATOM     28  C   UNL     1       1.208  -0.679  -0.012  0.00  0.00    +0.002 A 
ATOM     29  C   UNL     1       0.002  -0.004   0.002  0.00  0.00    +0.000 A 
ENDBRANCH  23  27
ENDBRANCH   1  23
TORSDOF 5
