REMARK  Name = ZINC38595926
REMARK  8 active torsions:
REMARK  status: ('A' for Active; 'I' for Inactive)
REMARK    1  A    between atoms: C_1  and  C_2
REMARK    2  A    between atoms: C_2  and  C_4
REMARK    3  A    between atoms: C_2  and  N_24
REMARK    4  A    between atoms: C_4  and  C_6
REMARK    5  A    between atoms: C_4  and  N_11
REMARK    6  A    between atoms: N_14  and  C_17
REMARK    7  A    between atoms: C_17  and  C_18
REMARK    8  A    between atoms: C_25  and  C_27
REMARK                            x       y       z     vdW  Elec       q    Type
REMARK                         _______ _______ _______ _____ _____    ______ ____
ROOT
ATOM      1  C   UNL     1       0.742  -0.511   1.242  0.00  0.00    +0.113 C 
ENDROOT
BRANCH   1   2
ATOM      2  N   UNL     1       0.126   0.060   2.447  0.00  0.00    -0.297 NA
ATOM      3  C   UNL     1      -1.308  -0.255   2.505  0.00  0.00    +0.066 C 
ATOM      4  C   UNL     1      -1.923   0.406   3.741  0.00  0.00    -0.063 C 
ATOM      5  N   UNL     1      -1.246  -0.087   4.948  0.00  0.00    +0.384 N 
ATOM      6  C   UNL     1       0.181   0.256   4.886  0.00  0.00    -0.063 C 
ATOM      7  C   UNL     1       0.813  -0.406   3.660  0.00  0.00    +0.066 C 
ATOM      8  H   UNL     1      -1.348  -1.089   5.005  0.00  0.00    -0.081 HD
BRANCH   5   9
ATOM      9  C   UNL     1      -1.848   0.534   6.135  0.00  0.00    -0.043 C 
BRANCH   9  10
ATOM     10  C   UNL     1      -1.239  -0.062   7.378  0.00  0.00    -0.064 A 
ATOM     11  C   UNL     1      -1.805  -1.183   7.955  0.00  0.00    +0.002 A 
ATOM     12  C   UNL     1      -1.246  -1.731   9.095  0.00  0.00    +0.000 A 
ATOM     13  C   UNL     1      -0.121  -1.157   9.657  0.00  0.00    +0.000 A 
ATOM     14  C   UNL     1       0.446  -0.036   9.079  0.00  0.00    +0.000 A 
ATOM     15  C   UNL     1      -0.111   0.508   7.937  0.00  0.00    +0.002 A 
ENDBRANCH   9  10
ENDBRANCH   5   9
ENDBRANCH   1   2
BRANCH   1  16
ATOM     16  C   UNL     1       2.188  -0.092   1.170  0.00  0.00    +0.009 A 
ATOM     17  C   UNL     1       3.268  -0.816   0.786  0.00  0.00    +0.013 A 
ATOM     18  C   UNL     1       4.514  -0.218   0.799  0.00  0.00    +0.008 A 
ATOM     19  C   UNL     1       4.619   1.075   1.194  0.00  0.00    +0.045 A 
ATOM     20  S   UNL     1       2.921   1.488   1.560  0.00  0.00    -0.100 S 
ENDBRANCH   1  16
BRANCH   1  22
ATOM     21  C   UNL     1      -0.019   1.526   0.010  0.00  0.00    +0.030 C 
ATOM     22  C   UNL     1       0.002  -0.004   0.002  0.00  0.00    +0.092 C 
BRANCH  22  23
ATOM     23  N   UNL     1       0.688  -0.476  -1.203  0.00  0.00    -0.307 N 
ATOM     24  C   UNL     1       0.006  -0.608  -2.358  0.00  0.00    +0.244 C 
ATOM     25  O   UNL     1      -1.177  -0.335  -2.400  0.00  0.00    -0.270 OA
ATOM     26  H   UNL     1       1.632  -0.695  -1.170  0.00  0.00    +0.149 HD
BRANCH  24  27
ATOM     27  C   UNL     1       0.698  -1.085  -3.575  0.00  0.00    +0.038 A 
ATOM     28  C   UNL     1       2.056  -1.405  -3.529  0.00  0.00    +0.013 A 
ATOM     29  C   UNL     1       2.696  -1.849  -4.667  0.00  0.00    +0.002 A 
ATOM     30  C   UNL     1       1.996  -1.978  -5.853  0.00  0.00    +0.015 A 
ATOM     31  C   UNL     1       0.649  -1.662  -5.907  0.00  0.00    +0.019 A 
ATOM     32  C   UNL     1      -0.005  -1.222  -4.773  0.00  0.00    +0.028 A 
ATOM     33 BR   UNL     1      -0.298  -1.840  -7.533  0.00  0.00    -0.050 Br
ENDBRANCH  24  27
ENDBRANCH  22  23
ENDBRANCH   1  22
TORSDOF 7
