REMARK  Name = ZINC59377817
REMARK  7 active torsions:
REMARK  status: ('A' for Active; 'I' for Inactive)
REMARK    1  A    between atoms: C_1  and  C_2
REMARK    2  A    between atoms: C_6  and  N_9
REMARK    3  A    between atoms: C_7  and  C_8
REMARK    4  A    between atoms: N_17  and  C_20
REMARK    5  A    between atoms: C_20  and  N_21
REMARK    6  A    between atoms: N_21  and  C_22
REMARK    7  A    between atoms: N_21  and  C_28
REMARK                            x       y       z     vdW  Elec       q    Type
REMARK                         _______ _______ _______ _____ _____    ______ ____
ROOT
ATOM      1  N   UNL     1      -2.042  -3.513   2.205  0.00  0.00    -0.242 NA
ATOM      2  C   UNL     1      -1.452  -4.677   2.327  0.00  0.00    +0.135 C 
ATOM      3  C   UNL     1      -0.692  -5.415   1.295  0.00  0.00    +0.027 A 
ATOM      4  C   UNL     1      -0.379  -5.143  -0.034  0.00  0.00    +0.012 A 
ATOM      5  C   UNL     1       0.366  -6.049  -0.761  0.00  0.00    +0.001 A 
ATOM      6  C   UNL     1       0.799  -7.224  -0.171  0.00  0.00    +0.002 A 
ATOM      7  C   UNL     1       0.495  -7.503   1.147  0.00  0.00    +0.024 A 
ATOM      8  C   UNL     1      -0.255  -6.604   1.897  0.00  0.00    +0.044 A 
ATOM      9  N   UNL     1      -0.692  -6.642   3.217  0.00  0.00    -0.282 N 
ATOM     10  C   UNL     1      -1.393  -5.540   3.534  0.00  0.00    +0.268 C 
ATOM     11  O   UNL     1      -1.893  -5.296   4.615  0.00  0.00    -0.268 OA
ENDROOT
BRANCH   1  17
ATOM     12  C   UNL     1      -1.221   0.306  -0.738  0.00  0.00    +0.044 C 
ATOM     13  C   UNL     1      -1.772  -1.075  -0.492  0.00  0.00    -0.046 A 
ATOM     14  C   UNL     1      -2.402  -1.760  -1.518  0.00  0.00    +0.004 A 
ATOM     15  C   UNL     1      -2.912  -3.029  -1.302  0.00  0.00    +0.002 A 
ATOM     16  C   UNL     1      -2.796  -3.622  -0.063  0.00  0.00    +0.028 A 
ATOM     17  C   UNL     1      -2.161  -2.936   0.980  0.00  0.00    +0.068 A 
ATOM     18  C   UNL     1      -1.643  -1.654   0.752  0.00  0.00    -0.022 A 
ATOM     19  C   UNL     1      -0.952  -0.909   1.865  0.00  0.00    +0.046 C 
ENDBRANCH   1  17
BRANCH   9  20
ATOM     20  C   UNL     1      -0.416  -7.741   4.146  0.00  0.00    +0.039 C 
BRANCH  20  21
ATOM     21  N   UNL     1       1.035  -7.871   4.334  0.00  0.00    +0.394 N 
ATOM     22  H   UNL     1       1.486  -7.937   3.435  0.00  0.00    -0.079 HD
BRANCH  21  23
ATOM     23  C   UNL     1       1.542  -6.693   5.051  0.00  0.00    -0.066 C 
ATOM     24  C   UNL     1       0.680  -6.439   6.290  0.00  0.00    -0.015 C 
ATOM     25  C   UNL     1       1.209  -5.213   7.036  0.00  0.00    -0.002 C 
ATOM     26  C   UNL     1       1.152  -3.992   6.116  0.00  0.00    -0.000 C 
ATOM     27  C   UNL     1       2.013  -4.245   4.877  0.00  0.00    -0.002 C 
ATOM     28  C   UNL     1       1.485  -5.472   4.131  0.00  0.00    -0.015 C 
ENDBRANCH  21  23
BRANCH  21  29
ATOM     29  C   UNL     1       1.321  -9.081   5.117  0.00  0.00    -0.066 C 
ATOM     30  C   UNL     1       2.828  -9.191   5.352  0.00  0.00    -0.015 C 
ATOM     31  C   UNL     1       3.126 -10.452   6.167  0.00  0.00    -0.002 C 
ATOM     32  C   UNL     1       2.638 -11.682   5.399  0.00  0.00    -0.000 C 
ATOM     33  C   UNL     1       1.130 -11.572   5.164  0.00  0.00    -0.002 C 
ATOM     34  C   UNL     1       0.832 -10.311   4.349  0.00  0.00    -0.015 C 
ENDBRANCH  21  29
ENDBRANCH  20  21
ENDBRANCH   9  20
TORSDOF 5
