REMARK  Name = ZINC39609596
REMARK  13 active torsions:
REMARK  status: ('A' for Active; 'I' for Inactive)
REMARK    1  A    between atoms: C_1  and  C_2
REMARK    2  A    between atoms: C_2  and  O_3
REMARK    3  A    between atoms: O_3  and  C_4
REMARK    4  A    between atoms: C_8  and  C_10
REMARK    5  A    between atoms: C_10  and  C_11
REMARK    6  A    between atoms: C_11  and  N_12
REMARK    7  A    between atoms: C_13  and  C_15
REMARK    8  A    between atoms: C_26  and  C_28
REMARK    9  A    between atoms: C_28  and  C_30
REMARK   10  A    between atoms: C_28  and  O_33
REMARK   11  A    between atoms: C_30  and  C_31
REMARK   12  A    between atoms: C_30  and  C_32
REMARK   13  A    between atoms: O_33  and  C_34
REMARK                            x       y       z     vdW  Elec       q    Type
REMARK                         _______ _______ _______ _____ _____    ______ ____
ROOT
ATOM      1  C   UNL     1      -8.156  -6.451   2.530  0.00  0.00    +0.100 C 
ATOM      2  C   UNL     1      -9.095  -5.346   1.997  0.00  0.00    +0.121 C 
ATOM      3  N   UNL     1     -10.300  -5.432   2.855  0.00  0.00    -0.297 N 
ATOM      4  C   UNL     1      -9.768  -5.698   4.213  0.00  0.00    +0.115 C 
ATOM      5  C   UNL     1      -8.600  -6.678   3.985  0.00  0.00    -0.004 C 
ATOM      6  C   UNL     1      -7.455  -6.365   4.943  0.00  0.00    -0.010 C 
ATOM      7  C   UNL     1      -7.902  -6.655   6.378  0.00  0.00    -0.082 C 
ATOM      8  N   UNL     1      -8.293  -8.065   6.496  0.00  0.00    +0.379 N 
ATOM      9  C   UNL     1      -9.455  -8.335   5.641  0.00  0.00    -0.082 C 
ATOM     10  C   UNL     1      -9.074  -8.117   4.174  0.00  0.00    -0.010 C 
ATOM     11  C   UNL     1     -11.589  -5.300   2.484  0.00  0.00    +0.257 C 
ATOM     12  O   UNL     1     -12.466  -5.314   3.322  0.00  0.00    -0.272 OA
ATOM     13  H   UNL     1      -7.523  -8.651   6.210  0.00  0.00    -0.086 HD
ATOM     14  H   UNL     1      -8.529  -8.268   7.456  0.00  0.00    -0.086 HD
ENDROOT
BRANCH   1  16
ATOM     15  N   UNL     1      -5.722  -6.891   2.488  0.00  0.00    -0.315 N 
ATOM     16  C   UNL     1      -6.723  -5.988   2.486  0.00  0.00    +0.218 C 
ATOM     17  O   UNL     1      -6.469  -4.803   2.448  0.00  0.00    -0.275 OA
ATOM     18  H   UNL     1      -5.925  -7.840   2.519  0.00  0.00    +0.149 HD
BRANCH  15  19
ATOM     19  C   UNL     1      -4.329  -6.441   2.445  0.00  0.00    +0.109 C 
BRANCH  19  20
ATOM     20  C   UNL     1      -3.400  -7.657   2.457  0.00  0.00    +0.054 C 
BRANCH  20  25
ATOM     21  C   UNL     1      -0.017  -6.589   1.156  0.00  0.00    +0.121 A 
ATOM     22  C   UNL     1       0.667  -6.344   2.338  0.00  0.00    +0.045 A 
ATOM     23  C   UNL     1       0.033  -6.525   3.552  0.00  0.00    +0.004 A 
ATOM     24  C   UNL     1      -1.283  -6.950   3.589  0.00  0.00    +0.004 A 
ATOM     25  C   UNL     1      -1.966  -7.194   2.413  0.00  0.00    -0.042 A 
ATOM     26  C   UNL     1      -1.338  -7.009   1.196  0.00  0.00    +0.049 A 
BRANCH  21  27
ATOM     27  O   UNL     1       0.605  -6.411  -0.039  0.00  0.00    -0.492 OA
BRANCH  27  29
ATOM     28  C   UNL     1       2.492  -5.833  -1.434  0.00  0.00    +0.048 C 
ATOM     29  C   UNL     1       1.966  -5.976  -0.004  0.00  0.00    +0.225 C 
ENDBRANCH  27  29
ENDBRANCH  21  27
ENDBRANCH  20  25
ENDBRANCH  19  20
ENDBRANCH  15  19
ENDBRANCH   1  16
BRANCH  11  30
ATOM     30  C   UNL     1     -11.941  -5.135   1.028  0.00  0.00    +0.261 C 
BRANCH  30  31
ATOM     31  C   UNL     1     -11.901  -3.651   0.658  0.00  0.00    +0.033 C 
ATOM     32  C   UNL     1     -10.531  -3.073   1.019  0.00  0.00    +0.011 C 
ATOM     33  C   UNL     1     -12.142  -3.493  -0.844  0.00  0.00    +0.011 C 
ENDBRANCH  30  31
BRANCH  30  34
ATOM     34  O   UNL     1     -13.254  -5.649   0.794  0.00  0.00    -0.479 OA
BRANCH  34  35
ATOM     35  C   UNL     1     -13.483  -6.232  -0.412  0.00  0.00    +0.122 A 
ATOM     36  C   UNL     1     -12.442  -6.392  -1.315  0.00  0.00    +0.045 A 
ATOM     37  C   UNL     1     -12.677  -6.986  -2.540  0.00  0.00    +0.004 A 
ATOM     38  C   UNL     1     -13.949  -7.419  -2.867  0.00  0.00    +0.000 A 
ATOM     39  C   UNL     1     -14.988  -7.260  -1.969  0.00  0.00    +0.004 A 
ATOM     40  C   UNL     1     -14.757  -6.673  -0.740  0.00  0.00    +0.045 A 
ENDBRANCH  34  35
ENDBRANCH  30  34
ENDBRANCH  11  30
TORSDOF 10
