REMARK  Name = ZINC35964904
REMARK  7 active torsions:
REMARK  status: ('A' for Active; 'I' for Inactive)
REMARK    1  A    between atoms: C_1  and  C_2
REMARK    2  A    between atoms: C_2  and  N_3
REMARK    3  A    between atoms: C_6  and  C_11
REMARK    4  A    between atoms: N_20  and  C_22
REMARK    5  A    between atoms: C_22  and  C_24
REMARK    6  A    between atoms: C_22  and  C_30
REMARK    7  A    between atoms: N_32  and  C_33
REMARK                            x       y       z     vdW  Elec       q    Type
REMARK                         _______ _______ _______ _____ _____    ______ ____
ROOT
ATOM      1  N   UNL     1       0.875  -1.958   1.419  0.00  0.00    -0.257 N 
ATOM      2  C   UNL     1       2.221  -1.811   1.240  0.00  0.00    +0.042 C 
ATOM      3  C   UNL     1       3.097  -2.175   2.198  0.00  0.00    +0.058 C 
ATOM      4  C   UNL     1       2.538  -2.753   3.482  0.00  0.00    +0.142 C 
ATOM      5  N   UNL     1       1.073  -2.870   3.578  0.00  0.00    -0.288 N 
ATOM      6  C   UNL     1       0.326  -2.457   2.534  0.00  0.00    +0.307 C 
ATOM      7  O   UNL     1      -0.884  -2.546   2.605  0.00  0.00    -0.252 OA
ATOM      8  C   UNL     1       4.419  -1.925   1.774  0.00  0.00    +0.247 C 
ATOM      9  O   UNL     1       5.411  -2.159   2.441  0.00  0.00    -0.270 OA
ATOM     10  N   UNL     1       4.441  -1.396   0.538  0.00  0.00    -0.277 N 
ATOM     11  C   UNL     1       3.045  -1.277   0.090  0.00  0.00    +0.160 C 
ATOM     12  H   UNL     1       0.655  -3.232   4.375  0.00  0.00    +0.151 HD
ENDROOT
BRANCH   4  13
ATOM     13  C   UNL     1       3.126  -4.128   3.668  0.00  0.00    -0.022 A 
ATOM     14  C   UNL     1       2.607  -5.202   2.970  0.00  0.00    +0.007 A 
ATOM     15  C   UNL     1       3.146  -6.463   3.141  0.00  0.00    +0.020 A 
ATOM     16  C   UNL     1       4.206  -6.650   4.010  0.00  0.00    +0.041 A 
ATOM     17  C   UNL     1       4.725  -5.575   4.708  0.00  0.00    +0.020 A 
ATOM     18  C   UNL     1       4.189  -4.313   4.533  0.00  0.00    +0.007 A 
ATOM     19 CL   UNL     1       4.883  -8.234   4.225  0.00  0.00    -0.084 Cl
ENDBRANCH   4  13
BRANCH   1  21
ATOM     20  C   UNL     1      -0.392  -0.069   0.521  0.00  0.00    +0.025 C 
ATOM     21  C   UNL     1      -0.017  -1.540   0.335  0.00  0.00    +0.111 C 
ENDBRANCH   1  21
BRANCH  10  22
ATOM     22  C   UNL     1       5.633  -1.010  -0.221  0.00  0.00    +0.193 C 
BRANCH  22  23
ATOM     23  C   UNL     1       6.327   0.130   0.480  0.00  0.00    -0.018 A 
ATOM     24  C   UNL     1       5.592   1.202   0.950  0.00  0.00    +0.006 A 
ATOM     25  C   UNL     1       6.229   2.248   1.592  0.00  0.00    +0.000 A 
ATOM     26  C   UNL     1       7.600   2.220   1.765  0.00  0.00    +0.000 A 
ATOM     27  C   UNL     1       8.335   1.147   1.296  0.00  0.00    +0.000 A 
ATOM     28  C   UNL     1       7.697   0.100   0.657  0.00  0.00    +0.006 A 
ENDBRANCH  22  23
BRANCH  22  29
ATOM     29  C   UNL     1       5.228  -0.576  -1.606  0.00  0.00    +0.242 C 
ATOM     30  O   UNL     1       4.059  -0.588  -1.928  0.00  0.00    -0.273 OA
ATOM     31  N   UNL     1       6.165  -0.174  -2.487  0.00  0.00    -0.284 N 
ATOM     32  H   UNL     1       7.105  -0.235  -2.257  0.00  0.00    +0.155 HD
BRANCH  31  33
ATOM     33  C   UNL     1       5.782   0.330  -3.736  0.00  0.00    +0.034 A 
ATOM     34  C   UNL     1       6.582   0.114  -4.849  0.00  0.00    +0.026 A 
ATOM     35  C   UNL     1       6.202   0.612  -6.080  0.00  0.00    +0.040 A 
ATOM     36  C   UNL     1       5.024   1.328  -6.204  0.00  0.00    +0.124 A 
ATOM     37  C   UNL     1       4.223   1.545  -5.095  0.00  0.00    +0.040 A 
ATOM     38  C   UNL     1       4.597   1.043  -3.864  0.00  0.00    +0.026 A 
ATOM     39  F   UNL     1       4.654   1.816  -7.409  0.00  0.00    -0.205 F 
ENDBRANCH  31  33
ENDBRANCH  22  29
ENDBRANCH  10  22
TORSDOF 6
