REMARK  Name = ZINC60857447
REMARK  2 active torsions:
REMARK  status: ('A' for Active; 'I' for Inactive)
REMARK    1  A    between atoms: N_9  and  C_10
REMARK    2  A    between atoms: C_15  and  C_16
REMARK                            x       y       z     vdW  Elec       q    Type
REMARK                         _______ _______ _______ _____ _____    ______ ____
ROOT
ATOM      1  C   UNL     1      -0.022   1.783   0.012  0.00  0.00    +0.183 A 
ATOM      2  N   UNL     1       1.271   2.034   0.001  0.00  0.00    -0.148 NA
ATOM      3  N   UNL     1       2.085   1.068  -0.012  0.00  0.00    -0.126 NA
ATOM      4  C   UNL     1       1.678  -0.186  -0.015  0.00  0.00    +0.189 A 
ATOM      5  S   UNL     1       0.002  -0.004   0.002  0.00  0.00    -0.039 S 
ATOM      6  N   UNL     1       2.434  -1.354  -0.028  0.00  0.00    -0.247 N 
ATOM      7  C   UNL     1       3.780  -1.285  -0.040  0.00  0.00    +0.306 C 
ATOM      8  O   UNL     1       4.333  -0.203  -0.040  0.00  0.00    -0.252 OA
ATOM      9  N   UNL     1       4.512  -2.417  -0.053  0.00  0.00    -0.296 N 
ATOM     10  H   UNL     1       1.992  -2.217  -0.029  0.00  0.00    +0.158 HD
ATOM     11  H   UNL     1       4.070  -3.280  -0.054  0.00  0.00    +0.151 HD
ENDROOT
BRANCH   9  12
ATOM     12  C   UNL     1       5.975  -2.342  -0.067  0.00  0.00    +0.086 C 
ATOM     13  C   UNL     1       6.491  -2.199   1.367  0.00  0.00    +0.023 C 
ATOM     14  C   UNL     1       6.049  -3.410   2.191  0.00  0.00    +0.002 C 
ATOM     15  C   UNL     1       6.619  -4.686   1.569  0.00  0.00    +0.001 C 
ATOM     16  C   UNL     1       6.103  -4.829   0.136  0.00  0.00    +0.014 C 
ATOM     17  C   UNL     1       6.545  -3.619  -0.689  0.00  0.00    +0.113 C 
BRANCH  17  18
ATOM     18  C   UNL     1       6.029  -3.762  -2.122  0.00  0.00    +0.395 C 
ATOM     19  F   UNL     1       6.433  -2.655  -2.876  0.00  0.00    -0.170 F 
ATOM     20  F   UNL     1       6.550  -4.929  -2.691  0.00  0.00    -0.170 F 
ATOM     21  F   UNL     1       4.631  -3.833  -2.109  0.00  0.00    -0.170 F 
ENDBRANCH  17  18
ENDBRANCH   9  12
TORSDOF 2
