REMARK  Name = ZINC14922230
REMARK  12 active torsions:
REMARK  status: ('A' for Active; 'I' for Inactive)
REMARK    1  A    between atoms: C_1  and  C_2
REMARK    2  A    between atoms: C_7  and  N_8
REMARK    3  A    between atoms: C_9  and  C_11
REMARK    4  A    between atoms: C_11  and  N_12
REMARK    5  A    between atoms: N_12  and  C_13
REMARK    6  A    between atoms: N_12  and  C_14
REMARK    7  A    between atoms: C_14  and  C_16
REMARK    8  A    between atoms: C_14  and  C_17
REMARK    9  A    between atoms: N_19  and  C_20
REMARK   10  A    between atoms: C_25  and  C_26
REMARK   11  A    between atoms: C_26  and  C_27
REMARK   12  A    between atoms: C_26  and  C_28
REMARK                            x       y       z     vdW  Elec       q    Type
REMARK                         _______ _______ _______ _____ _____    ______ ____
ROOT
ATOM      1  N   UNL     1      -0.788  -0.137   5.920  0.00  0.00    +0.391 N 
ATOM      2  C   UNL     1      -1.942  -1.023   5.716  0.00  0.00    -0.094 C 
ATOM      3  H   UNL     1      -0.017  -0.454   5.352  0.00  0.00    -0.080 HD
ENDROOT
BRANCH   1   4
ATOM      4  C   UNL     1      -0.396  -0.161   7.335  0.00  0.00    +0.017 C 
ATOM      5  C   UNL     1      -0.130  -1.605   7.766  0.00  0.00    -0.004 C 
BRANCH   4   6
ATOM      6  C   UNL     1       0.854   0.658   7.524  0.00  0.00    +0.203 C 
ATOM      7  O   UNL     1       1.630   0.801   6.603  0.00  0.00    -0.277 OA
ATOM      8  N   UNL     1       1.111   1.231   8.717  0.00  0.00    -0.287 N 
ATOM      9  H   UNL     1       0.525   1.063   9.472  0.00  0.00    +0.155 HD
BRANCH   8  10
ATOM     10  C   UNL     1       2.221   2.069   8.866  0.00  0.00    +0.037 A 
ATOM     11  C   UNL     1       3.382   1.821   8.145  0.00  0.00    +0.023 A 
ATOM     12  C   UNL     1       4.476   2.650   8.295  0.00  0.00    +0.002 A 
ATOM     13  C   UNL     1       4.417   3.726   9.161  0.00  0.00    +0.000 A 
ATOM     14  C   UNL     1       3.263   3.976   9.880  0.00  0.00    +0.006 A 
ATOM     15  C   UNL     1       2.163   3.155   9.730  0.00  0.00    -0.024 A 
BRANCH  15  16
ATOM     16  C   UNL     1       0.902   3.432  10.508  0.00  0.00    +0.015 C 
ATOM     17  C   UNL     1       1.222   3.457  12.005  0.00  0.00    +0.012 C 
ATOM     18  C   UNL     1       0.330   4.786  10.086  0.00  0.00    +0.012 C 
ENDBRANCH  15  16
ENDBRANCH   8  10
ENDBRANCH   4   6
ENDBRANCH   1   4
BRANCH   1  19
ATOM     19  C   UNL     1      -1.150   1.234   5.535  0.00  0.00    +0.020 C 
BRANCH  19  21
ATOM     20  N   UNL     1      -1.761   2.451   3.470  0.00  0.00    -0.287 N 
ATOM     21  C   UNL     1      -1.411   1.287   4.052  0.00  0.00    +0.201 C 
ATOM     22  O   UNL     1      -1.306   0.281   3.381  0.00  0.00    -0.278 OA
ATOM     23  H   UNL     1      -1.781   3.268   3.994  0.00  0.00    +0.155 HD
BRANCH  20  30
ATOM     24  C   UNL     1      -3.630   4.407   2.591  0.00  0.00    +0.046 C 
ATOM     25  C   UNL     1      -3.003   3.421   1.640  0.00  0.00    -0.028 A 
ATOM     26  C   UNL     1      -3.326   3.454   0.297  0.00  0.00    +0.020 A 
ATOM     27  C   UNL     1      -2.751   2.548  -0.576  0.00  0.00    +0.018 A 
ATOM     28  C   UNL     1      -1.850   1.607  -0.108  0.00  0.00    +0.017 A 
ATOM     29  C   UNL     1      -1.523   1.571   1.233  0.00  0.00    +0.024 A 
ATOM     30  C   UNL     1      -2.095   2.482   2.111  0.00  0.00    +0.036 A 
ATOM     31 BR   UNL     1      -3.196   2.595  -2.413  0.00  0.00    -0.050 Br
ENDBRANCH  20  30
ENDBRANCH  19  21
ENDBRANCH   1  19
TORSDOF 7
