REMARK  Name = ZINC37284086
REMARK  6 active torsions:
REMARK  status: ('A' for Active; 'I' for Inactive)
REMARK    1  A    between atoms: C_1  and  C_2
REMARK    2  A    between atoms: C_2  and  C_4
REMARK    3  A    between atoms: C_2  and  N_10
REMARK    4  A    between atoms: N_10  and  C_11
REMARK    5  A    between atoms: C_16  and  O_17
REMARK    6  A    between atoms: O_17  and  C_18
REMARK                            x       y       z     vdW  Elec       q    Type
REMARK                         _______ _______ _______ _____ _____    ______ ____
ROOT
ATOM      1  C   UNL     1       0.026  -0.639   2.400  0.00  0.00    +0.072 A 
ATOM      2  C   UNL     1      -1.325  -0.334   2.478  0.00  0.00    +0.046 A 
ATOM      3  C   UNL     1      -2.000  -0.483   3.676  0.00  0.00    +0.044 A 
ATOM      4  C   UNL     1      -1.331  -0.936   4.798  0.00  0.00    +0.039 A 
ATOM      5  C   UNL     1       0.017  -1.242   4.728  0.00  0.00    +0.063 A 
ATOM      6  C   UNL     1       0.698  -1.100   3.530  0.00  0.00    +0.162 A 
ATOM      7 BR   UNL     1       0.927  -1.861   6.265  0.00  0.00    -0.046 Br
ATOM      8 CL   UNL     1      -3.691  -0.100   3.771  0.00  0.00    -0.083 Cl
ENDROOT
BRANCH   1   9
ATOM      9  N   UNL     1       0.711  -0.489   1.189  0.00  0.00    -0.338 N 
ATOM     10  H   UNL     1       1.654  -0.707   1.135  0.00  0.00    +0.146 HD
BRANCH   9  12
ATOM     11  C   UNL     1      -0.019   1.526   0.010  0.00  0.00    +0.028 C 
ATOM     12  C   UNL     1       0.002  -0.004   0.002  0.00  0.00    +0.070 C 
BRANCH  12  13
ATOM     13  C   UNL     1       0.718  -0.497  -1.257  0.00  0.00    +0.009 C 
ATOM     14  C   UNL     1       2.154   0.032  -1.268  0.00  0.00    +0.005 C 
ATOM     15  C   UNL     1       2.870  -0.461  -2.526  0.00  0.00    +0.000 C 
ATOM     16  C   UNL     1       2.130   0.045  -3.766  0.00  0.00    +0.000 C 
ATOM     17  C   UNL     1       0.694  -0.484  -3.755  0.00  0.00    +0.000 C 
ATOM     18  C   UNL     1      -0.022   0.009  -2.496  0.00  0.00    +0.005 C 
ENDBRANCH  12  13
ENDBRANCH   9  12
ENDBRANCH   1   9
BRANCH   6  19
ATOM     19  O   UNL     1       2.022  -1.406   3.458  0.00  0.00    -0.431 OA
BRANCH  19  20
ATOM     20  C   UNL     1       2.947  -0.353   3.738  0.00  0.00    +0.541 C 
ATOM     21  F   UNL     1       2.752   0.692   2.829  0.00  0.00    -0.166 F 
ATOM     22  F   UNL     1       2.739   0.115   5.040  0.00  0.00    -0.166 F 
ENDBRANCH  19  20
ENDBRANCH   6  19
TORSDOF 5
