REMARK  Name = ZINC08921132
REMARK  13 active torsions:
REMARK  status: ('A' for Active; 'I' for Inactive)
REMARK    1  A    between atoms: C_1  and  C_2
REMARK    2  A    between atoms: C_2  and  C_3
REMARK    3  A    between atoms: C_2  and  O_4
REMARK    4  A    between atoms: O_4  and  C_5
REMARK    5  A    between atoms: C_8  and  C_11
REMARK    6  A    between atoms: C_14  and  C_15
REMARK    7  A    between atoms: C_14  and  O_22
REMARK    8  A    between atoms: N_27  and  C_28
REMARK    9  A    between atoms: C_28  and  C_29
REMARK   10  A    between atoms: C_29  and  C_30
REMARK   11  A    between atoms: C_30  and  N_61
REMARK   12  A    between atoms: C_31  and  N_61
REMARK   13  A    between atoms: C_32  and  N_61
REMARK                            x       y       z     vdW  Elec       q    Type
REMARK                         _______ _______ _______ _____ _____    ______ ____
ROOT
ATOM      1  C   UNL     1      -1.689   2.236   0.276  0.00  0.00    +0.144 C 
ATOM      2  C   UNL     1      -1.838   2.646  -1.171  0.00  0.00    +0.071 C 
ATOM      3  C   UNL     1      -2.062   1.815  -2.250  0.00  0.00    +0.133 C 
ATOM      4  C   UNL     1      -1.701   4.043  -1.197  0.00  0.00    +0.249 C 
ATOM      5  O   UNL     1      -1.760   4.749  -2.187  0.00  0.00    -0.282 OA
ATOM      6  C   UNL     1      -1.472   4.512   0.197  0.00  0.00    +0.288 C 
ATOM      7  O   UNL     1      -1.313   5.670   0.524  0.00  0.00    -0.266 OA
ATOM      8  N   UNL     1      -1.466   3.465   1.041  0.00  0.00    -0.284 N 
ENDROOT
BRANCH   3   9
ATOM      9  C   UNL     1      -2.336   2.390  -3.578  0.00  0.00    +0.017 A 
ATOM     10  C   UNL     1      -3.374   3.313  -3.743  0.00  0.00    +0.012 A 
ATOM     11  C   UNL     1      -3.622   3.851  -4.988  0.00  0.00    +0.016 A 
ATOM     12  C   UNL     1      -2.852   3.471  -6.076  0.00  0.00    +0.018 A 
ATOM     13  C   UNL     1      -1.827   2.552  -5.921  0.00  0.00    +0.016 A 
ATOM     14  C   UNL     1      -1.564   2.010  -4.681  0.00  0.00    +0.012 A 
ATOM     15 BR   UNL     1      -3.204   4.209  -7.781  0.00  0.00    -0.050 Br
ENDBRANCH   3   9
BRANCH   1  19
ATOM     16  C   UNL     1       1.655  -0.390   0.705  0.00  0.00    +0.121 A 
ATOM     17  C   UNL     1       0.366  -0.903   0.695  0.00  0.00    +0.046 A 
ATOM     18  C   UNL     1      -0.713  -0.052   0.559  0.00  0.00    +0.009 A 
ATOM     19  C   UNL     1      -0.510   1.310   0.431  0.00  0.00    -0.022 A 
ATOM     20  C   UNL     1       0.774   1.824   0.441  0.00  0.00    +0.009 A 
ATOM     21  C   UNL     1       1.857   0.977   0.577  0.00  0.00    +0.046 A 
BRANCH  16  22
ATOM     22  O   UNL     1       2.719  -1.225   0.839  0.00  0.00    -0.489 OA
BRANCH  22  24
ATOM     23  C   UNL     1       3.645  -3.442   0.581  0.00  0.00    +0.051 C 
ATOM     24  C   UNL     1       2.435  -2.614   1.018  0.00  0.00    +0.167 C 
ATOM     25  C   UNL     1       2.135  -2.887   2.493  0.00  0.00    +0.051 C 
ENDBRANCH  22  24
ENDBRANCH  16  22
ENDBRANCH   1  19
BRANCH   3  26
ATOM     26  O   UNL     1      -2.030   0.475  -2.087  0.00  0.00    -0.506 OA
ATOM     27  H   UNL     1      -2.213   0.029  -2.964  0.00  0.00    +0.292 HD
ENDBRANCH   3  26
BRANCH   8  28
ATOM     28  C   UNL     1      -1.270   3.542   2.491  0.00  0.00    +0.107 C 
BRANCH  28  29
ATOM     29  C   UNL     1       0.222   3.425   2.811  0.00  0.00    +0.000 C 
BRANCH  29  30
ATOM     30  C   UNL     1       0.426   3.505   4.325  0.00  0.00    -0.078 C 
BRANCH  30  33
ATOM     31  C   UNL     1       2.599   4.553   4.118  0.00  0.00    -0.097 C 
ATOM     32  C   UNL     1       2.076   3.227   6.075  0.00  0.00    -0.097 C 
ATOM     33  N   UNL     1       1.869   3.369   4.619  0.00  0.00    +0.376 N 
ATOM     34  H   UNL     1       2.228   2.531   4.147  0.00  0.00    -0.083 HD
ENDBRANCH  30  33
ENDBRANCH  29  30
ENDBRANCH  28  29
ENDBRANCH   8  28
TORSDOF 9
