REMARK  Name = ZINC36597215
REMARK  17 active torsions:
REMARK  status: ('A' for Active; 'I' for Inactive)
REMARK    1  A    between atoms: C_1  and  C_2
REMARK    2  A    between atoms: C_5  and  C_7
REMARK    3  A    between atoms: C_7  and  N_8
REMARK    4  A    between atoms: N_8  and  C_9
REMARK    5  A    between atoms: C_9  and  C_11
REMARK    6  A    between atoms: C_9  and  C_18
REMARK    7  A    between atoms: C_16  and  O_17
REMARK    8  A    between atoms: N_20  and  C_21
REMARK    9  A    between atoms: C_21  and  C_22
REMARK   10  A    between atoms: C_21  and  C_23
REMARK   11  A    between atoms: C_21  and  C_24
REMARK   12  A    between atoms: C_24  and  C_25
REMARK   13  A    between atoms: C_25  and  C_26
REMARK   14  A    between atoms: C_25  and  C_27
REMARK   15  A    between atoms: C_25  and  C_28
REMARK   16  A    between atoms: C_29  and  C_31
REMARK   17  A    between atoms: C_34  and  O_37
REMARK                            x       y       z     vdW  Elec       q    Type
REMARK                         _______ _______ _______ _____ _____    ______ ____
ROOT
ATOM      1  C   UNL     1       3.695  -3.096  -0.539  0.00  0.00    +0.196 C 
ENDROOT
BRANCH   1   2
ATOM      2  C   UNL     1       2.734  -1.936  -0.506  0.00  0.00    +0.023 A 
ATOM      3  C   UNL     1       2.219  -1.499   0.699  0.00  0.00    +0.009 A 
ATOM      4  C   UNL     1       1.337  -0.434   0.731  0.00  0.00    +0.001 A 
ATOM      5  C   UNL     1       0.969   0.196  -0.444  0.00  0.00    +0.004 A 
ATOM      6  C   UNL     1       1.482  -0.237  -1.651  0.00  0.00    +0.046 A 
ATOM      7  C   UNL     1       2.371  -1.302  -1.685  0.00  0.00    +0.122 A 
BRANCH   7   8
ATOM      8  O   UNL     1       2.881  -1.726  -2.871  0.00  0.00    -0.506 OA
ATOM      9  H   UNL     1       2.351  -2.407  -3.306  0.00  0.00    +0.292 HD
ENDBRANCH   7   8
ENDBRANCH   1   2
BRANCH   1  10
ATOM     10  C   UNL     1       5.109  -2.577  -0.586  0.00  0.00    +0.239 C 
ATOM     11  O   UNL     1       5.926  -2.970   0.219  0.00  0.00    -0.273 OA
ATOM     12  N   UNL     1       5.465  -1.677  -1.523  0.00  0.00    -0.308 N 
ATOM     13  H   UNL     1       4.798  -1.318  -2.130  0.00  0.00    +0.149 HD
BRANCH  12  14
ATOM     14  C   UNL     1       6.859  -1.239  -1.626  0.00  0.00    +0.030 C 
ATOM     15  C   UNL     1       7.184  -0.293  -0.469  0.00  0.00    +0.031 C 
ATOM     16  C   UNL     1       7.782  -2.458  -1.563  0.00  0.00    +0.031 C 
BRANCH  14  17
ATOM     17  C   UNL     1       7.068  -0.510  -2.955  0.00  0.00    +0.031 C 
BRANCH  17  18
ATOM     18  C   UNL     1       6.458  -1.333  -4.090  0.00  0.00    -0.036 C 
ATOM     19  C   UNL     1       4.937  -1.166  -4.082  0.00  0.00    +0.010 C 
ATOM     20  C   UNL     1       7.017  -0.849  -5.430  0.00  0.00    +0.010 C 
ATOM     21  C   UNL     1       6.809  -2.810  -3.895  0.00  0.00    +0.010 C 
ENDBRANCH  17  18
ENDBRANCH  14  17
ENDBRANCH  12  14
ENDBRANCH   1  10
BRANCH   1  22
ATOM     22  N   UNL     1       3.515  -3.914   0.663  0.00  0.00    -0.274 N 
ATOM     23  C   UNL     1       2.325  -4.497   0.910  0.00  0.00    +0.248 C 
ATOM     24  O   UNL     1       2.116  -5.020   1.987  0.00  0.00    -0.270 OA
BRANCH  23  25
ATOM     25  C   UNL     1       1.276  -4.501  -0.129  0.00  0.00    +0.037 A 
ATOM     26  C   UNL     1       1.478  -3.818  -1.331  0.00  0.00    +0.016 A 
ATOM     27  C   UNL     1       0.496  -3.824  -2.297  0.00  0.00    +0.046 A 
ATOM     28  C   UNL     1      -0.694  -4.508  -2.078  0.00  0.00    +0.117 A 
ATOM     29  C   UNL     1      -0.898  -5.188  -0.883  0.00  0.00    +0.046 A 
ATOM     30  C   UNL     1       0.080  -5.192   0.086  0.00  0.00    +0.016 A 
BRANCH  28  31
ATOM     31  O   UNL     1      -1.658  -4.511  -3.032  0.00  0.00    -0.507 OA
ATOM     32  H   UNL     1      -1.585  -5.240  -3.663  0.00  0.00    +0.292 HD
ENDBRANCH  28  31
ENDBRANCH  23  25
BRANCH  22  33
ATOM     33  C   UNL     1       4.628  -4.098   1.598  0.00  0.00    +0.183 C 
BRANCH  33  38
ATOM     34  C   UNL     1       6.009  -8.930   1.169  0.00  0.00    +0.086 C 
ATOM     35  C   UNL     1       6.009  -7.429   1.027  0.00  0.00    +0.102 A 
ATOM     36  C   UNL     1       6.930  -6.701   0.370  0.00  0.00    +0.045 A 
ATOM     37  C   UNL     1       6.542  -5.347   0.490  0.00  0.00    +0.046 A 
ATOM     38  C   UNL     1       5.408  -5.328   1.214  0.00  0.00    +0.122 A 
ATOM     39  O   UNL     1       5.087  -6.593   1.531  0.00  0.00    -0.463 OA
ENDBRANCH  33  38
ENDBRANCH  22  33
ENDBRANCH   1  22
TORSDOF 11
