REMARK  Name = ZINC44858807
REMARK  6 active torsions:
REMARK  status: ('A' for Active; 'I' for Inactive)
REMARK    1  A    between atoms: C_1  and  C_2
REMARK    2  A    between atoms: C_5  and  C_8
REMARK    3  A    between atoms: C_13  and  C_17
REMARK    4  A    between atoms: C_13  and  C_18
REMARK    5  A    between atoms: C_24  and  C_25
REMARK    6  A    between atoms: N_27  and  C_28
REMARK                            x       y       z     vdW  Elec       q    Type
REMARK                         _______ _______ _______ _____ _____    ______ ____
ROOT
ATOM      1  C   UNL     1       0.058  -4.291  -0.029  0.00  0.00    +0.174 C 
ATOM      2  C   UNL     1      -1.171  -4.805   0.688  0.00  0.00    +0.041 C 
ATOM      3  C   UNL     1      -1.109  -5.344   1.925  0.00  0.00    +0.019 C 
ATOM      4  C   UNL     1      -2.353  -5.849   2.616  0.00  0.00    +0.058 C 
ATOM      5  C   UNL     1      -3.563  -5.030   2.162  0.00  0.00    -0.023 C 
ATOM      6  C   UNL     1      -3.685  -5.153   0.640  0.00  0.00    +0.086 C 
ATOM      7  C   UNL     1      -2.398  -4.698   0.009  0.00  0.00    +0.164 C 
ATOM      8  O   UNL     1      -2.419  -4.227  -1.111  0.00  0.00    -0.292 OA
ATOM      9  C   UNL     1      -3.366  -3.563   2.547  0.00  0.00    +0.011 C 
ATOM     10  C   UNL     1      -4.830  -5.572   2.826  0.00  0.00    +0.011 C 
ATOM     11  N   UNL     1       0.081  -5.462   2.602  0.00  0.00    -0.302 N 
ATOM     12  C   UNL     1       1.251  -5.305   1.886  0.00  0.00    +0.134 A 
ATOM     13  N   UNL     1       1.265  -4.762   0.647  0.00  0.00    -0.238 N 
ATOM     14  N   UNL     1       2.582  -4.750   0.196  0.00  0.00    -0.176 NA
ATOM     15  C   UNL     1       3.356  -5.257   1.118  0.00  0.00    +0.149 A 
ATOM     16  C   UNL     1       2.552  -5.626   2.217  0.00  0.00    +0.096 A 
ATOM     17  H   UNL     1       0.099  -5.650   3.554  0.00  0.00    +0.153 HD
ENDROOT
BRANCH   1  22
ATOM     18  C   UNL     1      -0.009   1.487  -0.035  0.00  0.00    +0.044 C 
ATOM     19  C   UNL     1       0.009  -0.020  -0.033  0.00  0.00    -0.050 A 
ATOM     20  C   UNL     1       0.009  -0.712  -1.230  0.00  0.00    +0.004 A 
ATOM     21  C   UNL     1       0.025  -2.095  -1.228  0.00  0.00    +0.006 A 
ATOM     22  C   UNL     1       0.041  -2.784  -0.031  0.00  0.00    -0.018 A 
ATOM     23  C   UNL     1       0.042  -2.092   1.166  0.00  0.00    +0.006 A 
ATOM     24  C   UNL     1       0.030  -0.710   1.164  0.00  0.00    +0.004 A 
ENDBRANCH   1  22
BRANCH  16  25
ATOM     25  C   UNL     1       3.013  -6.233   3.473  0.00  0.00    +0.253 C 
ATOM     26  O   UNL     1       2.211  -6.502   4.348  0.00  0.00    -0.270 OA
ATOM     27  N   UNL     1       4.323  -6.491   3.656  0.00  0.00    -0.281 N 
ATOM     28  H   UNL     1       4.952  -6.339   2.934  0.00  0.00    +0.155 HD
BRANCH  27  29
ATOM     29  C   UNL     1       4.774  -6.978   4.887  0.00  0.00    +0.034 A 
ATOM     30  C   UNL     1       3.983  -7.853   5.621  0.00  0.00    +0.025 A 
ATOM     31  C   UNL     1       4.432  -8.332   6.837  0.00  0.00    +0.022 A 
ATOM     32  C   UNL     1       5.667  -7.942   7.323  0.00  0.00    +0.041 A 
ATOM     33  C   UNL     1       6.457  -7.071   6.593  0.00  0.00    +0.022 A 
ATOM     34  C   UNL     1       6.016  -6.593   5.375  0.00  0.00    +0.025 A 
ATOM     35 CL   UNL     1       6.227  -8.546   8.851  0.00  0.00    -0.084 Cl
ENDBRANCH  27  29
ENDBRANCH  16  25
TORSDOF 3
