REMARK  Name = ZINC40948204
REMARK  16 active torsions:
REMARK  status: ('A' for Active; 'I' for Inactive)
REMARK    1  A    between atoms: C_1  and  C_2
REMARK    2  A    between atoms: C_4  and  O_12
REMARK    3  A    between atoms: C_5  and  C_9
REMARK    4  A    between atoms: C_9  and  C_10
REMARK    5  A    between atoms: C_9  and  C_11
REMARK    6  A    between atoms: O_12  and  C_13
REMARK    7  A    between atoms: C_13  and  C_14
REMARK    8  A    between atoms: C_14  and  O_16
REMARK    9  A    between atoms: O_16  and  C_17
REMARK   10  A    between atoms: C_20  and  C_25
REMARK   11  A    between atoms: C_22  and  O_23
REMARK   12  A    between atoms: O_23  and  C_24
REMARK   13  A    between atoms: C_26  and  C_27
REMARK   14  A    between atoms: C_26  and  C_29
REMARK   15  A    between atoms: C_29  and  O_31
REMARK   16  A    between atoms: O_31  and  C_32
REMARK                            x       y       z     vdW  Elec       q    Type
REMARK                         _______ _______ _______ _____ _____    ______ ____
ROOT
ATOM      1  O   UNL     1       0.516  -1.679  -6.647  0.00  0.00    -0.420 OA
ENDROOT
BRANCH   1   2
ATOM      2  C   UNL     1       0.503  -2.699  -7.544  0.00  0.00    +0.173 A 
ATOM      3  C   UNL     1       1.688  -3.113  -8.139  0.00  0.00    +0.051 A 
ATOM      4  C   UNL     1       1.682  -4.146  -9.049  0.00  0.00    +0.012 A 
ATOM      5  C   UNL     1       0.477  -4.783  -9.378  0.00  0.00    -0.020 A 
ATOM      6  C   UNL     1      -0.718  -4.364  -8.776  0.00  0.00    +0.057 A 
ATOM      7  C   UNL     1      -0.700  -3.330  -7.861  0.00  0.00    +0.163 A 
BRANCH   7   8
ATOM      8  O   UNL     1      -1.857  -2.925  -7.272  0.00  0.00    -0.491 OA
ATOM      9  C   UNL     1      -3.051  -3.616  -7.643  0.00  0.00    +0.277 C 
ENDBRANCH   7   8
BRANCH   5  10
ATOM     10  C   UNL     1       0.467  -5.882 -10.346  0.00  0.00    +0.034 C 
ATOM     11  C   UNL     1       1.535  -6.749 -10.415  0.00  0.00    +0.136 C 
BRANCH  11  12
ATOM     12  C   UNL     1       2.580  -6.677  -9.438  0.00  0.00    +0.106 C 
ATOM     13  N   UNL     1       3.409  -6.621  -8.663  0.00  0.00    -0.191 NA
ENDBRANCH  11  12
BRANCH  11  14
ATOM     14  C   UNL     1       1.603  -7.748 -11.491  0.00  0.00    +0.349 C 
ATOM     15  O   UNL     1       0.716  -7.809 -12.320  0.00  0.00    -0.244 OA
BRANCH  14  16
ATOM     16  O   UNL     1       2.648  -8.596 -11.559  0.00  0.00    -0.464 OA
ATOM     17  C   UNL     1       2.649  -9.541 -12.632  0.00  0.00    +0.280 C 
ENDBRANCH  14  16
ENDBRANCH  11  14
ENDBRANCH   5  10
ENDBRANCH   1   2
BRANCH   1  18
ATOM     18  C   UNL     1       0.425  -1.986  -5.343  0.00  0.00    +0.350 C 
ATOM     19  O   UNL     1       0.243  -3.131  -5.003  0.00  0.00    -0.247 OA
BRANCH  18  20
ATOM     20  C   UNL     1       0.550  -0.902  -4.304  0.00  0.00    +0.349 C 
BRANCH  20  21
ATOM     21  O   UNL     1       0.420  -1.475  -3.001  0.00  0.00    -0.480 OA
BRANCH  21  25
ATOM     22  C   UNL     1       1.036   3.061  -1.306  0.00  0.00    +0.045 C 
ATOM     23  C   UNL     1       0.808   1.589  -1.077  0.00  0.00    -0.033 A 
ATOM     24  C   UNL     1       0.718   0.728  -2.154  0.00  0.00    +0.050 A 
ATOM     25  C   UNL     1       0.509  -0.626  -1.942  0.00  0.00    +0.125 A 
ATOM     26  C   UNL     1       0.392  -1.115  -0.649  0.00  0.00    -0.002 A 
ATOM     27  C   UNL     1       0.482  -0.251   0.425  0.00  0.00    +0.023 A 
ATOM     28  C   UNL     1       0.696   1.099   0.212  0.00  0.00    +0.021 A 
ATOM     29 BR   UNL     1       0.827   2.279   1.685  0.00  0.00    -0.050 Br
BRANCH  26  30
ATOM     30  C   UNL     1       0.164  -2.586  -0.416  0.00  0.00    +0.016 C 
ATOM     31  C   UNL     1       1.314  -3.154   0.418  0.00  0.00    +0.012 C 
ATOM     32  C   UNL     1      -1.155  -2.786   0.332  0.00  0.00    +0.012 C 
ENDBRANCH  26  30
ENDBRANCH  21  25
ENDBRANCH  20  21
ENDBRANCH  18  20
ENDBRANCH   1  18
TORSDOF 11
