REMARK  Name = ZINC12462624
REMARK  7 active torsions:
REMARK  status: ('A' for Active; 'I' for Inactive)
REMARK    1  A    between atoms: C_1  and  C_2
REMARK    2  A    between atoms: C_9  and  C_11
REMARK    3  A    between atoms: C_14  and  N_17
REMARK    4  A    between atoms: C_18  and  C_20
REMARK    5  A    between atoms: C_21  and  C_22
REMARK    6  A    between atoms: C_27  and  O_28
REMARK    7  A    between atoms: O_28  and  C_29
REMARK                            x       y       z     vdW  Elec       q    Type
REMARK                         _______ _______ _______ _____ _____    ______ ____
ROOT
ATOM      1  C   UNL     1      -0.069   4.162   0.004  0.00  0.00    +0.037 A 
ATOM      2  C   UNL     1       1.152   3.482  -0.001  0.00  0.00    +0.015 A 
ATOM      3  C   UNL     1       1.172   2.105  -0.001  0.00  0.00    +0.024 A 
ATOM      4  C   UNL     1      -0.022   1.391   0.003  0.00  0.00    +0.034 A 
ATOM      5  C   UNL     1      -1.239   2.064   0.002  0.00  0.00    +0.024 A 
ATOM      6  C   UNL     1      -1.266   3.441   0.009  0.00  0.00    +0.015 A 
ENDROOT
BRANCH   1  15
ATOM      7  C   UNL     1      -1.649  11.371   0.011  0.00  0.00    +0.044 C 
ATOM      8  C   UNL     1      -0.872  10.079   0.008  0.00  0.00    -0.048 A 
ATOM      9  C   UNL     1       0.515  10.109   0.002  0.00  0.00    +0.007 A 
ATOM     10  C   UNL     1       1.240   8.935  -0.001  0.00  0.00    +0.049 A 
ATOM     11  C   UNL     1       0.582   7.716   0.002  0.00  0.00    +0.156 A 
ATOM     12  C   UNL     1      -0.822   7.681   0.009  0.00  0.00    +0.110 A 
ATOM     13  C   UNL     1      -1.544   8.877   0.011  0.00  0.00    +0.035 A 
ATOM     14  N   UNL     1      -1.180   6.371   0.004  0.00  0.00    -0.209 NA
ATOM     15  C   UNL     1      -0.094   5.638   0.005  0.00  0.00    +0.228 A 
ATOM     16  O   UNL     1       0.996   6.429   0.000  0.00  0.00    -0.435 OA
ENDBRANCH   1  15
BRANCH   4  17
ATOM     17  N   UNL     1       0.002  -0.004   0.002  0.00  0.00    -0.282 N 
ATOM     18  C   UNL     1      -0.938  -0.695   0.677  0.00  0.00    +0.241 C 
ATOM     19  O   UNL     1      -1.856  -0.105   1.217  0.00  0.00    -0.270 OA
ATOM     20  H   UNL     1       0.696  -0.477  -0.484  0.00  0.00    +0.155 HD
BRANCH  18  21
ATOM     21  C   UNL     1      -0.856  -2.152   0.760  0.00  0.00    +0.068 C 
ATOM     22  C   UNL     1      -1.799  -2.843   1.436  0.00  0.00    +0.016 C 
BRANCH  22  23
ATOM     23  C   UNL     1      -1.716  -4.308   1.520  0.00  0.00    +0.018 A 
ATOM     24  C   UNL     1      -0.663  -4.990   0.900  0.00  0.00    +0.026 A 
ATOM     25  C   UNL     1      -0.593  -6.365   0.983  0.00  0.00    +0.019 A 
ATOM     26  C   UNL     1      -1.561  -7.074   1.677  0.00  0.00    +0.019 A 
ATOM     27  C   UNL     1      -2.605  -6.413   2.294  0.00  0.00    +0.047 A 
ATOM     28  C   UNL     1      -2.690  -5.031   2.226  0.00  0.00    +0.127 A 
ATOM     29 BR   UNL     1       0.830  -7.286   0.145  0.00  0.00    -0.050 Br
BRANCH  28  30
ATOM     30  O   UNL     1      -3.713  -4.381   2.836  0.00  0.00    -0.495 OA
ATOM     31  C   UNL     1      -4.666  -5.183   3.537  0.00  0.00    +0.277 C 
ENDBRANCH  28  30
ENDBRANCH  22  23
ENDBRANCH  18  21
ENDBRANCH   4  17
TORSDOF 5
