REMARK  Name = ZINC06256937
REMARK  9 active torsions:
REMARK  status: ('A' for Active; 'I' for Inactive)
REMARK    1  A    between atoms: C_1  and  C_2
REMARK    2  A    between atoms: C_2  and  C_3
REMARK    3  A    between atoms: C_2  and  C_4
REMARK    4  A    between atoms: C_5  and  O_26
REMARK    5  A    between atoms: C_8  and  O_11
REMARK    6  A    between atoms: C_9  and  O_10
REMARK    7  A    between atoms: C_12  and  C_25
REMARK    8  A    between atoms: C_16  and  C_23
REMARK    9  A    between atoms: C_16  and  C_24
REMARK                            x       y       z     vdW  Elec       q    Type
REMARK                         _______ _______ _______ _____ _____    ______ ____
ROOT
ATOM      1  C   UNL     1      -1.364   0.011   5.118  0.00  0.00    +0.042 A 
ATOM      2  C   UNL     1      -1.962  -0.097   3.874  0.00  0.00    +0.135 A 
ATOM      3  C   UNL     1      -1.165  -0.264   2.727  0.00  0.00    +0.074 A 
ATOM      4  C   UNL     1       0.229  -0.360   2.840  0.00  0.00    +0.019 A 
ATOM      5  C   UNL     1       0.808  -0.244   4.090  0.00  0.00    +0.163 A 
ATOM      6  C   UNL     1       0.017  -0.057   5.226  0.00  0.00    +0.166 A 
ATOM      7  C   UNL     1       1.119  -0.584   1.653  0.00  0.00    +0.008 C 
ATOM      8  C   UNL     1       2.493   0.036   1.883  0.00  0.00    +0.012 C 
ATOM      9  C   UNL     1       2.377   1.561   1.920  0.00  0.00    +0.001 C 
ATOM     10  C   UNL     1       1.802   2.054   0.589  0.00  0.00    +0.007 C 
ATOM     11  C   UNL     1       0.410   1.454   0.388  0.00  0.00    -0.024 C 
ATOM     12  C   UNL     1       0.506  -0.074   0.355  0.00  0.00    +0.080 C 
ATOM     13  C   UNL     1      -0.903  -0.635   0.243  0.00  0.00    +0.207 C 
ATOM     14  O   UNL     1      -1.268  -1.286  -0.707  0.00  0.00    -0.288 OA
ATOM     15  C   UNL     1      -1.807  -0.319   1.402  0.00  0.00    +0.232 C 
ATOM     16  O   UNL     1      -2.997  -0.121   1.254  0.00  0.00    -0.283 OA
ATOM     17  C   UNL     1      -0.174   1.956  -0.934  0.00  0.00    +0.011 C 
ATOM     18  C   UNL     1      -0.500   1.882   1.541  0.00  0.00    +0.011 C 
ATOM     19  C   UNL     1       1.329  -2.093   1.508  0.00  0.00    +0.017 C 
ENDROOT
BRANCH   1  21
ATOM     20  C   UNL     1      -1.973  -0.962   7.316  0.00  0.00    +0.012 C 
ATOM     21  C   UNL     1      -2.210   0.201   6.350  0.00  0.00    +0.020 C 
ATOM     22  C   UNL     1      -1.830   1.516   7.032  0.00  0.00    +0.012 C 
ENDBRANCH   1  21
BRANCH   6  23
ATOM     23  O   UNL     1       0.604   0.061   6.443  0.00  0.00    -0.503 OA
ATOM     24  H   UNL     1       0.825   0.970   6.688  0.00  0.00    +0.292 HD
ENDBRANCH   6  23
BRANCH   5  25
ATOM     25  O   UNL     1       2.161  -0.313   4.215  0.00  0.00    -0.503 OA
ATOM     26  H   UNL     1       2.503  -1.214   4.294  0.00  0.00    +0.292 HD
ENDBRANCH   5  25
BRANCH   2  27
ATOM     27  O   UNL     1      -3.312  -0.041   3.762  0.00  0.00    -0.506 OA
ATOM     28  H   UNL     1      -3.659   0.853   3.632  0.00  0.00    +0.292 HD
ENDBRANCH   2  27
TORSDOF 4
