REMARK  Name = ZINC59461863
REMARK  8 active torsions:
REMARK  status: ('A' for Active; 'I' for Inactive)
REMARK    1  A    between atoms: C_1  and  C_2
REMARK    2  A    between atoms: C_5  and  C_8
REMARK    3  A    between atoms: C_15  and  C_24
REMARK    4  A    between atoms: C_16  and  C_18
REMARK    5  A    between atoms: C_24  and  C_26
REMARK    6  A    between atoms: C_24  and  C_32
REMARK    7  A    between atoms: C_32  and  C_34
REMARK    8  A    between atoms: C_32  and  C_36
REMARK                            x       y       z     vdW  Elec       q    Type
REMARK                         _______ _______ _______ _____ _____    ______ ____
ROOT
ATOM      1  C   UNL     1       1.154  -4.856   0.291  0.00  0.00    +0.080 A 
ATOM      2  C   UNL     1       1.057  -5.676   1.380  0.00  0.00    +0.077 A 
ATOM      3  S   UNL     1       0.642  -7.226   0.591  0.00  0.00    -0.056 S 
ATOM      4  C   UNL     1       0.641  -6.627  -1.093  0.00  0.00    +0.196 A 
ATOM      5  N   UNL     1       0.938  -5.352  -0.918  0.00  0.00    -0.221 NA
ATOM      6  N   UNL     1       0.389  -7.317  -2.270  0.00  0.00    -0.194 N 
ATOM      7  C   UNL     1       0.085  -8.626  -2.372  0.00  0.00    +0.278 A 
ATOM      8  C   UNL     1      -0.094  -8.927  -3.736  0.00  0.00    +0.053 A 
ATOM      9  C   UNL     1       0.107  -7.783  -4.450  0.00  0.00    +0.072 A 
ATOM     10  N   UNL     1       0.401  -6.774  -3.562  0.00  0.00    -0.287 N 
ATOM     11  O   UNL     1      -0.018  -9.411  -1.446  0.00  0.00    -0.265 OA
ATOM     12  H   UNL     1       0.586  -5.849  -3.790  0.00  0.00    +0.188 HD
ENDROOT
BRANCH   1  17
ATOM     13  C   UNL     1       2.463   0.713   0.954  0.00  0.00    +0.044 C 
ATOM     14  C   UNL     1       2.121  -0.744   0.780  0.00  0.00    -0.050 A 
ATOM     15  C   UNL     1       1.898  -1.254  -0.487  0.00  0.00    +0.004 A 
ATOM     16  C   UNL     1       1.584  -2.587  -0.651  0.00  0.00    +0.010 A 
ATOM     17  C   UNL     1       1.492  -3.421   0.461  0.00  0.00    +0.001 A 
ATOM     18  C   UNL     1       1.717  -2.903   1.735  0.00  0.00    +0.010 A 
ATOM     19  C   UNL     1       2.036  -1.569   1.888  0.00  0.00    +0.004 A 
ENDBRANCH   1  17
BRANCH   9  20
ATOM     20  C   UNL     1       0.019  -7.648  -5.918  0.00  0.00    +0.000 A 
ATOM     21  C   UNL     1      -0.693  -6.589  -6.484  0.00  0.00    +0.010 A 
ATOM     22  C   UNL     1      -0.771  -6.470  -7.856  0.00  0.00    +0.001 A 
ATOM     23  C   UNL     1      -0.145  -7.397  -8.671  0.00  0.00    +0.000 A 
ATOM     24  C   UNL     1       0.562  -8.448  -8.117  0.00  0.00    +0.001 A 
ATOM     25  C   UNL     1       0.653  -8.577  -6.747  0.00  0.00    +0.010 A 
ENDBRANCH   9  20
BRANCH   8  26
ATOM     26  C   UNL     1      -0.445 -10.276  -4.307  0.00  0.00    +0.082 C 
BRANCH  26  27
ATOM     27  C   UNL     1       0.700 -11.230  -4.084  0.00  0.00    -0.038 A 
ATOM     28  C   UNL     1       1.043 -11.610  -2.800  0.00  0.00    +0.004 A 
ATOM     29  C   UNL     1       2.094 -12.485  -2.595  0.00  0.00    +0.000 A 
ATOM     30  C   UNL     1       2.801 -12.980  -3.675  0.00  0.00    +0.000 A 
ATOM     31  C   UNL     1       2.458 -12.601  -4.959  0.00  0.00    +0.000 A 
ATOM     32  C   UNL     1       1.404 -11.729  -5.164  0.00  0.00    +0.004 A 
ENDBRANCH  26  27
BRANCH  26  33
ATOM     33  C   UNL     1      -1.698 -10.813  -3.613  0.00  0.00    +0.189 C 
BRANCH  33  34
ATOM     34  C   UNL     1      -2.050 -12.163  -4.184  0.00  0.00    +0.228 C 
ATOM     35  O   UNL     1      -3.125 -12.334  -4.719  0.00  0.00    -0.275 OA
ATOM     36  N   UNL     1      -1.170 -13.180  -4.099  0.00  0.00    -0.328 N 
ATOM     37  H   UNL     1      -0.310 -13.044  -3.671  0.00  0.00    +0.145 HD
ATOM     38  H   UNL     1      -1.396 -14.049  -4.467  0.00  0.00    +0.145 HD
ENDBRANCH  33  34
BRANCH  33  39
ATOM     39  C   UNL     1      -2.817  -9.882  -3.831  0.00  0.00    +0.076 C 
ATOM     40  N   UNL     1      -3.681  -9.163  -3.999  0.00  0.00    -0.196 NA
ENDBRANCH  33  39
ENDBRANCH  26  33
ENDBRANCH   8  26
TORSDOF 7
