REMARK  Name = ZINC48532953
REMARK  8 active torsions:
REMARK  status: ('A' for Active; 'I' for Inactive)
REMARK    1  A    between atoms: C_1  and  O_2
REMARK    2  A    between atoms: O_2  and  C_3
REMARK    3  A    between atoms: C_12  and  C_13
REMARK    4  A    between atoms: N_14  and  N_15
REMARK    5  A    between atoms: N_18  and  N_19
REMARK    6  A    between atoms: C_20  and  C_21
REMARK    7  A    between atoms: C_30  and  O_31
REMARK    8  A    between atoms: O_31  and  C_32
REMARK                            x       y       z     vdW  Elec       q    Type
REMARK                         _______ _______ _______ _____ _____    ______ ____
ROOT
ATOM      1  N   UNL     1      -1.391  -2.555  -1.922  0.00  0.00    -0.247 N 
ATOM      2  C   UNL     1      -2.122  -2.094  -2.994  0.00  0.00    +0.210 C 
ATOM      3  N   UNL     1      -2.583  -0.874  -2.993  0.00  0.00    -0.369 N 
ATOM      4  N   UNL     1      -2.365  -2.921  -4.067  0.00  0.00    -0.247 N 
ATOM      5  H   UNL     1      -1.084  -3.475  -1.904  0.00  0.00    +0.192 HD
ATOM      6  H   UNL     1      -3.098  -0.550  -3.748  0.00  0.00    +0.159 HD
ATOM      7  H   UNL     1      -2.066  -3.844  -4.046  0.00  0.00    +0.192 HD
ATOM      8  H   UNL     1      -2.411  -0.291  -2.236  0.00  0.00    +0.159 HD
ENDROOT
BRANCH   1  10
ATOM      9  C   UNL     1      -0.402  -2.130   0.155  0.00  0.00    +0.144 C 
ATOM     10  N   UNL     1      -1.091  -1.695  -0.857  0.00  0.00    -0.179 NA
BRANCH   9  20
ATOM     11  C   UNL     1      -0.521   0.098   1.261  0.00  0.00    +0.129 A 
ATOM     12  C   UNL     1      -0.225   0.946   2.326  0.00  0.00    +0.047 A 
ATOM     13  C   UNL     1       0.494   0.524   3.400  0.00  0.00    +0.012 A 
ATOM     14  C   UNL     1       0.967  -0.798   3.474  0.00  0.00    -0.017 A 
ATOM     15  C   UNL     1       1.710  -1.246   4.579  0.00  0.00    +0.008 A 
ATOM     16  C   UNL     1       2.152  -2.534   4.616  0.00  0.00    +0.001 A 
ATOM     17  C   UNL     1       1.880  -3.416   3.574  0.00  0.00    +0.001 A 
ATOM     18  C   UNL     1       1.162  -3.015   2.487  0.00  0.00    +0.009 A 
ATOM     19  C   UNL     1       0.691  -1.698   2.416  0.00  0.00    -0.006 A 
ATOM     20  C   UNL     1      -0.087  -1.227   1.272  0.00  0.00    +0.044 A 
BRANCH  11  22
ATOM     21  C   UNL     1      -1.657   1.929   0.260  0.00  0.00    +0.277 C 
ATOM     22  O   UNL     1      -1.243   0.563   0.209  0.00  0.00    -0.494 OA
ENDBRANCH  11  22
ENDBRANCH   9  20
ENDBRANCH   1  10
BRANCH   4  23
ATOM     23  N   UNL     1      -3.045  -2.431  -5.189  0.00  0.00    -0.179 NA
ATOM     24  C   UNL     1      -3.370  -3.236  -6.155  0.00  0.00    +0.144 C 
BRANCH  24  25
ATOM     25  C   UNL     1      -3.148  -4.683  -6.013  0.00  0.00    +0.044 A 
ATOM     26  C   UNL     1      -2.348  -5.415  -6.991  0.00  0.00    -0.006 A 
ATOM     27  C   UNL     1      -1.768  -4.771  -8.091  0.00  0.00    +0.009 A 
ATOM     28  C   UNL     1      -1.028  -5.491  -8.981  0.00  0.00    +0.001 A 
ATOM     29  C   UNL     1      -0.840  -6.861  -8.812  0.00  0.00    +0.001 A 
ATOM     30  C   UNL     1      -1.390  -7.519  -7.754  0.00  0.00    +0.008 A 
ATOM     31  C   UNL     1      -2.159  -6.808  -6.817  0.00  0.00    -0.017 A 
ATOM     32  C   UNL     1      -2.741  -7.453  -5.712  0.00  0.00    +0.012 A 
ATOM     33  C   UNL     1      -3.482  -6.756  -4.810  0.00  0.00    +0.047 A 
ATOM     34  C   UNL     1      -3.693  -5.384  -4.937  0.00  0.00    +0.129 A 
BRANCH  34  35
ATOM     35  O   UNL     1      -4.436  -4.727  -4.010  0.00  0.00    -0.494 OA
ATOM     36  C   UNL     1      -4.893  -5.485  -2.889  0.00  0.00    +0.277 C 
ENDBRANCH  34  35
ENDBRANCH  24  25
ENDBRANCH   4  23
TORSDOF 6
