REMARK  Name = ZINC09013208
REMARK  9 active torsions:
REMARK  status: ('A' for Active; 'I' for Inactive)
REMARK    1  A    between atoms: C_1  and  C_2
REMARK    2  A    between atoms: C_2  and  C_3
REMARK    3  A    between atoms: C_2  and  C_4
REMARK    4  A    between atoms: C_2  and  C_5
REMARK    5  A    between atoms: C_5  and  C_7
REMARK    6  A    between atoms: C_9  and  C_32
REMARK    7  A    between atoms: C_32  and  C_34
REMARK    8  A    between atoms: C_38  and  O_40
REMARK    9  A    between atoms: O_40  and  C_41
REMARK                            x       y       z     vdW  Elec       q    Type
REMARK                         _______ _______ _______ _____ _____    ______ ____
ROOT
ATOM      1  C   UNL     1      -4.571  -5.085   1.476  0.00  0.00    +0.153 C 
ATOM      2  C   UNL     1      -4.160  -5.289  -0.010  0.00  0.00    +0.109 C 
ATOM      3  C   UNL     1      -4.274  -6.810  -0.239  0.00  0.00    +0.108 C 
ATOM      4  C   UNL     1      -2.973  -7.403  -0.659  0.00  0.00    -0.008 A 
ATOM      5  C   UNL     1      -1.742  -7.455  -0.042  0.00  0.00    +0.006 A 
ATOM      6  C   UNL     1      -0.717  -8.099  -0.726  0.00  0.00    +0.000 A 
ATOM      7  C   UNL     1      -0.926  -8.662  -1.969  0.00  0.00    +0.002 A 
ATOM      8  C   UNL     1      -2.160  -8.614  -2.598  0.00  0.00    +0.023 A 
ATOM      9  C   UNL     1      -3.197  -7.971  -1.921  0.00  0.00    +0.038 A 
ATOM     10  N   UNL     1      -4.513  -7.779  -2.309  0.00  0.00    -0.284 N 
ATOM     11  C   UNL     1      -5.221  -7.104  -1.377  0.00  0.00    +0.231 C 
ATOM     12  O   UNL     1      -6.392  -6.793  -1.443  0.00  0.00    -0.274 OA
ATOM     13  C   UNL     1      -4.786  -7.370   1.079  0.00  0.00    +0.117 C 
ATOM     14  N   UNL     1      -4.298  -6.391   2.089  0.00  0.00    -0.311 N 
ATOM     15  C   UNL     1      -4.859  -6.679   3.310  0.00  0.00    +0.038 A 
ATOM     16  C   UNL     1      -5.379  -5.721   4.159  0.00  0.00    +0.024 A 
ATOM     17  C   UNL     1      -5.943  -6.101   5.364  0.00  0.00    +0.002 A 
ATOM     18  C   UNL     1      -5.991  -7.436   5.727  0.00  0.00    +0.001 A 
ATOM     19  C   UNL     1      -5.473  -8.407   4.892  0.00  0.00    +0.010 A 
ATOM     20  C   UNL     1      -4.902  -8.041   3.681  0.00  0.00    -0.004 A 
ATOM     21  C   UNL     1      -4.329  -9.047   2.756  0.00  0.00    +0.007 C 
ATOM     22  C   UNL     1      -4.266  -8.725   1.451  0.00  0.00    -0.003 C 
ATOM     23  H   UNL     1      -4.882  -8.093  -3.149  0.00  0.00    +0.155 HD
ENDROOT
BRANCH   1  24
ATOM     24  C   UNL     1      -6.036  -4.746   1.580  0.00  0.00    +0.160 C 
ATOM     25  O   UNL     1      -6.845  -5.620   1.781  0.00  0.00    -0.295 OA
BRANCH  24  27
ATOM     26  C   UNL     1      -8.015  -3.253   1.539  0.00  0.00    +0.018 C 
ATOM     27  C   UNL     1      -6.490  -3.317   1.433  0.00  0.00    +0.022 C 
ATOM     28  C   UNL     1      -5.866  -2.466   2.541  0.00  0.00    +0.018 C 
ATOM     29  C   UNL     1      -6.051  -2.780   0.069  0.00  0.00    +0.018 C 
ENDBRANCH  24  27
ENDBRANCH   1  24
BRANCH   2  30
ATOM     30  C   UNL     1      -2.742  -4.829  -0.231  0.00  0.00    +0.170 C 
ATOM     31  O   UNL     1      -1.979  -4.743   0.708  0.00  0.00    -0.292 OA
BRANCH  30  32
ATOM     32  C   UNL     1      -2.283  -4.486  -1.586  0.00  0.00    +0.021 A 
ATOM     33  C   UNL     1      -3.134  -4.660  -2.682  0.00  0.00    +0.011 A 
ATOM     34  C   UNL     1      -2.699  -4.337  -3.950  0.00  0.00    +0.004 A 
ATOM     35  C   UNL     1      -1.423  -3.839  -4.143  0.00  0.00    +0.045 A 
ATOM     36  C   UNL     1      -0.570  -3.661  -3.062  0.00  0.00    +0.121 A 
ATOM     37  C   UNL     1      -0.992  -3.987  -1.785  0.00  0.00    +0.057 A 
BRANCH  36  38
ATOM     38  O   UNL     1       0.682  -3.171  -3.259  0.00  0.00    -0.495 OA
ATOM     39  C   UNL     1       1.054  -2.861  -4.604  0.00  0.00    +0.277 C 
ENDBRANCH  36  38
ENDBRANCH  30  32
ENDBRANCH   2  30
TORSDOF 5
