REMARK  Name = ZINC01663395
REMARK  18 active torsions:
REMARK  status: ('A' for Active; 'I' for Inactive)
REMARK    1  A    between atoms: C_1  and  C_2
REMARK    2  A    between atoms: C_4  and  C_40
REMARK    3  A    between atoms: N_5  and  C_7
REMARK    4  A    between atoms: C_7  and  N_8
REMARK    5  A    between atoms: N_8  and  C_9
REMARK    6  A    between atoms: N_8  and  C_17
REMARK    7  A    between atoms: C_9  and  N_10
REMARK    8  A    between atoms: C_11  and  C_16
REMARK    9  A    between atoms: C_13  and  C_15
REMARK   10  A    between atoms: C_20  and  N_23
REMARK   11  A    between atoms: N_23  and  C_24
REMARK   12  A    between atoms: N_23  and  C_32
REMARK   13  A    between atoms: C_24  and  N_25
REMARK   14  A    between atoms: C_26  and  C_31
REMARK   15  A    between atoms: C_28  and  C_30
REMARK   16  A    between atoms: C_32  and  N_33
REMARK   17  A    between atoms: C_34  and  C_39
REMARK   18  A    between atoms: C_36  and  C_38
REMARK                            x       y       z     vdW  Elec       q    Type
REMARK                         _______ _______ _______ _____ _____    ______ ____
ROOT
ATOM      1  C   UNL     1       7.117   0.105  -4.042  0.00  0.00    +0.033 A 
ATOM      2  C   UNL     1       6.312  -0.745  -3.295  0.00  0.00    +0.025 A 
ATOM      3  C   UNL     1       6.087  -2.038  -3.725  0.00  0.00    +0.025 A 
ATOM      4  C   UNL     1       6.673  -2.491  -4.900  0.00  0.00    +0.033 A 
ATOM      5  C   UNL     1       7.482  -1.642  -5.644  0.00  0.00    +0.025 A 
ATOM      6  C   UNL     1       7.704  -0.348  -5.216  0.00  0.00    +0.025 A 
ENDROOT
BRANCH   1   7
ATOM      7  N   UNL     1       7.341   1.417  -3.608  0.00  0.00    -0.291 N 
BRANCH   7   8
ATOM      8  C   UNL     1       6.218   2.348  -3.480  0.00  0.00    +0.252 C 
BRANCH   8  13
ATOM      9  C   UNL     1       6.552   5.530  -7.348  0.00  0.00    +0.067 C 
ATOM     10  C   UNL     1       6.127   4.395  -6.452  0.00  0.00    +0.060 A 
ATOM     11  C   UNL     1       5.139   3.448  -6.740  0.00  0.00    +0.047 A 
ATOM     12  C   UNL     1       5.060   2.597  -5.691  0.00  0.00    +0.038 A 
ATOM     13  N   UNL     1       5.966   2.990  -4.772  0.00  0.00    -0.251 N 
ATOM     14  N   UNL     1       6.624   4.122  -5.273  0.00  0.00    -0.175 NA
ATOM     15  C   UNL     1       4.127   1.419  -5.571  0.00  0.00    +0.065 C 
ENDBRANCH   8  13
ENDBRANCH   7   8
BRANCH   7  16
ATOM     16  C   UNL     1       8.700   1.858  -3.282  0.00  0.00    +0.252 C 
BRANCH  16  17
ATOM     17  N   UNL     1       8.926   1.719  -1.842  0.00  0.00    -0.251 N 
ATOM     18  C   UNL     1       9.514   0.670  -1.228  0.00  0.00    +0.038 A 
ATOM     19  C   UNL     1       9.531   0.927   0.101  0.00  0.00    +0.047 A 
ATOM     20  C   UNL     1       8.935   2.175   0.306  0.00  0.00    +0.060 A 
ATOM     21  N   UNL     1       8.577   2.654  -0.858  0.00  0.00    -0.175 NA
ATOM     22  C   UNL     1       8.743   2.855   1.637  0.00  0.00    +0.067 C 
ATOM     23  C   UNL     1      10.052  -0.565  -1.901  0.00  0.00    +0.065 C 
ENDBRANCH  16  17
ENDBRANCH   7  16
ENDBRANCH   1   7
BRANCH   4  24
ATOM     24  N   UNL     1       6.447  -3.803  -5.334  0.00  0.00    -0.291 N 
BRANCH  24  25
ATOM     25  C   UNL     1       5.594  -4.697  -4.549  0.00  0.00    +0.252 C 
BRANCH  25  26
ATOM     26  N   UNL     1       4.191  -4.469  -4.903  0.00  0.00    -0.251 N 
ATOM     27  C   UNL     1       3.490  -5.139  -5.842  0.00  0.00    +0.038 A 
ATOM     28  C   UNL     1       2.236  -4.630  -5.862  0.00  0.00    +0.047 A 
ATOM     29  C   UNL     1       2.169  -3.614  -4.902  0.00  0.00    +0.060 A 
ATOM     30  N   UNL     1       3.338  -3.521  -4.323  0.00  0.00    -0.175 NA
ATOM     31  C   UNL     1       0.957  -2.776  -4.585  0.00  0.00    +0.067 C 
ATOM     32  C   UNL     1       4.010  -6.253  -6.712  0.00  0.00    +0.065 C 
ENDBRANCH  25  26
ENDBRANCH  24  25
BRANCH  24  33
ATOM     33  C   UNL     1       7.065  -4.280  -6.573  0.00  0.00    +0.252 C 
BRANCH  33  34
ATOM     34  N   UNL     1       8.431  -4.733  -6.295  0.00  0.00    -0.251 N 
ATOM     35  C   UNL     1       8.811  -6.004  -6.050  0.00  0.00    +0.038 A 
ATOM     36  C   UNL     1      10.148  -6.002  -5.843  0.00  0.00    +0.047 A 
ATOM     37  C   UNL     1      10.601  -4.685  -5.966  0.00  0.00    +0.060 A 
ATOM     38  N   UNL     1       9.573  -3.924  -6.244  0.00  0.00    -0.175 NA
ATOM     39  C   UNL     1      12.027  -4.222  -5.814  0.00  0.00    +0.067 C 
ATOM     40  C   UNL     1       7.908  -7.210  -6.012  0.00  0.00    +0.065 C 
ENDBRANCH  33  34
ENDBRANCH  24  33
ENDBRANCH   4  24
TORSDOF 10
