REMARK  Name = ZINC38805222
REMARK  10 active torsions:
REMARK  status: ('A' for Active; 'I' for Inactive)
REMARK    1  A    between atoms: C_1  and  C_2
REMARK    2  A    between atoms: C_2  and  O_3
REMARK    3  A    between atoms: O_3  and  C_4
REMARK    4  A    between atoms: C_4  and  C_6
REMARK    5  A    between atoms: C_10  and  N_11
REMARK    6  A    between atoms: C_12  and  C_14
REMARK    7  A    between atoms: C_15  and  C_16
REMARK    8  A    between atoms: C_29  and  O_31
REMARK    9  A    between atoms: O_31  and  C_32
REMARK   10  A    between atoms: C_32  and  C_33
REMARK                            x       y       z     vdW  Elec       q    Type
REMARK                         _______ _______ _______ _____ _____    ______ ____
ROOT
ATOM      1  C   UNL     1      -2.842  -2.416   0.016  0.00  0.00    +0.091 A 
ATOM      2  C   UNL     1      -3.548  -2.713  -1.220  0.00  0.00    -0.018 A 
ATOM      3  C   UNL     1      -4.776  -3.244  -1.037  0.00  0.00    +0.013 A 
ATOM      4  S   UNL     1      -4.974  -3.335   0.717  0.00  0.00    -0.076 S 
ATOM      5  C   UNL     1      -3.495  -2.708   1.205  0.00  0.00    +0.087 A 
ATOM      6  C   UNL     1      -5.739  -3.660  -2.108  0.00  0.00    +0.153 C 
ATOM      7  N   UNL     1      -5.202  -3.165  -3.391  0.00  0.00    -0.262 N 
ATOM      8  C   UNL     1      -3.757  -3.307  -3.625  0.00  0.00    +0.116 C 
ATOM      9  C   UNL     1      -2.987  -2.459  -2.611  0.00  0.00    +0.056 C 
ATOM     10  C   UNL     1      -6.007  -2.603  -4.314  0.00  0.00    +0.403 C 
ATOM     11  O   UNL     1      -5.541  -2.202  -5.363  0.00  0.00    -0.226 OA
ENDROOT
BRANCH   5  12
ATOM     12  N   UNL     1      -3.033  -2.523   2.497  0.00  0.00    -0.276 N 
ATOM     13  C   UNL     1      -3.808  -2.866   3.545  0.00  0.00    +0.241 C 
ATOM     14  O   UNL     1      -4.914  -3.339   3.356  0.00  0.00    -0.270 OA
ATOM     15  H   UNL     1      -2.152  -2.146   2.648  0.00  0.00    +0.156 HD
BRANCH  13  16
ATOM     16  C   UNL     1      -3.321  -2.671   4.910  0.00  0.00    +0.068 C 
ATOM     17  C   UNL     1      -4.097  -3.015   5.960  0.00  0.00    +0.013 C 
BRANCH  17  18
ATOM     18  C   UNL     1      -3.607  -2.818   7.331  0.00  0.00    -0.021 A 
ATOM     19  C   UNL     1      -2.339  -2.269   7.552  0.00  0.00    +0.012 A 
ATOM     20  C   UNL     1      -1.882  -2.087   8.838  0.00  0.00    +0.050 A 
ATOM     21  C   UNL     1      -2.676  -2.445   9.920  0.00  0.00    +0.166 A 
ATOM     22  C   UNL     1      -3.942  -2.993   9.708  0.00  0.00    +0.167 A 
ATOM     23  C   UNL     1      -4.410  -3.174   8.421  0.00  0.00    +0.057 A 
ATOM     24  O   UNL     1      -4.512  -3.256  10.921  0.00  0.00    -0.453 OA
ATOM     25  C   UNL     1      -3.425  -3.246  11.865  0.00  0.00    +0.466 C 
ATOM     26  O   UNL     1      -2.457  -2.366  11.264  0.00  0.00    -0.453 OA
ENDBRANCH  17  18
ENDBRANCH  13  16
ENDBRANCH   5  12
BRANCH   1  27
ATOM     27  C   UNL     1      -1.497  -1.838   0.006  0.00  0.00    +0.342 C 
ATOM     28  O   UNL     1      -0.522  -2.566  -0.007  0.00  0.00    -0.245 OA
BRANCH  27  29
ATOM     29  O   UNL     1      -1.339  -0.499   0.012  0.00  0.00    -0.461 OA
BRANCH  29  31
ATOM     30  C   UNL     1      -0.019   1.526   0.010  0.00  0.00    +0.048 C 
ATOM     31  C   UNL     1       0.002  -0.004   0.002  0.00  0.00    +0.229 C 
ENDBRANCH  29  31
ENDBRANCH  27  29
ENDBRANCH   1  27
BRANCH  10  32
ATOM     32  O   UNL     1      -7.326  -2.484  -4.074  0.00  0.00    -0.451 OA
BRANCH  32  33
ATOM     33  C   UNL     1      -8.120  -1.878  -5.097  0.00  0.00    +0.230 C 
ATOM     34  C   UNL     1      -9.581  -1.831  -4.648  0.00  0.00    +0.048 C 
ENDBRANCH  32  33
ENDBRANCH  10  32
TORSDOF 8
