REMARK  Name = ZINC05348211
REMARK  10 active torsions:
REMARK  status: ('A' for Active; 'I' for Inactive)
REMARK    1  A    between atoms: C_1  and  C_2
REMARK    2  A    between atoms: C_12  and  C_13
REMARK    3  A    between atoms: C_13  and  C_14
REMARK    4  A    between atoms: N_16  and  C_17
REMARK    5  A    between atoms: C_17  and  C_18
REMARK    6  A    between atoms: C_17  and  C_19
REMARK    7  A    between atoms: C_22  and  C_23
REMARK    8  A    between atoms: C_23  and  C_24
REMARK    9  A    between atoms: C_23  and  C_25
REMARK   10  A    between atoms: C_23  and  C_26
REMARK                            x       y       z     vdW  Elec       q    Type
REMARK                         _______ _______ _______ _____ _____    ______ ____
ROOT
ATOM      1  C   UNL     1      -0.018   1.503   0.010  0.00  0.00    +0.045 C 
ATOM      2  C   UNL     1       0.002  -0.004   0.002  0.00  0.00    -0.029 A 
ATOM      3  C   UNL     1      -0.006  -0.750  -1.260  0.00  0.00    +0.022 A 
ATOM      4  C   UNL     1      -0.021  -0.081  -2.484  0.00  0.00    +0.023 A 
ATOM      5  C   UNL     1      -0.024  -0.818  -3.661  0.00  0.00    +0.025 A 
ATOM      6  C   UNL     1      -0.005  -2.227  -3.622  0.00  0.00    +0.139 A 
ATOM      7  C   UNL     1       0.016  -2.884  -2.401  0.00  0.00    +0.093 A 
ATOM      8  C   UNL     1       0.018  -2.160  -1.222  0.00  0.00    +0.143 A 
ATOM      9  O   UNL     1       0.038  -2.796  -0.029  0.00  0.00    -0.422 OA
ATOM     10  C   UNL     1       0.041  -2.118   1.129  0.00  0.00    +0.341 A 
ATOM     11  O   UNL     1       0.059  -2.736   2.178  0.00  0.00    -0.245 OA
ATOM     12  C   UNL     1       0.023  -0.707   1.163  0.00  0.00    +0.049 A 
ATOM     13  O   UNL     1      -0.013  -2.659  -4.900  0.00  0.00    -0.463 OA
ATOM     14  C   UNL     1      -0.035  -1.624  -5.758  0.00  0.00    +0.200 A 
ATOM     15  C   UNL     1      -0.043  -0.465  -5.087  0.00  0.00    +0.003 A 
ENDROOT
BRANCH  15  16
ATOM     16  C   UNL     1      -0.068   0.922  -5.677  0.00  0.00    -0.009 C 
ATOM     17  C   UNL     1      -0.082   0.827  -7.204  0.00  0.00    +0.015 C 
ATOM     18  C   UNL     1      -1.322   1.657  -5.200  0.00  0.00    +0.015 C 
ATOM     19  C   UNL     1       1.176   1.690  -5.225  0.00  0.00    +0.015 C 
ENDBRANCH  15  16
BRANCH  12  20
ATOM     20  C   UNL     1       0.025   0.017   2.485  0.00  0.00    +0.138 C 
BRANCH  20  21
ATOM     21  C   UNL     1      -1.394   0.239   2.939  0.00  0.00    +0.218 C 
ATOM     22  O   UNL     1      -2.317  -0.152   2.256  0.00  0.00    -0.275 OA
ATOM     23  N   UNL     1      -1.638   0.872   4.103  0.00  0.00    -0.313 N 
ATOM     24  H   UNL     1      -0.900   1.184   4.649  0.00  0.00    +0.149 HD
BRANCH  23  25
ATOM     25  C   UNL     1      -3.018   1.087   4.545  0.00  0.00    +0.067 C 
ATOM     26  C   UNL     1      -3.517  -0.155   5.285  0.00  0.00    +0.027 C 
ATOM     27  C   UNL     1      -3.071   2.295   5.482  0.00  0.00    +0.027 C 
ENDBRANCH  23  25
ENDBRANCH  20  21
ENDBRANCH  12  20
TORSDOF 4
