REMARK  Name = ZINC22804142
REMARK  8 active torsions:
REMARK  status: ('A' for Active; 'I' for Inactive)
REMARK    1  A    between atoms: C_6  and  C_7
REMARK    2  A    between atoms: C_7  and  C_8
REMARK    3  A    between atoms: C_7  and  N_15
REMARK    4  A    between atoms: N_18  and  C_21
REMARK    5  A    between atoms: C_21  and  C_22
REMARK    6  A    between atoms: N_24  and  C_25
REMARK    7  A    between atoms: C_25  and  C_26
REMARK    8  A    between atoms: C_26  and  N_27
REMARK                            x       y       z     vdW  Elec       q    Type
REMARK                         _______ _______ _______ _____ _____    ______ ____
ROOT
ATOM      1  N   UNL     1      -1.209   1.116   1.003  0.00  0.00    -0.295 NA
ATOM      2  C   UNL     1      -0.564   0.649  -0.232  0.00  0.00    +0.067 C 
ATOM      3  C   UNL     1      -1.156   1.397  -1.429  0.00  0.00    -0.063 C 
ATOM      4  N   UNL     1      -0.956   2.842  -1.248  0.00  0.00    +0.387 N 
ATOM      5  C   UNL     1      -1.602   3.309  -0.013  0.00  0.00    -0.063 C 
ATOM      6  C   UNL     1      -1.010   2.561   1.184  0.00  0.00    +0.067 C 
ATOM      7  H   UNL     1       0.124   3.026  -1.157  0.00  0.00    -0.081 HD
ENDROOT
BRANCH   1   8
ATOM      8  C   UNL     1      -0.721   0.367   2.168  0.00  0.00    +0.117 C 
BRANCH   8  14
ATOM      9  C   UNL     1      -2.627   1.369   3.442  0.00  0.00    +0.008 A 
ATOM     10  C   UNL     1      -3.170   1.903   4.596  0.00  0.00    +0.038 A 
ATOM     11  C   UNL     1      -2.389   2.029   5.732  0.00  0.00    +0.123 A 
ATOM     12  C   UNL     1      -1.068   1.616   5.713  0.00  0.00    +0.038 A 
ATOM     13  C   UNL     1      -0.529   1.079   4.560  0.00  0.00    +0.008 A 
ATOM     14  C   UNL     1      -1.309   0.953   3.425  0.00  0.00    -0.026 A 
ATOM     15  F   UNL     1      -2.917   2.555   6.859  0.00  0.00    -0.205 F 
ENDBRANCH   8  14
BRANCH   8  16
ATOM     16  C   UNL     1      -1.133  -1.077   2.046  0.00  0.00    -0.026 A 
ATOM     17  C   UNL     1      -2.392  -1.398   1.571  0.00  0.00    +0.008 A 
ATOM     18  C   UNL     1      -2.770  -2.722   1.454  0.00  0.00    +0.038 A 
ATOM     19  C   UNL     1      -1.892  -3.728   1.822  0.00  0.00    +0.123 A 
ATOM     20  C   UNL     1      -0.633  -3.405   2.302  0.00  0.00    +0.038 A 
ATOM     21  C   UNL     1      -0.256  -2.080   2.413  0.00  0.00    +0.008 A 
ATOM     22  F   UNL     1      -2.262  -5.022   1.713  0.00  0.00    -0.205 F 
ENDBRANCH   8  16
ENDBRANCH   1   8
BRANCH   4  23
ATOM     23  C   UNL     1      -1.445   3.591  -2.413  0.00  0.00    +0.019 C 
BRANCH  23  24
ATOM     24  C   UNL     1      -0.592   3.266  -3.612  0.00  0.00    +0.196 C 
ATOM     25  O   UNL     1       0.397   2.576  -3.484  0.00  0.00    -0.278 OA
ATOM     26  N   UNL     1      -0.930   3.741  -4.828  0.00  0.00    -0.315 N 
ATOM     27  H   UNL     1      -1.827   4.367  -4.944  0.00  0.00    +0.149 HD
BRANCH  26  28
ATOM     28  C   UNL     1      -0.101   3.425  -5.994  0.00  0.00    +0.123 C 
BRANCH  28  29
ATOM     29  C   UNL     1      -0.700   4.082  -7.239  0.00  0.00    +0.136 C 
BRANCH  29  30
ATOM     30  N   UNL     1       0.128   3.766  -8.405  0.00  0.00    -0.231 N 
ATOM     31  C   UNL     1       1.119   4.586  -8.711  0.00  0.00    +0.233 C 
ATOM     32  O   UNL     1       1.360   5.582  -8.063  0.00  0.00    -0.274 OA
ATOM     33  C   UNL     1       1.938   4.191  -9.932  0.00  0.00    +0.175 C 
ATOM     34  S   UNL     1       1.062   2.651 -10.415  0.00  0.00    -0.058 S 
ATOM     35  C   UNL     1      -0.162   2.658  -9.112  0.00  0.00    +0.281 C 
ATOM     36  O   UNL     1      -1.049   1.851  -8.912  0.00  0.00    -0.262 OA
ENDBRANCH  29  30
ENDBRANCH  28  29
ENDBRANCH  26  28
ENDBRANCH  23  24
ENDBRANCH   4  23
TORSDOF 8
