REMARK  Name = ZINC35693466
REMARK  9 active torsions:
REMARK  status: ('A' for Active; 'I' for Inactive)
REMARK    1  A    between atoms: C_1  and  C_2
REMARK    2  A    between atoms: C_2  and  O_3
REMARK    3  A    between atoms: O_3  and  C_4
REMARK    4  A    between atoms: C_4  and  C_6
REMARK    5  A    between atoms: C_7  and  C_33
REMARK    6  A    between atoms: C_11  and  C_13
REMARK    7  A    between atoms: C_20  and  C_23
REMARK    8  A    between atoms: C_24  and  N_26
REMARK    9  A    between atoms: N_29  and  C_32
REMARK                            x       y       z     vdW  Elec       q    Type
REMARK                         _______ _______ _______ _____ _____    ______ ____
ROOT
ATOM      1  C   UNL     1       1.130  -2.049   2.732  0.00  0.00    +0.082 C 
ATOM      2  C   UNL     1       1.030  -3.381   3.084  0.00  0.00    +0.053 C 
ATOM      3  N   UNL     1       1.796  -3.881   4.041  0.00  0.00    -0.230 NA
ATOM      4  C   UNL     1       2.689  -3.195   4.723  0.00  0.00    +0.166 C 
ATOM      5  N   UNL     1       2.943  -1.866   4.529  0.00  0.00    -0.267 N 
ATOM      6  C   UNL     1       2.141  -1.199   3.469  0.00  0.00    +0.150 C 
ATOM      7  C   UNL     1       3.912  -1.289   5.325  0.00  0.00    +0.048 C 
ATOM      8  C   UNL     1       4.531  -2.079   6.230  0.00  0.00    +0.072 C 
ATOM      9  S   UNL     1       3.737  -3.650   5.954  0.00  0.00    -0.060 S 
ATOM     10  C   UNL     1       0.043  -4.271   2.375  0.00  0.00    +0.066 C 
ENDROOT
BRANCH   6  11
ATOM     11  C   UNL     1       1.403  -0.050   4.106  0.00  0.00    -0.022 A 
ATOM     12  C   UNL     1       0.610  -0.270   5.218  0.00  0.00    +0.008 A 
ATOM     13  C   UNL     1      -0.067   0.783   5.804  0.00  0.00    +0.038 A 
ATOM     14  C   UNL     1       0.049   2.058   5.277  0.00  0.00    +0.123 A 
ATOM     15  C   UNL     1       0.843   2.277   4.164  0.00  0.00    +0.038 A 
ATOM     16  C   UNL     1       1.523   1.224   3.583  0.00  0.00    +0.008 A 
ATOM     17  F   UNL     1      -0.613   3.088   5.849  0.00  0.00    -0.205 F 
ENDBRANCH   6  11
BRANCH   7  18
ATOM     18  C   UNL     1       4.258   0.133   5.193  0.00  0.00    +0.091 C 
ATOM     19  C   UNL     1       5.113   0.702   6.064  0.00  0.00    +0.241 C 
ATOM     20  O   UNL     1       5.741  -0.060   6.993  0.00  0.00    -0.271 OA
BRANCH  19  21
ATOM     21  N   UNL     1       5.350   2.065   6.011  0.00  0.00    -0.302 N 
ATOM     22  C   UNL     1       6.657   2.621   6.396  0.00  0.00    +0.089 C 
ATOM     23  C   UNL     1       6.425   3.761   7.393  0.00  0.00    -0.060 C 
ATOM     24  N   UNL     1       5.498   4.739   6.811  0.00  0.00    +0.380 N 
ATOM     25  C   UNL     1       4.183   4.121   6.605  0.00  0.00    -0.060 C 
ATOM     26  C   UNL     1       4.305   2.998   5.563  0.00  0.00    +0.089 C 
ATOM     27  C   UNL     1       5.363   5.884   7.721  0.00  0.00    -0.096 C 
ATOM     28  H   UNL     1       5.861   5.058   5.925  0.00  0.00    -0.082 HD
ENDBRANCH  19  21
ENDBRANCH   7  18
BRANCH   1  29
ATOM     29  C   UNL     1       0.327  -1.506   1.722  0.00  0.00    +0.339 C 
ATOM     30  O   UNL     1      -0.381  -2.235   1.048  0.00  0.00    -0.245 OA
BRANCH  29  31
ATOM     31  O   UNL     1       0.338  -0.174   1.493  0.00  0.00    -0.462 OA
BRANCH  31  33
ATOM     32  C   UNL     1      -0.361   1.830   0.337  0.00  0.00    +0.048 C 
ATOM     33  C   UNL     1      -0.506   0.311   0.447  0.00  0.00    +0.229 C 
ENDBRANCH  31  33
ENDBRANCH  29  31
ENDBRANCH   1  29
TORSDOF 6
