REMARK  Name = ZINC30553129
REMARK  7 active torsions:
REMARK  status: ('A' for Active; 'I' for Inactive)
REMARK    1  A    between atoms: C_1  and  C_2
REMARK    2  A    between atoms: C_5  and  N_9
REMARK    3  A    between atoms: N_9  and  N_10
REMARK    4  A    between atoms: C_11  and  C_13
REMARK    5  A    between atoms: C_14  and  C_22
REMARK    6  A    between atoms: C_22  and  O_23
REMARK    7  A    between atoms: O_23  and  C_24
REMARK                            x       y       z     vdW  Elec       q    Type
REMARK                         _______ _______ _______ _____ _____    ______ ____
ROOT
ATOM      1  N   UNL     1      -3.659   3.106   0.052  0.00  0.00    -0.230 N 
ATOM      2  C   UNL     1      -4.835   3.766   0.066  0.00  0.00    +0.296 C 
ATOM      3  O   UNL     1      -4.850   4.982   0.072  0.00  0.00    -0.265 OA
ATOM      4  H   UNL     1      -3.646   2.006   0.047  0.00  0.00    +0.173 HD
ENDROOT
BRANCH   2   5
ATOM      5  C   UNL     1      -6.098   3.015   0.074  0.00  0.00    +0.197 A 
ATOM      6  C   UNL     1      -7.338   3.571   0.088  0.00  0.00    +0.036 A 
ATOM      7  C   UNL     1      -8.282   2.455   0.092  0.00  0.00    +0.026 A 
ATOM      8  C   UNL     1      -9.676   2.358   0.103  0.00  0.00    +0.012 A 
ATOM      9  C   UNL     1     -10.270   1.128   0.104  0.00  0.00    +0.001 A 
ATOM     10  C   UNL     1      -9.498  -0.026   0.091  0.00  0.00    +0.004 A 
ATOM     11  C   UNL     1      -8.122   0.048   0.079  0.00  0.00    +0.047 A 
ATOM     12  C   UNL     1      -7.495   1.288   0.079  0.00  0.00    +0.136 A 
ATOM     13  O   UNL     1      -6.203   1.670   0.063  0.00  0.00    -0.450 OA
BRANCH   6  14
ATOM     14  C   UNL     1      -7.671   5.040   0.098  0.00  0.00    +0.199 C 
BRANCH  14  15
ATOM     15  O   UNL     1      -7.789   5.511  -1.246  0.00  0.00    -0.378 OA
ATOM     16  C   UNL     1      -8.105   6.901  -1.349  0.00  0.00    +0.194 C 
ENDBRANCH  14  15
ENDBRANCH   6  14
ENDBRANCH   2   5
BRANCH   1  17
ATOM     17  N   UNL     1      -2.455   3.822   0.045  0.00  0.00    -0.264 N 
ATOM     18  H   UNL     1      -2.468   4.921   0.050  0.00  0.00    +0.170 HD
BRANCH  17  23
ATOM     19  C   UNL     1       2.490   1.044  -0.017  0.00  0.00    +0.045 C 
ATOM     20  C   UNL     1       1.176   1.783   0.000  0.00  0.00    -0.032 A 
ATOM     21  C   UNL     1      -0.013   1.076   0.008  0.00  0.00    +0.006 A 
ATOM     22  C   UNL     1      -1.218   1.749   0.017  0.00  0.00    +0.025 A 
ATOM     23  C   UNL     1      -1.237   3.138   0.030  0.00  0.00    +0.046 A 
ATOM     24  C   UNL     1      -0.042   3.846   0.023  0.00  0.00    +0.044 A 
ATOM     25  C   UNL     1       1.162   3.166   0.008  0.00  0.00    +0.046 A 
ATOM     26 CL   UNL     1       2.656   4.049  -0.002  0.00  0.00    -0.083 Cl
ENDBRANCH  17  23
ENDBRANCH   1  17
TORSDOF 5
