REMARK  Name = ZINC36206482
REMARK  12 active torsions:
REMARK  status: ('A' for Active; 'I' for Inactive)
REMARK    1  A    between atoms: C_1  and  C_2
REMARK    2  A    between atoms: C_5  and  C_9
REMARK    3  A    between atoms: C_6  and  C_8
REMARK    4  A    between atoms: C_18  and  C_20
REMARK    5  A    between atoms: C_20  and  N_21
REMARK    6  A    between atoms: N_21  and  C_22
REMARK    7  A    between atoms: N_21  and  C_25
REMARK    8  A    between atoms: C_22  and  C_23
REMARK    9  A    between atoms: C_25  and  C_26
REMARK   10  A    between atoms: C_26  and  C_27
REMARK   11  A    between atoms: C_26  and  C_28
REMARK   12  A    between atoms: C_26  and  O_30
REMARK                            x       y       z     vdW  Elec       q    Type
REMARK                         _______ _______ _______ _____ _____    ______ ____
ROOT
ATOM      1  C   UNL     1       1.331  -6.948  -2.117  0.00  0.00    +0.004 A 
ATOM      2  C   UNL     1       2.067  -8.055  -2.378  0.00  0.00    +0.056 A 
ATOM      3  S   UNL     1       1.213  -9.338  -1.483  0.00  0.00    -0.076 S 
ATOM      4  C   UNL     1      -0.099  -8.368  -0.787  0.00  0.00    +0.116 A 
ATOM      5  C   UNL     1       0.159  -7.071  -1.259  0.00  0.00    +0.080 A 
ATOM      6  C   UNL     1      -0.764  -6.062  -0.837  0.00  0.00    +0.260 A 
ATOM      7  O   UNL     1      -0.626  -4.906  -1.199  0.00  0.00    -0.267 OA
ATOM      8  N   UNL     1      -1.787  -6.409  -0.034  0.00  0.00    -0.312 N 
ATOM      9  H   UNL     1      -2.416  -5.729   0.256  0.00  0.00    +0.170 HD
ATOM     10  C   UNL     1      -1.957  -7.691   0.379  0.00  0.00    +0.094 A 
ATOM     11  N   UNL     1      -1.137  -8.635   0.002  0.00  0.00    -0.229 NA
ENDROOT
BRANCH   1  16
ATOM     12  C   UNL     1       2.818  -1.847  -4.337  0.00  0.00    +0.044 C 
ATOM     13  C   UNL     1       2.429  -3.182  -3.756  0.00  0.00    -0.050 A 
ATOM     14  C   UNL     1       2.030  -4.208  -4.594  0.00  0.00    +0.004 A 
ATOM     15  C   UNL     1       1.673  -5.433  -4.068  0.00  0.00    +0.009 A 
ATOM     16  C   UNL     1       1.714  -5.635  -2.689  0.00  0.00    -0.014 A 
ATOM     17  C   UNL     1       2.117  -4.597  -1.849  0.00  0.00    -0.042 A 
ATOM     18  C   UNL     1       2.478  -3.378  -2.388  0.00  0.00    +0.007 A 
ATOM     19  C   UNL     1       2.165  -4.808  -0.358  0.00  0.00    +0.044 C 
ENDBRANCH   1  16
BRANCH  10  20
ATOM     20  C   UNL     1      -3.117  -8.033   1.277  0.00  0.00    -0.003 C 
BRANCH  20  21
ATOM     21  N   UNL     1      -3.091  -9.469   1.587  0.00  0.00    +0.389 N 
ATOM     22  H   UNL     1      -3.040  -9.996   0.728  0.00  0.00    -0.081 HD
BRANCH  21  23
ATOM     23  C   UNL     1      -1.917  -9.769   2.416  0.00  0.00    -0.051 C 
BRANCH  23  24
ATOM     24  C   UNL     1      -1.844 -11.254   2.664  0.00  0.00    -0.053 C 
ATOM     25  C   UNL     1      -0.750 -11.914   2.374  0.00  0.00    +0.002 C 
ENDBRANCH  23  24
ENDBRANCH  21  23
BRANCH  21  26
ATOM     26  C   UNL     1      -4.312  -9.835   2.316  0.00  0.00    -0.039 C 
BRANCH  26  27
ATOM     27  C   UNL     1      -5.519  -9.716   1.382  0.00  0.00    +0.067 C 
ATOM     28  C   UNL     1      -5.245 -10.495   0.093  0.00  0.00    +0.044 C 
BRANCH  27  29
ATOM     29  C   UNL     1      -6.738 -10.283   2.062  0.00  0.00    -0.003 C 
ATOM     30  C   UNL     1      -7.783  -9.522   2.274  0.00  0.00    +0.006 C 
ENDBRANCH  27  29
BRANCH  27  31
ATOM     31  O   UNL     1      -5.745  -8.340   1.068  0.00  0.00    -0.387 OA
ATOM     32  H   UNL     1      -5.925  -7.786   1.839  0.00  0.00    +0.210 HD
ENDBRANCH  27  31
ENDBRANCH  26  27
ENDBRANCH  21  26
ENDBRANCH  20  21
ENDBRANCH  10  20
TORSDOF 9
