REMARK  Name = ZINC39325185
REMARK  13 active torsions:
REMARK  status: ('A' for Active; 'I' for Inactive)
REMARK    1  A    between atoms: C_1  and  C_2
REMARK    2  A    between atoms: C_2  and  C_3
REMARK    3  A    between atoms: C_10  and  C_15
REMARK    4  A    between atoms: C_15  and  N_16
REMARK    5  A    between atoms: N_16  and  C_17
REMARK    6  A    between atoms: N_16  and  S_26
REMARK    7  A    between atoms: C_17  and  C_18
REMARK    8  A    between atoms: C_21  and  O_24
REMARK    9  A    between atoms: O_24  and  C_25
REMARK   10  A    between atoms: S_26  and  C_29
REMARK   11  A    between atoms: C_30  and  C_37
REMARK   12  A    between atoms: C_32  and  C_36
REMARK   13  A    between atoms: C_34  and  C_35
REMARK                            x       y       z     vdW  Elec       q    Type
REMARK                         _______ _______ _______ _____ _____    ______ ____
ROOT
ATOM      1  N   UNL     1      -6.916  -1.245  -3.537  0.00  0.00    -0.171 NA
ENDROOT
BRANCH   1   2
ATOM      2  S   UNL     1      -7.952  -2.255  -4.343  0.00  0.00    +0.062 S 
ATOM      3  O   UNL     1      -9.267  -1.879  -3.960  0.00  0.00    -0.153 OA
ATOM      4  O   UNL     1      -7.529  -2.272  -5.700  0.00  0.00    -0.153 OA
BRANCH   2   5
ATOM      5  C   UNL     1      -7.689  -3.880  -3.714  0.00  0.00    +0.111 A 
ATOM      6  C   UNL     1      -8.574  -4.417  -2.797  0.00  0.00    -0.024 A 
ATOM      7  C   UNL     1      -8.368  -5.692  -2.304  0.00  0.00    +0.008 A 
ATOM      8  C   UNL     1      -7.279  -6.430  -2.727  0.00  0.00    -0.050 A 
ATOM      9  C   UNL     1      -6.394  -5.893  -3.644  0.00  0.00    +0.008 A 
ATOM     10  C   UNL     1      -6.603  -4.620  -4.141  0.00  0.00    -0.024 A 
ATOM     11  C   UNL     1      -5.642  -4.036  -5.145  0.00  0.00    +0.046 C 
ATOM     12  C   UNL     1      -7.054  -7.819  -2.188  0.00  0.00    +0.044 C 
ATOM     13  C   UNL     1      -9.762  -3.613  -2.336  0.00  0.00    +0.046 C 
ENDBRANCH   2   5
ENDBRANCH   1   2
BRANCH   1  14
ATOM     14  C   UNL     1      -5.649  -0.849  -4.156  0.00  0.00    +0.126 C 
BRANCH  14  22
ATOM     15  C   UNL     1      -2.940   2.104  -8.398  0.00  0.00    -0.047 A 
ATOM     16  C   UNL     1      -4.062   2.041  -9.225  0.00  0.00    +0.005 A 
ATOM     17  C   UNL     1      -5.283   1.649  -8.774  0.00  0.00    +0.024 A 
ATOM     18  C   UNL     1      -5.464   1.283  -7.428  0.00  0.00    +0.040 A 
ATOM     19  N   UNL     1      -6.666   0.900  -6.998  0.00  0.00    -0.284 N 
ATOM     20  C   UNL     1      -6.905   0.543  -5.747  0.00  0.00    +0.225 C 
ATOM     21  O   UNL     1      -8.024   0.202  -5.412  0.00  0.00    -0.275 OA
ATOM     22  C   UNL     1      -5.783   0.562  -4.734  0.00  0.00    +0.114 C 
ATOM     23  C   UNL     1      -4.413   0.997  -5.218  0.00  0.00    -0.003 C 
ATOM     24  C   UNL     1      -4.295   1.340  -6.533  0.00  0.00    -0.007 A 
ATOM     25  C   UNL     1      -3.009   1.766  -7.085  0.00  0.00    +0.013 A 
ATOM     26  H   UNL     1      -7.399   0.881  -7.632  0.00  0.00    +0.155 HD
BRANCH  15  28
ATOM     27  C   UNL     1      -0.861   1.333  -9.508  0.00  0.00    +0.009 C 
ATOM     28  C   UNL     1      -1.622   2.549  -8.977  0.00  0.00    +0.032 C 
ENDBRANCH  15  28
ENDBRANCH  14  22
ENDBRANCH   1  14
BRANCH   1  29
ATOM     29  C   UNL     1      -7.267  -0.748  -2.204  0.00  0.00    +0.144 C 
BRANCH  29  30
ATOM     30  C   UNL     1      -7.960   0.585  -2.332  0.00  0.00    -0.031 A 
ATOM     31  C   UNL     1      -7.219   1.752  -2.325  0.00  0.00    +0.008 A 
ATOM     32  C   UNL     1      -7.852   2.974  -2.442  0.00  0.00    +0.046 A 
ATOM     33  C   UNL     1      -9.232   3.030  -2.566  0.00  0.00    +0.120 A 
ATOM     34  C   UNL     1      -9.974   1.858  -2.573  0.00  0.00    +0.046 A 
ATOM     35  C   UNL     1      -9.336   0.637  -2.462  0.00  0.00    +0.008 A 
BRANCH  33  36
ATOM     36  O   UNL     1      -9.857   4.231  -2.680  0.00  0.00    -0.495 OA
ATOM     37  C   UNL     1     -11.281   4.213  -2.805  0.00  0.00    +0.277 C 
ENDBRANCH  33  36
ENDBRANCH  29  30
ENDBRANCH   1  29
TORSDOF 8
