REMARK  Name = ZINC28656350
REMARK  6 active torsions:
REMARK  status: ('A' for Active; 'I' for Inactive)
REMARK    1  A    between atoms: C_1  and  C_2
REMARK    2  A    between atoms: C_6  and  C_8
REMARK    3  A    between atoms: C_9  and  C_24
REMARK    4  A    between atoms: N_14  and  C_15
REMARK    5  A    between atoms: C_15  and  C_16
REMARK    6  A    between atoms: C_19  and  C_22
REMARK                            x       y       z     vdW  Elec       q    Type
REMARK                         _______ _______ _______ _____ _____    ______ ____
ROOT
ATOM      1  C   UNL     1       1.092   1.803   0.001  0.00  0.00    +0.092 A 
ATOM      2  C   UNL     1       0.598   3.094   0.013  0.00  0.00    +0.075 A 
ATOM      3  N   UNL     1      -0.746   3.017   0.025  0.00  0.00    -0.327 N 
ATOM      4  C   UNL     1      -1.116   1.758   0.016  0.00  0.00    +0.172 A 
ATOM      5  N   UNL     1      -0.011   0.966   0.007  0.00  0.00    -0.326 N 
ATOM      6  H   UNL     1       0.127  -0.126   0.005  0.00  0.00    +0.169 HD
ATOM      7  N   UNL     1      -2.422   1.309   0.018  0.00  0.00    -0.312 N 
ATOM      8  H   UNL     1      -3.252   2.031   0.026  0.00  0.00    +0.149 HD
ATOM      9  H   UNL     1      -1.349   3.937   0.041  0.00  0.00    +0.169 HD
ENDROOT
BRANCH   2  10
ATOM     10  C   UNL     1       1.402   4.338   0.012  0.00  0.00    +0.004 A 
ATOM     11  C   UNL     1       2.619   4.384   0.693  0.00  0.00    +0.014 A 
ATOM     12  C   UNL     1       3.367   5.542   0.691  0.00  0.00    +0.050 A 
ATOM     13  C   UNL     1       2.915   6.664   0.012  0.00  0.00    +0.166 A 
ATOM     14  C   UNL     1       1.700   6.624  -0.670  0.00  0.00    +0.167 A 
ATOM     15  C   UNL     1       0.948   5.463  -0.675  0.00  0.00    +0.059 A 
ATOM     16  O   UNL     1       1.484   7.842  -1.248  0.00  0.00    -0.453 OA
ATOM     17  C   UNL     1       2.767   8.496  -1.257  0.00  0.00    +0.466 C 
ATOM     18  O   UNL     1       3.458   7.907  -0.139  0.00  0.00    -0.453 OA
ENDBRANCH   2  10
BRANCH   1  24
ATOM     19  C   UNL     1       5.704   2.874  -1.103  0.00  0.00    +0.065 C 
ATOM     20  C   UNL     1       4.703   1.901  -0.536  0.00  0.00    +0.039 A 
ATOM     21  C   UNL     1       5.136   0.679  -0.055  0.00  0.00    +0.023 A 
ATOM     22  C   UNL     1       4.212  -0.216   0.468  0.00  0.00    +0.004 A 
ATOM     23  C   UNL     1       2.879   0.150   0.494  0.00  0.00    +0.030 A 
ATOM     24  C   UNL     1       2.508   1.399  -0.014  0.00  0.00    +0.089 A 
ATOM     25  N   UNL     1       3.426   2.226  -0.506  0.00  0.00    -0.250 NA
ENDBRANCH   1  24
BRANCH   7  26
ATOM     26  C   UNL     1      -2.702  -0.129   0.011  0.00  0.00    +0.139 C 
BRANCH  26  27
ATOM     27  C   UNL     1      -4.193  -0.350   0.015  0.00  0.00    -0.030 A 
ATOM     28  C   UNL     1      -4.869  -0.465   1.217  0.00  0.00    +0.006 A 
ATOM     29  C   UNL     1      -6.234  -0.663   1.228  0.00  0.00    +0.019 A 
ATOM     30  C   UNL     1      -6.932  -0.759   0.023  0.00  0.00    +0.052 A 
ATOM     31  C   UNL     1      -6.243  -0.648  -1.186  0.00  0.00    +0.019 A 
ATOM     32  C   UNL     1      -4.878  -0.445  -1.183  0.00  0.00    +0.006 A 
BRANCH  30  33
ATOM     33  C   UNL     1      -8.348  -0.969   0.027  0.00  0.00    +0.099 C 
ATOM     34  N   UNL     1      -9.472  -1.136   0.030  0.00  0.00    -0.191 NA
ENDBRANCH  30  33
ENDBRANCH  26  27
ENDBRANCH   7  26
TORSDOF 5
