REMARK  Name = ZINC39844189
REMARK  8 active torsions:
REMARK  status: ('A' for Active; 'I' for Inactive)
REMARK    1  A    between atoms: C_1  and  C_2
REMARK    2  A    between atoms: C_2  and  C_3
REMARK    3  A    between atoms: C_3  and  C_5
REMARK    4  A    between atoms: C_3  and  N_6
REMARK    5  A    between atoms: N_6  and  C_7
REMARK    6  A    between atoms: C_8  and  S_18
REMARK    7  A    between atoms: C_10  and  C_12
REMARK    8  A    between atoms: S_18  and  C_21
REMARK                            x       y       z     vdW  Elec       q    Type
REMARK                         _______ _______ _______ _____ _____    ______ ____
ROOT
ATOM      1  C   UNL     1       2.846   0.056  -2.389  0.00  0.00    +0.233 A 
ATOM      2  C   UNL     1       4.148   0.419  -2.497  0.00  0.00    +0.243 A 
ATOM      3  N   UNL     1       4.458   0.443  -3.801  0.00  0.00    -0.188 NA
ATOM      4  C   UNL     1       3.396   0.109  -4.494  0.00  0.00    +0.231 A 
ATOM      5  O   UNL     1       2.384  -0.141  -3.640  0.00  0.00    -0.420 OA
ENDROOT
BRANCH   4   6
ATOM      6  C   UNL     1       3.322   0.017  -5.966  0.00  0.00    +0.037 A 
ATOM      7  C   UNL     1       4.449   0.292  -6.744  0.00  0.00    +0.013 A 
ATOM      8  C   UNL     1       4.373   0.204  -8.118  0.00  0.00    +0.001 A 
ATOM      9  C   UNL     1       3.183  -0.155  -8.727  0.00  0.00    +0.000 A 
ATOM     10  C   UNL     1       2.063  -0.428  -7.963  0.00  0.00    +0.001 A 
ATOM     11  C   UNL     1       2.126  -0.351  -6.587  0.00  0.00    +0.013 A 
ENDBRANCH   4   6
BRANCH   2  12
ATOM     12  S   UNL     1       5.237   0.791  -1.163  0.00  0.00    +0.047 S 
ATOM     13  O   UNL     1       6.257   1.627  -1.692  0.00  0.00    -0.163 OA
ATOM     14  O   UNL     1       4.419   1.186  -0.070  0.00  0.00    -0.163 OA
BRANCH  12  15
ATOM     15  C   UNL     1       6.016  -0.717  -0.690  0.00  0.00    +0.095 A 
ATOM     16  C   UNL     1       5.435  -1.523   0.272  0.00  0.00    +0.028 A 
ATOM     17  C   UNL     1       6.046  -2.706   0.643  0.00  0.00    +0.017 A 
ATOM     18  C   UNL     1       7.238  -3.084   0.052  0.00  0.00    +0.018 A 
ATOM     19  C   UNL     1       7.819  -2.277  -0.910  0.00  0.00    +0.017 A 
ATOM     20  C   UNL     1       7.205  -1.096  -1.284  0.00  0.00    +0.028 A 
ATOM     21 BR   UNL     1       8.074  -4.702   0.559  0.00  0.00    -0.050 Br
ENDBRANCH  12  15
ENDBRANCH   2  12
BRANCH   1  22
ATOM     22  N   UNL     1       2.125  -0.091  -1.209  0.00  0.00    -0.310 N 
ATOM     23  H   UNL     1       2.553   0.075  -0.355  0.00  0.00    +0.149 HD
BRANCH  22  24
ATOM     24  C   UNL     1       0.718  -0.497  -1.257  0.00  0.00    +0.070 C 
ATOM     25  C   UNL     1       0.630  -2.023  -1.329  0.00  0.00    +0.028 C 
BRANCH  24  27
ATOM     26  C   UNL     1      -0.019   1.526   0.010  0.00  0.00    +0.005 C 
ATOM     27  C   UNL     1       0.002  -0.004   0.002  0.00  0.00    +0.018 C 
ENDBRANCH  24  27
ENDBRANCH  22  24
ENDBRANCH   1  22
TORSDOF 6
