REMARK  Name = ZINC31871136
REMARK  8 active torsions:
REMARK  status: ('A' for Active; 'I' for Inactive)
REMARK    1  A    between atoms: C_1  and  C_2
REMARK    2  A    between atoms: C_5  and  C_8
REMARK    3  A    between atoms: C_11  and  S_19
REMARK    4  A    between atoms: N_12  and  C_13
REMARK    5  A    between atoms: S_19  and  C_20
REMARK    6  A    between atoms: C_20  and  C_21
REMARK    7  A    between atoms: N_23  and  N_24
REMARK    8  A    between atoms: C_25  and  C_26
REMARK                            x       y       z     vdW  Elec       q    Type
REMARK                         _______ _______ _______ _____ _____    ______ ____
ROOT
ATOM      1  C   UNL     1      10.759  -1.023  -0.700  0.00  0.00    +0.169 A 
ATOM      2  N   UNL     1       9.857  -0.099  -0.464  0.00  0.00    -0.128 NA
ATOM      3  N   UNL     1       8.686  -0.626  -0.429  0.00  0.00    -0.122 NA
ATOM      4  C   UNL     1       8.766  -1.921  -0.640  0.00  0.00    +0.197 A 
ATOM      5  N   UNL     1      10.089  -2.222  -0.815  0.00  0.00    -0.270 N 
ENDROOT
BRANCH   1  10
ATOM      6  C   UNL     1      16.440  -0.223  -1.150  0.00  0.00    +0.044 C 
ATOM      7  C   UNL     1      14.952  -0.433  -1.032  0.00  0.00    -0.050 A 
ATOM      8  C   UNL     1      14.159   0.557  -0.481  0.00  0.00    +0.004 A 
ATOM      9  C   UNL     1      12.796   0.372  -0.370  0.00  0.00    +0.012 A 
ATOM     10  C   UNL     1      12.218  -0.818  -0.816  0.00  0.00    +0.020 A 
ATOM     11  C   UNL     1      13.025  -1.815  -1.366  0.00  0.00    +0.012 A 
ATOM     12  C   UNL     1      14.386  -1.615  -1.476  0.00  0.00    +0.004 A 
ENDBRANCH   1  10
BRANCH   5  13
ATOM     13  C   UNL     1      10.646  -3.484  -1.061  0.00  0.00    +0.051 A 
ATOM     14  C   UNL     1      11.495  -4.064  -0.127  0.00  0.00    +0.026 A 
ATOM     15  C   UNL     1      12.038  -5.311  -0.370  0.00  0.00    +0.002 A 
ATOM     16  C   UNL     1      11.746  -5.976  -1.547  0.00  0.00    +0.000 A 
ATOM     17  C   UNL     1      10.906  -5.399  -2.481  0.00  0.00    +0.002 A 
ATOM     18  C   UNL     1      10.356  -4.155  -2.241  0.00  0.00    +0.026 A 
ENDBRANCH   5  13
BRANCH   4  19
ATOM     19  S   UNL     1       7.421  -3.059  -0.683  0.00  0.00    -0.076 S 
BRANCH  19  20
ATOM     20  C   UNL     1       6.043  -1.929  -0.367  0.00  0.00    +0.174 C 
BRANCH  20  21
ATOM     21  C   UNL     1       4.750  -2.703  -0.358  0.00  0.00    +0.242 C 
ATOM     22  O   UNL     1       4.760  -3.901  -0.547  0.00  0.00    -0.273 OA
ATOM     23  N   UNL     1       3.584  -2.064  -0.141  0.00  0.00    -0.206 N 
ATOM     24  H   UNL     1       3.575  -0.977   0.029  0.00  0.00    +0.177 HD
BRANCH  23  25
ATOM     25  N   UNL     1       2.382  -2.783  -0.133  0.00  0.00    -0.188 NA
ATOM     26  C   UNL     1       1.250  -2.155  -0.051  0.00  0.00    +0.138 C 
BRANCH  26  27
ATOM     27  C   UNL     1       1.144  -0.761  -0.521  0.00  0.00    -0.004 A 
ATOM     28  C   UNL     1       2.147  -0.214  -1.326  0.00  0.00    +0.009 A 
ATOM     29  C   UNL     1       2.043   1.090  -1.762  0.00  0.00    +0.002 A 
ATOM     30  C   UNL     1       0.948   1.857  -1.405  0.00  0.00    +0.015 A 
ATOM     31  C   UNL     1      -0.050   1.323  -0.608  0.00  0.00    +0.018 A 
ATOM     32  C   UNL     1       0.042   0.018  -0.164  0.00  0.00    +0.024 A 
ATOM     33 BR   UNL     1      -1.545   2.378  -0.133  0.00  0.00    -0.050 Br
ENDBRANCH  26  27
ENDBRANCH  23  25
ENDBRANCH  20  21
ENDBRANCH  19  20
ENDBRANCH   4  19
TORSDOF 7
