REMARK  Name = ZINC04276754
REMARK  6 active torsions:
REMARK  status: ('A' for Active; 'I' for Inactive)
REMARK    1  A    between atoms: C_3  and  O_11
REMARK    2  A    between atoms: C_6  and  N_7
REMARK    3  A    between atoms: O_11  and  C_12
REMARK    4  A    between atoms: C_15  and  S_19
REMARK    5  A    between atoms: S_19  and  N_22
REMARK    6  A    between atoms: C_23  and  C_25
REMARK                            x       y       z     vdW  Elec       q    Type
REMARK                         _______ _______ _______ _____ _____    ______ ____
ROOT
ATOM      1  C   UNL     1       1.046   4.088   0.132  0.00  0.00    +0.165 A 
ATOM      2  C   UNL     1       1.172   2.770  -0.286  0.00  0.00    +0.086 A 
ATOM      3  C   UNL     1       0.043   1.994  -0.473  0.00  0.00    +0.052 A 
ATOM      4  C   UNL     1      -1.211   2.531  -0.250  0.00  0.00    +0.112 A 
ATOM      5  C   UNL     1      -1.340   3.842   0.172  0.00  0.00    +0.052 A 
ATOM      6  C   UNL     1      -0.215   4.623   0.360  0.00  0.00    +0.086 A 
ATOM      7 CL   UNL     1      -0.378   6.270   0.883  0.00  0.00    -0.080 Cl
ATOM      8 CL   UNL     1       2.746   2.096  -0.572  0.00  0.00    -0.080 Cl
ENDROOT
BRANCH   4   9
ATOM      9  S   UNL     1      -2.648   1.542  -0.496  0.00  0.00    +0.073 S 
ATOM     10  O   UNL     1      -3.721   2.439  -0.746  0.00  0.00    -0.150 OA
ATOM     11  O   UNL     1      -2.284   0.517  -1.411  0.00  0.00    -0.150 OA
BRANCH   9  12
ATOM     12  N   UNL     1      -2.982   0.795   0.943  0.00  0.00    -0.204 N 
ATOM     13  C   UNL     1      -3.343   1.541   2.034  0.00  0.00    +0.100 C 
ATOM     14  H   UNL     1      -3.672   3.442   2.655  0.00  0.00    +0.157 HD
ATOM     15  H   UNL     1      -2.921  -0.171   1.014  0.00  0.00    +0.175 HD
ATOM     16  N   UNL     1      -3.408   2.844   1.873  0.00  0.00    -0.388 N 
ATOM     17  H   UNL     1      -3.191   3.259   0.959  0.00  0.00    +0.157 HD
BRANCH  13  18
ATOM     18  C   UNL     1      -3.647   0.861   3.345  0.00  0.00    +0.178 C 
ATOM     19 CL   UNL     1      -4.089   2.101   4.577  0.00  0.00    -0.117 Cl
ENDBRANCH  13  18
ENDBRANCH   9  12
ENDBRANCH   4   9
BRANCH   1  20
ATOM     20  O   UNL     1       2.154   4.853   0.317  0.00  0.00    -0.452 OA
BRANCH  20  23
ATOM     21  C   UNL     1       2.441   6.235  -3.037  0.00  0.00    +0.036 A 
ATOM     22  C   UNL     1       1.966   5.506  -1.963  0.00  0.00    +0.050 A 
ATOM     23  C   UNL     1       2.619   5.569  -0.741  0.00  0.00    +0.147 A 
ATOM     24  C   UNL     1       3.745   6.369  -0.598  0.00  0.00    +0.085 A 
ATOM     25  C   UNL     1       4.218   7.091  -1.677  0.00  0.00    +0.056 A 
ATOM     26  C   UNL     1       3.565   7.027  -2.894  0.00  0.00    +0.128 A 
ATOM     27 CL   UNL     1       4.560   6.457   0.932  0.00  0.00    -0.080 Cl
BRANCH  26  28
ATOM     28  N   UNL     1       4.070   7.807  -4.046  0.00  0.00    +0.056 N 
ATOM     29  O   UNL     1       3.496   7.750  -5.119  0.00  0.00    -0.126 OA
ATOM     30  O   UNL     1       5.061   8.505  -3.922  0.00  0.00    -0.126 OA
ENDBRANCH  26  28
ENDBRANCH  20  23
ENDBRANCH   1  20
TORSDOF 6
