REMARK  Name = ZINC39663021
REMARK  4 active torsions:
REMARK  status: ('A' for Active; 'I' for Inactive)
REMARK    1  A    between atoms: C_3  and  C_12
REMARK    2  A    between atoms: C_6  and  C_7
REMARK    3  A    between atoms: C_16  and  C_25
REMARK    4  A    between atoms: N_27  and  C_28
REMARK                            x       y       z     vdW  Elec       q    Type
REMARK                         _______ _______ _______ _____ _____    ______ ____
ROOT
ATOM      1  C   UNL     1       3.891   2.209   0.055  0.00  0.00    +0.249 C 
ATOM      2  O   UNL     1       4.986   1.691   0.152  0.00  0.00    -0.270 OA
ATOM      3  N   UNL     1       3.786   3.547  -0.067  0.00  0.00    -0.296 N 
ATOM      4  C   UNL     1       2.550   4.363  -0.089  0.00  0.00    +0.121 C 
ATOM      5  C   UNL     1       2.902   5.627   0.727  0.00  0.00    +0.100 C 
ATOM      6  C   UNL     1       4.434   5.735   0.642  0.00  0.00    -0.004 C 
ATOM      7  C   UNL     1       4.883   4.535  -0.204  0.00  0.00    +0.115 C 
ATOM      8  C   UNL     1       5.048   5.649   2.036  0.00  0.00    -0.010 C 
ATOM      9  C   UNL     1       6.566   5.816   1.930  0.00  0.00    -0.082 C 
ATOM     10  N   UNL     1       6.876   7.113   1.316  0.00  0.00    +0.379 N 
ATOM     11  C   UNL     1       6.362   7.152  -0.058  0.00  0.00    -0.082 C 
ATOM     12  C   UNL     1       4.835   7.041  -0.037  0.00  0.00    -0.010 C 
ATOM     13  H   UNL     1       6.447   7.850   1.855  0.00  0.00    -0.086 HD
ATOM     14  H   UNL     1       7.876   7.247   1.303  0.00  0.00    -0.086 HD
ENDROOT
BRANCH   1  17
ATOM     15  C   UNL     1       0.428   0.950  -0.668  0.00  0.00    +0.013 A 
ATOM     16  C   UNL     1       1.561   1.736  -0.688  0.00  0.00    +0.016 A 
ATOM     17  C   UNL     1       2.674   1.371   0.072  0.00  0.00    +0.072 A 
ATOM     18  C   UNL     1       2.631   0.209   0.850  0.00  0.00    +0.136 A 
ATOM     19  C   UNL     1       1.488  -0.569   0.859  0.00  0.00    +0.051 A 
ATOM     20  C   UNL     1       0.391  -0.199   0.103  0.00  0.00    +0.058 A 
ATOM     21  F   UNL     1       3.703  -0.152   1.588  0.00  0.00    -0.205 F 
BRANCH  20  22
ATOM     22  C   UNL     1      -0.851  -1.052   0.118  0.00  0.00    +0.418 C 
ATOM     23  F   UNL     1      -0.770  -2.014  -0.894  0.00  0.00    -0.166 F 
ATOM     24  F   UNL     1      -0.964  -1.690   1.359  0.00  0.00    -0.166 F 
ATOM     25  F   UNL     1      -1.974  -0.244  -0.094  0.00  0.00    -0.166 F 
ENDBRANCH  20  22
ENDBRANCH   1  17
BRANCH   5  26
ATOM     26  C   UNL     1       2.464   5.466   2.159  0.00  0.00    +0.218 C 
ATOM     27  O   UNL     1       2.452   4.365   2.670  0.00  0.00    -0.275 OA
ATOM     28  N   UNL     1       2.085   6.544   2.874  0.00  0.00    -0.314 N 
ATOM     29  H   UNL     1       2.094   7.424   2.466  0.00  0.00    +0.149 HD
BRANCH  28  30
ATOM     30  C   UNL     1       1.659   6.387   4.267  0.00  0.00    +0.059 C 
ATOM     31  C   UNL     1       2.885   6.402   5.183  0.00  0.00    -0.056 C 
ATOM     32  N   UNL     1       2.786   7.513   6.133  0.00  0.00    +0.381 N 
ATOM     33  C   UNL     1       2.751   8.795   5.426  0.00  0.00    -0.078 C 
ATOM     34  C   UNL     1       1.521   8.859   4.518  0.00  0.00    -0.014 C 
ATOM     35  C   UNL     1       0.732   7.547   4.655  0.00  0.00    +0.004 C 
ATOM     36  C   UNL     1       0.333   7.375   6.127  0.00  0.00    -0.014 C 
ATOM     37  C   UNL     1       1.604   7.360   6.984  0.00  0.00    -0.078 C 
ATOM     38  H   UNL     1       3.606   7.503   6.721  0.00  0.00    -0.082 HD
ENDBRANCH  28  30
ENDBRANCH   5  26
TORSDOF 4
