REMARK  Name = ZINC20149782
REMARK  2 active torsions:
REMARK  status: ('A' for Active; 'I' for Inactive)
REMARK    1  A    between atoms: C_10  and  C_12
REMARK    2  A    between atoms: N_18  and  C_21
REMARK                            x       y       z     vdW  Elec       q    Type
REMARK                         _______ _______ _______ _____ _____    ______ ____
ROOT
ATOM      1  C   UNL     1       4.680   0.027   0.880  0.00  0.00    +0.072 A 
ATOM      2  C   UNL     1       4.442   0.052   2.266  0.00  0.00    +0.260 A 
ATOM      3  N   UNL     1       5.305   0.695   3.077  0.00  0.00    -0.275 N 
ATOM      4  H   UNL     1       5.144   0.714   4.033  0.00  0.00    +0.173 HD
ATOM      5  C   UNL     1       6.389   1.310   2.570  0.00  0.00    +0.332 A 
ATOM      6  O   UNL     1       7.157   1.884   3.318  0.00  0.00    -0.246 OA
ATOM      7  N   UNL     1       6.637   1.298   1.248  0.00  0.00    -0.258 N 
ATOM      8  C   UNL     1       5.787   0.652   0.387  0.00  0.00    +0.262 A 
ATOM      9  O   UNL     1       6.041   0.638  -0.939  0.00  0.00    -0.267 OA
ATOM     10  O   UNL     1       3.461  -0.503   2.730  0.00  0.00    -0.267 OA
ENDROOT
BRANCH   1  20
ATOM     11  C   UNL     1      -0.017   1.376   0.010  0.00  0.00    +0.000 A 
ATOM     12  C   UNL     1       1.173   2.080   0.002  0.00  0.00    +0.000 A 
ATOM     13  C   UNL     1       2.375   1.401  -0.015  0.00  0.00    +0.002 A 
ATOM     14  C   UNL     1       2.395   0.014  -0.023  0.00  0.00    -0.054 A 
ATOM     15  C   UNL     1       1.208  -0.687  -0.013  0.00  0.00    -0.047 A 
ATOM     16  C   UNL     1       0.002  -0.004   0.002  0.00  0.00    +0.004 A 
ATOM     17  C   UNL     1       1.186  -2.194  -0.014  0.00  0.00    +0.016 C 
ATOM     18  C   UNL     1       2.554  -2.732  -0.434  0.00  0.00    -0.077 C 
ATOM     19  N   UNL     1       3.587  -2.079   0.386  0.00  0.00    +0.387 N 
ATOM     20  C   UNL     1       3.728  -0.686  -0.046  0.00  0.00    +0.001 C 
ATOM     21  H   UNL     1       3.313  -2.106   1.357  0.00  0.00    -0.085 HD
ATOM     22  H   UNL     1       4.466  -2.561   0.268  0.00  0.00    -0.085 HD
ENDBRANCH   1  20
BRANCH   7  23
ATOM     23  C   UNL     1       7.826   1.976   0.724  0.00  0.00    +0.095 C 
ATOM     24  C   UNL     1       9.080   1.357   1.344  0.00  0.00    +0.025 C 
ATOM     25  C   UNL     1      10.321   2.065   0.797  0.00  0.00    +0.002 C 
ATOM     26  C   UNL     1      10.258   3.552   1.151  0.00  0.00    +0.000 C 
ATOM     27  C   UNL     1       9.003   4.171   0.532  0.00  0.00    +0.002 C 
ATOM     28  C   UNL     1       7.762   3.463   1.078  0.00  0.00    +0.025 C 
ENDBRANCH   7  23
TORSDOF 2
