REMARK  Name = ZINC09348682
REMARK  5 active torsions:
REMARK  status: ('A' for Active; 'I' for Inactive)
REMARK    1  A    between atoms: C_2  and  C_3
REMARK    2  A    between atoms: C_3  and  N_4
REMARK    3  A    between atoms: C_11  and  N_31
REMARK    4  A    between atoms: C_21  and  C_22
REMARK    5  A    between atoms: C_21  and  N_63
REMARK                            x       y       z     vdW  Elec       q    Type
REMARK                         _______ _______ _______ _____ _____    ______ ____
ROOT
ATOM      1  N   UNL     1       5.855   0.989  -1.016  0.00  0.00    -0.221 N 
ATOM      2  C   UNL     1       4.935   1.234  -0.072  0.00  0.00    +0.240 C 
ATOM      3  O   UNL     1       5.160   0.898   1.071  0.00  0.00    -0.274 OA
ATOM      4  C   UNL     1       3.634   1.913  -0.390  0.00  0.00    +0.144 C 
ATOM      5  C   UNL     1       2.469   0.995  -0.007  0.00  0.00    +0.064 C 
ATOM      6  C   UNL     1       1.181   1.780   0.000  0.00  0.00    -0.023 A 
ATOM      7  C   UNL     1      -0.013   1.076   0.008  0.00  0.00    +0.038 A 
ATOM      8  C   UNL     1      -1.220   1.744   0.017  0.00  0.00    +0.127 A 
ATOM      9  C   UNL     1      -1.243   3.127   0.032  0.00  0.00    +0.034 A 
ATOM     10  C   UNL     1      -0.060   3.834   0.024  0.00  0.00    +0.025 A 
ATOM     11  C   UNL     1       1.165   3.164   0.005  0.00  0.00    +0.033 A 
ATOM     12  N   UNL     1       2.325   3.931  -0.013  0.00  0.00    -0.329 N 
ATOM     13  C   UNL     1       3.511   3.198   0.435  0.00  0.00    +0.081 C 
ATOM     14  C   UNL     1       4.755   4.064   0.226  0.00  0.00    -0.054 C 
ATOM     15  C   UNL     1       3.408   6.056   0.527  0.00  0.00    -0.059 C 
ATOM     16  C   UNL     1       2.165   5.186   0.733  0.00  0.00    +0.087 C 
ATOM     17  C   UNL     1       3.552   2.247  -1.853  0.00  0.00    +0.238 C 
ATOM     18  O   UNL     1       2.559   2.799  -2.276  0.00  0.00    -0.274 OA
ATOM     19  N   UNL     1       4.545   1.951  -2.703  0.00  0.00    -0.239 N 
ATOM     20  C   UNL     1       5.667   1.337  -2.297  0.00  0.00    +0.315 C 
ATOM     21  O   UNL     1       6.535   1.092  -3.111  0.00  0.00    -0.252 OA
ATOM     22  H   UNL     1       4.450   2.188  -3.639  0.00  0.00    +0.159 HD
ATOM     23  N   UNL     1       4.596   5.315   1.001  0.00  0.00    +0.385 N 
ATOM     24  H   UNL     1       4.468   5.079   1.992  0.00  0.00    -0.081 HD
ENDROOT
BRANCH   8  25
ATOM     25  N   UNL     1      -2.489   0.982   0.017  0.00  0.00    +0.056 N 
ATOM     26  O   UNL     1      -2.468  -0.235   0.008  0.00  0.00    -0.126 OA
ATOM     27  O   UNL     1      -3.554   1.573   0.025  0.00  0.00    -0.126 OA
ENDBRANCH   8  25
BRANCH   1  28
ATOM     28  C   UNL     1       7.102   0.320  -0.636  0.00  0.00    +0.144 C 
BRANCH  28  30
ATOM     29  C   UNL     1       7.761  -1.866  -1.500  0.00  0.00    +0.005 C 
ATOM     30  C   UNL     1       6.931  -1.172  -0.762  0.00  0.00    -0.015 C 
ENDBRANCH  28  30
ENDBRANCH   1  28
BRANCH  23  31
ATOM     31  C   UNL     1       5.804   6.154   0.859  0.00  0.00    -0.043 C 
BRANCH  31  32
ATOM     32  C   UNL     1       6.082   6.439  -0.594  0.00  0.00    -0.060 A 
ATOM     33  C   UNL     1       5.534   7.557  -1.195  0.00  0.00    +0.005 A 
ATOM     34  C   UNL     1       5.786   7.822  -2.528  0.00  0.00    +0.050 A 
ATOM     35  C   UNL     1       6.590   6.968  -3.265  0.00  0.00    +0.166 A 
ATOM     36  C   UNL     1       7.143   5.843  -2.660  0.00  0.00    +0.166 A 
ATOM     37  C   UNL     1       6.890   5.586  -1.322  0.00  0.00    +0.051 A 
ATOM     38  O   UNL     1       7.887   5.170  -3.586  0.00  0.00    -0.453 OA
ATOM     39  C   UNL     1       8.117   6.111  -4.651  0.00  0.00    +0.466 C 
ATOM     40  O   UNL     1       6.987   7.001  -4.571  0.00  0.00    -0.453 OA
ENDBRANCH  31  32
ENDBRANCH  23  31
TORSDOF 5
