REMARK  Name = ZINC06443708
REMARK  7 active torsions:
REMARK  status: ('A' for Active; 'I' for Inactive)
REMARK    1  A    between atoms: C_1  and  C_2
REMARK    2  A    between atoms: C_12  and  C_14
REMARK    3  A    between atoms: C_14  and  C_16
REMARK    4  A    between atoms: C_14  and  N_67
REMARK    5  A    between atoms: N_20  and  C_21
REMARK    6  A    between atoms: C_21  and  C_22
REMARK    7  A    between atoms: N_30  and  C_33
REMARK                            x       y       z     vdW  Elec       q    Type
REMARK                         _______ _______ _______ _____ _____    ______ ____
ROOT
ATOM      1  C   UNL     1       3.512   0.638  -0.029  0.00  0.00    +0.039 C 
ENDROOT
BRANCH   1  13
ATOM      2  C   UNL     1       7.101  -1.104  -5.252  0.00  0.00    +0.046 C 
ATOM      3  C   UNL     1       5.609  -1.011  -5.056  0.00  0.00    -0.026 A 
ATOM      4  C   UNL     1       4.754  -1.324  -6.090  0.00  0.00    +0.005 A 
ATOM      5  C   UNL     1       3.379  -1.242  -5.922  0.00  0.00    +0.001 A 
ATOM      6  C   UNL     1       2.847  -0.849  -4.727  0.00  0.00    +0.010 A 
ATOM      7  C   UNL     1       3.696  -0.527  -3.663  0.00  0.00    -0.001 A 
ATOM      8  C   UNL     1       5.091  -0.609  -3.829  0.00  0.00    +0.052 A 
ATOM      9  N   UNL     1       5.923  -0.289  -2.777  0.00  0.00    -0.322 N 
ATOM     10  H   UNL     1       6.884  -0.346  -2.894  0.00  0.00    +0.169 HD
ATOM     11  C   UNL     1       5.421   0.104  -1.594  0.00  0.00    +0.251 A 
ATOM     12  O   UNL     1       6.187   0.383  -0.687  0.00  0.00    -0.268 OA
ATOM     13  C   UNL     1       4.030   0.198  -1.373  0.00  0.00    +0.011 A 
ATOM     14  C   UNL     1       3.159  -0.102  -2.368  0.00  0.00    +0.017 A 
ENDBRANCH   1  13
BRANCH   1  20
ATOM     15  C   UNL     1       3.582  -1.675   0.685  0.00  0.00    -0.058 C 
ATOM     16  C   UNL     1       4.151  -2.624   1.742  0.00  0.00    +0.086 C 
ATOM     17  N   UNL     1       3.654  -2.232   3.068  0.00  0.00    -0.331 N 
ATOM     18  C   UNL     1       4.048  -0.853   3.389  0.00  0.00    +0.086 C 
ATOM     19  C   UNL     1       3.478   0.096   2.332  0.00  0.00    -0.058 C 
ATOM     20  N   UNL     1       4.004  -0.295   1.007  0.00  0.00    +0.391 N 
ATOM     21  H   UNL     1       5.030  -0.257   1.030  0.00  0.00    -0.080 HD
BRANCH  17  22
ATOM     22  C   UNL     1       4.096  -3.121   4.053  0.00  0.00    +0.065 A 
ATOM     23  C   UNL     1       5.452  -3.240   4.324  0.00  0.00    +0.026 A 
ATOM     24  C   UNL     1       5.886  -4.120   5.298  0.00  0.00    +0.002 A 
ATOM     25  C   UNL     1       4.972  -4.881   6.002  0.00  0.00    +0.003 A 
ATOM     26  C   UNL     1       3.620  -4.766   5.735  0.00  0.00    +0.040 A 
ATOM     27  C   UNL     1       3.178  -3.884   4.766  0.00  0.00    +0.144 A 
ATOM     28  F   UNL     1       1.856  -3.767   4.509  0.00  0.00    -0.204 F 
ENDBRANCH  17  22
ENDBRANCH   1  20
BRANCH   1  29
ATOM     29  C   UNL     1       2.005   0.653  -0.052  0.00  0.00    +0.143 A 
ATOM     30  N   UNL     1       1.211  -0.389  -0.012  0.00  0.00    -0.115 NA
ATOM     31  N   UNL     1      -0.005   0.035  -0.052  0.00  0.00    -0.023 NA
ATOM     32  N   UNL     1      -0.007   1.321  -0.116  0.00  0.00    -0.044 NA
ATOM     33  N   UNL     1       1.213   1.739  -0.118  0.00  0.00    -0.228 N 
BRANCH  33  34
ATOM     34  C   UNL     1       1.654   3.135  -0.181  0.00  0.00    +0.178 C 
BRANCH  34  35
ATOM     35  C   UNL     1       1.786   3.693   1.238  0.00  0.00    +0.140 C 
ATOM     36  C   UNL     1       2.304   5.152   1.196  0.00  0.00    +0.035 C 
ATOM     37  C   UNL     1       1.759   5.697   2.544  0.00  0.00    +0.031 C 
ATOM     38  C   UNL     1       0.421   4.941   2.687  0.00  0.00    +0.160 C 
ATOM     39  O   UNL     1       0.496   3.770   1.865  0.00  0.00    -0.375 OA
ENDBRANCH  34  35
ENDBRANCH  33  34
ENDBRANCH   1  29
TORSDOF 6
