REMARK  Name = ZINC08947577
REMARK  14 active torsions:
REMARK  status: ('A' for Active; 'I' for Inactive)
REMARK    1  A    between atoms: C_1  and  C_2
REMARK    2  A    between atoms: C_2  and  C_3
REMARK    3  A    between atoms: C_2  and  C_4
REMARK    4  A    between atoms: C_4  and  C_5
REMARK    5  A    between atoms: N_7  and  C_8
REMARK    6  A    between atoms: C_11  and  C_14
REMARK    7  A    between atoms: C_14  and  C_16
REMARK    8  A    between atoms: C_16  and  N_17
REMARK    9  A    between atoms: C_20  and  C_24
REMARK   10  A    between atoms: C_20  and  C_25
REMARK   11  A    between atoms: C_28  and  C_31
REMARK   12  A    between atoms: C_31  and  C_32
REMARK   13  A    between atoms: C_31  and  C_33
REMARK   14  A    between atoms: C_31  and  C_34
REMARK                            x       y       z     vdW  Elec       q    Type
REMARK                         _______ _______ _______ _____ _____    ______ ____
ROOT
ATOM      1  N   UNL     1      -0.557  -1.305   1.823  0.00  0.00    -0.216 N 
ATOM      2  C   UNL     1      -1.113  -0.607   0.814  0.00  0.00    +0.251 C 
ATOM      3  O   UNL     1      -2.295  -0.450   0.597  0.00  0.00    -0.272 OA
ATOM      4  C   UNL     1       0.047  -0.058   0.008  0.00  0.00    +0.135 C 
ATOM      5  N   UNL     1       1.234  -0.557   0.723  0.00  0.00    -0.281 N 
ATOM      6  C   UNL     1       0.780  -1.274   1.767  0.00  0.00    +0.310 C 
ATOM      7  O   UNL     1       1.503  -1.831   2.570  0.00  0.00    -0.252 OA
ATOM      8  C   UNL     1       0.015  -0.597  -1.424  0.00  0.00    +0.047 C 
ATOM      9  H   UNL     1       2.161  -0.400   0.488  0.00  0.00    +0.152 HD
ENDROOT
BRANCH   4  10
ATOM     10  C   UNL     1       0.024   1.449   0.005  0.00  0.00    -0.015 A 
ATOM     11  C   UNL     1      -1.183   2.122   0.003  0.00  0.00    +0.006 A 
ATOM     12  C   UNL     1      -1.204   3.505   0.005  0.00  0.00    +0.004 A 
ATOM     13  C   UNL     1      -0.017   4.214  -0.000  0.00  0.00    -0.042 A 
ATOM     14  C   UNL     1       1.190   3.540  -0.003  0.00  0.00    +0.004 A 
ATOM     15  C   UNL     1       1.211   2.158  -0.001  0.00  0.00    +0.006 A 
BRANCH  13  16
ATOM     16  C   UNL     1      -0.040   5.720  -0.003  0.00  0.00    -0.013 C 
ATOM     17  C   UNL     1       0.670   6.239  -1.256  0.00  0.00    +0.015 C 
ATOM     18  C   UNL     1      -1.490   6.209   0.001  0.00  0.00    +0.015 C 
ATOM     19  C   UNL     1       0.678   6.244   1.243  0.00  0.00    +0.015 C 
ENDBRANCH  13  16
ENDBRANCH   4  10
BRANCH   1  20
ATOM     20  C   UNL     1      -1.321  -2.011   2.855  0.00  0.00    +0.197 C 
BRANCH  20  21
ATOM     21  C   UNL     1      -1.576  -1.083   4.014  0.00  0.00    +0.181 C 
ATOM     22  O   UNL     1      -1.161   0.056   3.982  0.00  0.00    -0.290 OA
BRANCH  21  26
ATOM     23  C   UNL     1      -3.744  -2.451   7.386  0.00  0.00    +0.033 A 
ATOM     24  C   UNL     1      -3.268  -1.143   7.351  0.00  0.00    +0.024 A 
ATOM     25  C   UNL     1      -2.566  -0.696   6.262  0.00  0.00    +0.013 A 
ATOM     26  C   UNL     1      -2.328  -1.557   5.183  0.00  0.00    +0.019 A 
ATOM     27  C   UNL     1      -2.813  -2.870   5.220  0.00  0.00    +0.013 A 
ATOM     28  C   UNL     1      -3.510  -3.311   6.316  0.00  0.00    +0.024 A 
BRANCH  23  31
ATOM     29  C   UNL     1      -5.470  -3.776   8.335  0.00  0.00    +0.217 C 
ATOM     30  O   UNL     1      -5.709  -4.234   7.238  0.00  0.00    -0.275 OA
ATOM     31  N   UNL     1      -4.457  -2.902   8.495  0.00  0.00    -0.285 N 
ATOM     32  H   UNL     1      -4.223  -2.586   9.382  0.00  0.00    +0.155 HD
BRANCH  29  33
ATOM     33  C   UNL     1      -6.307  -4.184   9.521  0.00  0.00    +0.099 C 
BRANCH  33  35
ATOM     34  C   UNL     1      -8.150  -5.685  10.290  0.00  0.00    +0.008 C 
ATOM     35  C   UNL     1      -7.380  -5.176   9.069  0.00  0.00    -0.008 C 
ATOM     36  C   UNL     1      -8.348  -4.480   8.111  0.00  0.00    +0.008 C 
ENDBRANCH  33  35
ENDBRANCH  29  33
ENDBRANCH  23  31
ENDBRANCH  21  26
ENDBRANCH  20  21
ENDBRANCH   1  20
TORSDOF 8
