REMARK  Name = ZINC35671679
REMARK  13 active torsions:
REMARK  status: ('A' for Active; 'I' for Inactive)
REMARK    1  A    between atoms: C_1  and  C_2
REMARK    2  A    between atoms: C_5  and  C_8
REMARK    3  A    between atoms: N_10  and  C_11
REMARK    4  A    between atoms: N_10  and  C_16
REMARK    5  A    between atoms: C_11  and  C_12
REMARK    6  A    between atoms: C_12  and  N_13
REMARK    7  A    between atoms: N_13  and  C_14
REMARK    8  A    between atoms: N_13  and  C_15
REMARK    9  A    between atoms: C_16  and  C_17
REMARK   10  A    between atoms: C_17  and  N_19
REMARK   11  A    between atoms: C_22  and  C_32
REMARK   12  A    between atoms: N_24  and  C_25
REMARK   13  A    between atoms: C_28  and  C_31
REMARK                            x       y       z     vdW  Elec       q    Type
REMARK                         _______ _______ _______ _____ _____    ______ ____
ROOT
ATOM      1  N   UNL     1       1.797  -8.010   1.035  0.00  0.00    -0.145 NA
ATOM      2  C   UNL     1       3.081  -8.361   0.967  0.00  0.00    +0.205 A 
ATOM      3  N   UNL     1       4.139  -7.511   0.908  0.00  0.00    -0.326 N 
ATOM      4  C   UNL     1       5.297  -8.276   0.847  0.00  0.00    +0.066 A 
ATOM      5  C   UNL     1       4.938  -9.572   0.870  0.00  0.00    +0.120 A 
ATOM      6  N   UNL     1       3.562  -9.633   0.950  0.00  0.00    -0.287 N 
ATOM      7  H   UNL     1       4.093  -6.542   0.907  0.00  0.00    +0.169 HD
ENDROOT
BRANCH   6   8
ATOM      8  C   UNL     1       2.793 -10.803   1.002  0.00  0.00    +0.049 A 
ATOM      9  C   UNL     1       1.408 -10.723   1.073  0.00  0.00    +0.026 A 
ATOM     10  C   UNL     1       0.653 -11.878   1.124  0.00  0.00    +0.005 A 
ATOM     11  C   UNL     1       1.274 -13.113   1.105  0.00  0.00    -0.050 A 
ATOM     12  C   UNL     1       2.653 -13.196   1.035  0.00  0.00    +0.005 A 
ATOM     13  C   UNL     1       3.413 -12.045   0.977  0.00  0.00    +0.026 A 
ATOM     14  C   UNL     1       0.447 -14.372   1.161  0.00  0.00    +0.044 C 
ENDBRANCH   6   8
BRANCH   4  15
ATOM     15  C   UNL     1       6.681  -7.757   0.771  0.00  0.00    -0.000 A 
ATOM     16  C   UNL     1       7.758  -8.641   0.709  0.00  0.00    +0.010 A 
ATOM     17  C   UNL     1       9.046  -8.151   0.638  0.00  0.00    +0.001 A 
ATOM     18  C   UNL     1       9.270  -6.786   0.628  0.00  0.00    +0.000 A 
ATOM     19  C   UNL     1       8.206  -5.904   0.690  0.00  0.00    +0.001 A 
ATOM     20  C   UNL     1       6.913  -6.381   0.755  0.00  0.00    +0.010 A 
ENDBRANCH   4  15
BRANCH   1  21
ATOM     21  C   UNL     1       1.460  -6.726   1.044  0.00  0.00    +0.256 C 
ATOM     22  O   UNL     1       2.322  -5.870   0.989  0.00  0.00    -0.272 OA
BRANCH  21  23
ATOM     23  C   UNL     1       0.008  -6.328   1.121  0.00  0.00    +0.205 C 
BRANCH  23  26
ATOM     24  C   UNL     1      -0.388  -4.217  -0.029  0.00  0.00    +0.247 C 
ATOM     25  O   UNL     1      -0.363  -3.002  -0.061  0.00  0.00    -0.270 OA
ATOM     26  N   UNL     1      -0.100  -4.867   1.115  0.00  0.00    -0.290 N 
BRANCH  24  31
ATOM     27  C   UNL     1      -1.734  -7.191  -4.769  0.00  0.00    +0.044 C 
ATOM     28  C   UNL     1      -1.382  -6.412  -3.527  0.00  0.00    -0.050 A 
ATOM     29  C   UNL     1      -1.907  -5.146  -3.336  0.00  0.00    +0.004 A 
ATOM     30  C   UNL     1      -1.589  -4.428  -2.202  0.00  0.00    +0.013 A 
ATOM     31  C   UNL     1      -0.734  -4.981  -1.247  0.00  0.00    +0.037 A 
ATOM     32  C   UNL     1      -0.208  -6.258  -1.446  0.00  0.00    +0.013 A 
ATOM     33  C   UNL     1      -0.539  -6.968  -2.582  0.00  0.00    +0.004 A 
ENDBRANCH  24  31
BRANCH  26  34
ATOM     34  C   UNL     1       0.106  -4.113   2.354  0.00  0.00    +0.090 C 
BRANCH  34  35
ATOM     35  C   UNL     1      -1.206  -4.056   3.140  0.00  0.00    -0.060 C 
BRANCH  35  36
ATOM     36  N   UNL     1      -1.027  -3.214   4.330  0.00  0.00    +0.377 N 
ATOM     37  C   UNL     1      -0.795  -1.823   3.916  0.00  0.00    -0.097 C 
ATOM     38  C   UNL     1      -2.235  -3.281   5.164  0.00  0.00    -0.097 C 
ATOM     39  H   UNL     1      -0.234  -3.543   4.860  0.00  0.00    -0.083 HD
ENDBRANCH  35  36
ENDBRANCH  34  35
ENDBRANCH  26  34
ENDBRANCH  23  26
ENDBRANCH  21  23
ENDBRANCH   1  21
TORSDOF 9
