REMARK  Name = ZINC04103486
REMARK  11 active torsions:
REMARK  status: ('A' for Active; 'I' for Inactive)
REMARK    1  A    between atoms: C_1  and  C_2
REMARK    2  A    between atoms: C_12  and  C_14
REMARK    3  A    between atoms: C_14  and  N_15
REMARK    4  A    between atoms: N_15  and  C_16
REMARK    5  A    between atoms: N_15  and  C_22
REMARK    6  A    between atoms: C_16  and  C_17
REMARK    7  A    between atoms: C_22  and  C_24
REMARK    8  A    between atoms: C_22  and  C_34
REMARK    9  A    between atoms: N_28  and  C_29
REMARK   10  A    between atoms: C_34  and  C_35
REMARK   11  A    between atoms: C_34  and  C_36
REMARK                            x       y       z     vdW  Elec       q    Type
REMARK                         _______ _______ _______ _____ _____    ______ ____
ROOT
ATOM      1  N   UNL     1       2.246  -3.302   6.696  0.00  0.00    +0.392 N 
ATOM      2  H   UNL     1       3.016  -2.788   7.097  0.00  0.00    -0.080 HD
ENDROOT
BRANCH   1   3
ATOM      3  C   UNL     1       1.114  -2.392   6.472  0.00  0.00    -0.036 C 
BRANCH   3  15
ATOM      4  C   UNL     1      -1.178  -0.339  12.280  0.00  0.00    +0.046 C 
ATOM      5  C   UNL     1      -0.174   0.270  11.335  0.00  0.00    -0.026 A 
ATOM      6  C   UNL     1       0.435   1.466  11.648  0.00  0.00    +0.005 A 
ATOM      7  C   UNL     1       1.360   2.037  10.786  0.00  0.00    +0.001 A 
ATOM      8  C   UNL     1       1.685   1.423   9.609  0.00  0.00    +0.010 A 
ATOM      9  C   UNL     1       1.080   0.209   9.270  0.00  0.00    -0.001 A 
ATOM     10  C   UNL     1       0.145  -0.376  10.145  0.00  0.00    +0.052 A 
ATOM     11  N   UNL     1      -0.445  -1.576   9.809  0.00  0.00    -0.322 N 
ATOM     12  H   UNL     1      -1.092  -1.976  10.411  0.00  0.00    +0.169 HD
ATOM     13  C   UNL     1      -0.136  -2.200   8.658  0.00  0.00    +0.251 A 
ATOM     14  O   UNL     1      -0.678  -3.259   8.393  0.00  0.00    -0.268 OA
ATOM     15  C   UNL     1       0.799  -1.659   7.750  0.00  0.00    +0.001 A 
ATOM     16  C   UNL     1       1.405  -0.476   8.018  0.00  0.00    +0.017 A 
ENDBRANCH   3  15
ENDBRANCH   1   3
BRANCH   1  17
ATOM     17  C   UNL     1       2.663  -3.889   5.415  0.00  0.00    -0.034 C 
BRANCH  17  18
ATOM     18  C   UNL     1       3.362  -2.842   4.586  0.00  0.00    -0.027 A 
ATOM     19  C   UNL     1       4.686  -2.565   4.501  0.00  0.00    +0.009 A 
ATOM     20  C   UNL     1       5.105  -1.548   3.664  0.00  0.00    +0.008 A 
ATOM     21  C   UNL     1       4.180  -0.858   2.954  0.00  0.00    +0.045 A 
ATOM     22  S   UNL     1       2.661  -1.651   3.457  0.00  0.00    -0.103 S 
ENDBRANCH  17  18
ENDBRANCH   1  17
BRANCH   1  23
ATOM     23  C   UNL     1       1.839  -4.372   7.616  0.00  0.00    +0.006 C 
BRANCH  23  24
ATOM     24  C   UNL     1       3.062  -4.978   8.254  0.00  0.00    +0.139 A 
ATOM     25  N   UNL     1       4.176  -5.312   7.649  0.00  0.00    -0.115 NA
ATOM     26  N   UNL     1       4.979  -5.795   8.533  0.00  0.00    -0.023 NA
ATOM     27  N   UNL     1       4.407  -5.778   9.686  0.00  0.00    -0.044 NA
ATOM     28  N   UNL     1       3.226  -5.276   9.556  0.00  0.00    -0.228 N 
BRANCH  28  29
ATOM     29  C   UNL     1       2.245  -5.072  10.625  0.00  0.00    +0.111 C 
ATOM     30  C   UNL     1       2.846  -4.181  11.731  0.00  0.00    +0.027 C 
ATOM     31  C   UNL     1       2.280  -4.773  13.046  0.00  0.00    +0.002 C 
ATOM     32  C   UNL     1       2.300  -6.297  12.770  0.00  0.00    +0.002 C 
ATOM     33  C   UNL     1       1.897  -6.418  11.285  0.00  0.00    +0.027 C 
ENDBRANCH  28  29
ENDBRANCH  23  24
BRANCH  23  34
ATOM     34  C   UNL     1       1.081  -5.451   6.840  0.00  0.00    -0.024 C 
ATOM     35  C   UNL     1      -0.018  -4.798   6.000  0.00  0.00    +0.006 C 
ATOM     36  C   UNL     1       2.051  -6.195   5.920  0.00  0.00    +0.006 C 
ENDBRANCH  23  34
ENDBRANCH   1  23
TORSDOF 8
