REMARK  Name = ZINC63573070
REMARK  8 active torsions:
REMARK  status: ('A' for Active; 'I' for Inactive)
REMARK    1  A    between atoms: C_1  and  C_2
REMARK    2  A    between atoms: C_5  and  N_9
REMARK    3  A    between atoms: C_6  and  C_8
REMARK    4  A    between atoms: C_18  and  O_35
REMARK    5  A    between atoms: C_25  and  C_27
REMARK    6  A    between atoms: C_30  and  O_33
REMARK    7  A    between atoms: O_33  and  C_34
REMARK    8  A    between atoms: O_35  and  C_36
REMARK                            x       y       z     vdW  Elec       q    Type
REMARK                         _______ _______ _______ _____ _____    ______ ____
ROOT
ATOM      1  N   UNL     1       1.829  -4.659  -0.309  0.00  0.00    -0.269 N 
ATOM      2  C   UNL     1       1.125  -5.135  -1.355  0.00  0.00    +0.307 C 
ATOM      3  O   UNL     1       1.010  -4.468  -2.365  0.00  0.00    -0.252 OA
ATOM      4  N   UNL     1       0.547  -6.351  -1.280  0.00  0.00    -0.276 N 
ATOM      5  C   UNL     1       0.585  -7.096  -0.018  0.00  0.00    +0.114 C 
ATOM      6  C   UNL     1      -0.853  -7.415   0.432  0.00  0.00    +0.052 C 
ATOM      7  C   UNL     1      -1.585  -7.922  -0.786  0.00  0.00    -0.035 C 
ATOM      8  C   UNL     1      -2.302  -9.020  -0.985  0.00  0.00    +0.003 A 
ATOM      9  C   UNL     1      -2.737 -10.089  -0.073  0.00  0.00    +0.055 A 
ATOM     10  C   UNL     1      -3.461 -11.103  -0.621  0.00  0.00    +0.121 A 
ATOM     11  C   UNL     1      -3.803 -11.177  -1.980  0.00  0.00    +0.047 A 
ATOM     12  C   UNL     1      -3.461 -10.245  -2.905  0.00  0.00    +0.029 A 
ATOM     13  C   UNL     1      -2.682  -9.092  -2.430  0.00  0.00    +0.043 A 
ATOM     14  N   UNL     1      -2.241  -8.052  -3.070  0.00  0.00    -0.375 N 
ATOM     15  C   UNL     1      -1.584  -7.165  -2.109  0.00  0.00    +0.131 C 
ATOM     16  C   UNL     1      -0.120  -6.913  -2.465  0.00  0.00    +0.134 C 
ATOM     17  H   UNL     1       1.981  -5.218   0.469  0.00  0.00    +0.156 HD
ATOM     18  H   UNL     1      -2.331  -7.891  -4.022  0.00  0.00    +0.160 HD
ENDROOT
BRANCH   1  23
ATOM     19  C   UNL     1       3.906   0.619  -0.458  0.00  0.00    +0.044 C 
ATOM     20  C   UNL     1       3.354  -0.783  -0.418  0.00  0.00    -0.050 A 
ATOM     21  C   UNL     1       3.184  -1.491  -1.594  0.00  0.00    +0.005 A 
ATOM     22  C   UNL     1       2.679  -2.776  -1.561  0.00  0.00    +0.024 A 
ATOM     23  C   UNL     1       2.342  -3.357  -0.346  0.00  0.00    +0.038 A 
ATOM     24  C   UNL     1       2.514  -2.644   0.833  0.00  0.00    -0.029 A 
ATOM     25  C   UNL     1       3.025  -1.361   0.794  0.00  0.00    +0.008 A 
ATOM     26  C   UNL     1       2.148  -3.270   2.154  0.00  0.00    +0.045 C 
ENDBRANCH   1  23
BRANCH  16  27
ATOM     27  C   UNL     1      -0.037  -5.937  -3.610  0.00  0.00    -0.024 A 
ATOM     28  C   UNL     1      -0.826  -4.801  -3.607  0.00  0.00    +0.009 A 
ATOM     29  C   UNL     1      -0.751  -3.905  -4.656  0.00  0.00    +0.046 A 
ATOM     30  C   UNL     1       0.116  -4.144  -5.711  0.00  0.00    +0.120 A 
ATOM     31  C   UNL     1       0.907  -5.284  -5.711  0.00  0.00    +0.046 A 
ATOM     32  C   UNL     1       0.833  -6.175  -4.658  0.00  0.00    +0.009 A 
BRANCH  30  33
ATOM     33  O   UNL     1       0.191  -3.264  -6.744  0.00  0.00    -0.495 OA
ATOM     34  C   UNL     1       1.106  -3.575  -7.797  0.00  0.00    +0.277 C 
ENDBRANCH  30  33
ENDBRANCH  16  27
BRANCH  10  35
ATOM     35  O   UNL     1      -3.877 -12.105   0.197  0.00  0.00    -0.495 OA
ATOM     36  C   UNL     1      -4.636 -13.158  -0.401  0.00  0.00    +0.277 C 
ENDBRANCH  10  35
TORSDOF 4
