REMARK  Name = ZINC64178520
REMARK  7 active torsions:
REMARK  status: ('A' for Active; 'I' for Inactive)
REMARK    1  A    between atoms: C_4  and  C_7
REMARK    2  A    between atoms: C_9  and  C_17
REMARK    3  A    between atoms: C_17  and  C_19
REMARK    4  A    between atoms: C_19  and  S_20
REMARK    5  A    between atoms: S_20  and  C_21
REMARK    6  A    between atoms: N_26  and  C_27
REMARK    7  A    between atoms: C_27  and  C_28
REMARK                            x       y       z     vdW  Elec       q    Type
REMARK                         _______ _______ _______ _____ _____    ______ ____
ROOT
ATOM      1  C   UNL     1       3.711  -0.707  -0.038  0.00  0.00    +0.144 C 
ATOM      2  C   UNL     1       4.049  -1.204   1.351  0.00  0.00    +0.031 C 
ATOM      3  C   UNL     1       4.122  -2.581   1.246  0.00  0.00    +0.007 A 
ATOM      4  C   UNL     1       4.398  -3.604   2.183  0.00  0.00    +0.010 A 
ATOM      5  C   UNL     1       4.405  -4.899   1.795  0.00  0.00    +0.001 A 
ATOM      6  C   UNL     1       4.143  -5.291   0.472  0.00  0.00    +0.002 A 
ATOM      7  C   UNL     1       3.868  -4.394  -0.498  0.00  0.00    +0.026 A 
ATOM      8  C   UNL     1       3.841  -2.961  -0.161  0.00  0.00    +0.044 A 
ATOM      9  N   UNL     1       3.611  -1.900  -0.884  0.00  0.00    -0.373 N 
ATOM     10  H   UNL     1       3.405  -1.900  -1.831  0.00  0.00    +0.161 HD
ENDROOT
BRANCH   1  14
ATOM     11  C   UNL     1      -0.017   1.378   0.010  0.00  0.00    +0.000 A 
ATOM     12  C   UNL     1       1.171   2.086   0.002  0.00  0.00    +0.000 A 
ATOM     13  C   UNL     1       2.377   1.411  -0.013  0.00  0.00    +0.006 A 
ATOM     14  C   UNL     1       2.396   0.029  -0.020  0.00  0.00    -0.021 A 
ATOM     15  C   UNL     1       1.208  -0.679  -0.012  0.00  0.00    +0.006 A 
ATOM     16  C   UNL     1       0.002  -0.004   0.002  0.00  0.00    +0.000 A 
ENDBRANCH   1  14
BRANCH   2  17
ATOM     17  C   UNL     1       4.247  -0.425   2.511  0.00  0.00    +0.172 C 
ATOM     18  O   UNL     1       4.150   0.784   2.454  0.00  0.00    -0.291 OA
BRANCH  17  19
ATOM     19  C   UNL     1       4.579  -1.093   3.820  0.00  0.00    +0.152 C 
BRANCH  19  20
ATOM     20  S   UNL     1       4.772   0.166   5.111  0.00  0.00    -0.109 S 
BRANCH  20  21
ATOM     21  C   UNL     1       5.164  -0.790   6.602  0.00  0.00    +0.255 C 
ATOM     22  N   UNL     1       4.117  -1.794   6.868  0.00  0.00    -0.218 N 
ATOM     23  N   UNL     1       4.754  -3.039   6.795  0.00  0.00    -0.063 NA
ATOM     24  N   UNL     1       5.951  -2.944   6.541  0.00  0.00    -0.060 NA
ATOM     25  N   UNL     1       6.370  -1.613   6.393  0.00  0.00    -0.198 N 
ATOM     26  H   UNL     1       3.180  -1.627   7.056  0.00  0.00    +0.173 HD
BRANCH  25  27
ATOM     27  C   UNL     1       7.722  -1.137   6.090  0.00  0.00    +0.204 C 
BRANCH  27  28
ATOM     28  C   UNL     1       8.473  -0.906   7.376  0.00  0.00    +0.124 A 
ATOM     29  C   UNL     1       9.227  -1.815   8.021  0.00  0.00    +0.046 A 
ATOM     30  C   UNL     1       9.741  -1.178   9.174  0.00  0.00    +0.041 A 
ATOM     31  C   UNL     1       9.270   0.083   9.164  0.00  0.00    +0.195 A 
ATOM     32  O   UNL     1       8.508   0.243   8.070  0.00  0.00    -0.466 OA
ENDBRANCH  27  28
ENDBRANCH  25  27
ENDBRANCH  20  21
ENDBRANCH  19  20
ENDBRANCH  17  19
ENDBRANCH   2  17
TORSDOF 7
