REMARK  Name = ZINC41648986
REMARK  6 active torsions:
REMARK  status: ('A' for Active; 'I' for Inactive)
REMARK    1  A    between atoms: C_1  and  C_2
REMARK    2  A    between atoms: C_2  and  C_4
REMARK    3  A    between atoms: C_2  and  N_12
REMARK    4  A    between atoms: N_12  and  C_13
REMARK    5  A    between atoms: C_13  and  C_15
REMARK    6  A    between atoms: C_13  and  C_16
REMARK                            x       y       z     vdW  Elec       q    Type
REMARK                         _______ _______ _______ _____ _____    ______ ____
ROOT
ATOM      1  N   UNL     1      -1.370  -0.512   0.133  0.00  0.00    +0.388 N 
ATOM      2  H   UNL     1      -1.977  -0.257  -0.632  0.00  0.00    -0.084 HD
ATOM      3  H   UNL     1      -1.271  -1.516   0.164  0.00  0.00    -0.084 HD
ENDROOT
BRANCH   1   5
ATOM      4  C   UNL     1      -0.216   1.612  -0.260  0.00  0.00    -0.009 C 
ATOM      5  C   UNL     1      -0.051   0.104  -0.063  0.00  0.00    -0.042 C 
BRANCH   5   6
ATOM      6  C   UNL     1       0.607  -0.493  -1.280  0.00  0.00    -0.048 A 
ATOM      7  C   UNL     1      -0.168  -1.038  -2.287  0.00  0.00    +0.004 A 
ATOM      8  C   UNL     1       0.435  -1.585  -3.404  0.00  0.00    +0.015 A 
ATOM      9  C   UNL     1       1.814  -1.587  -3.515  0.00  0.00    +0.019 A 
ATOM     10  C   UNL     1       2.589  -1.042  -2.508  0.00  0.00    +0.030 A 
ATOM     11  C   UNL     1       1.986  -0.490  -1.393  0.00  0.00    +0.021 A 
ATOM     12 BR   UNL     1       3.045   0.262  -0.019  0.00  0.00    -0.050 Br
ATOM     13 BR   UNL     1       2.638  -2.336  -5.043  0.00  0.00    -0.050 Br
ENDBRANCH   5   6
ENDBRANCH   1   5
BRANCH   1  14
ATOM     14  C   UNL     1      -1.950  -0.038   1.397  0.00  0.00    -0.036 C 
ATOM     15  C   UNL     1      -3.378  -0.568   1.533  0.00  0.00    -0.008 C 
BRANCH  14  16
ATOM     16  C   UNL     1      -1.117  -0.536   2.549  0.00  0.00    -0.023 A 
ATOM     17  C   UNL     1      -0.763   0.108   3.688  0.00  0.00    +0.011 A 
ATOM     18  C   UNL     1       0.016  -0.554   4.619  0.00  0.00    +0.028 A 
ATOM     19  C   UNL     1       0.404  -1.828   4.364  0.00  0.00    +0.078 A 
ATOM     20  S   UNL     1      -0.346  -2.131   2.772  0.00  0.00    -0.083 S 
ATOM     21 CL   UNL     1       1.373  -2.891   5.336  0.00  0.00    -0.076 Cl
ENDBRANCH  14  16
ENDBRANCH   1  14
TORSDOF 4
