REMARK  Name = ZINC42609512
REMARK  6 active torsions:
REMARK  status: ('A' for Active; 'I' for Inactive)
REMARK    1  A    between atoms: C_1  and  C_2
REMARK    2  A    between atoms: C_8  and  N_10
REMARK    3  A    between atoms: N_10  and  C_11
REMARK    4  A    between atoms: N_10  and  C_12
REMARK    5  A    between atoms: C_13  and  C_21
REMARK    6  A    between atoms: C_21  and  N_22
REMARK                            x       y       z     vdW  Elec       q    Type
REMARK                         _______ _______ _______ _____ _____    ______ ____
ROOT
ATOM      1  C   UNL     1       0.896   0.149   3.091  0.00  0.00    +0.142 A 
ATOM      2  C   UNL     1       0.442   0.533   4.311  0.00  0.00    +0.048 A 
ATOM      3  N   UNL     1       1.434   1.280   4.893  0.00  0.00    -0.304 N 
ATOM      4  C   UNL     1       1.525   1.911   6.099  0.00  0.00    +0.093 A 
ATOM      5  C   UNL     1       2.639   2.595   6.435  0.00  0.00    +0.018 A 
ATOM      6  C   UNL     1       3.722   2.666   5.544  0.00  0.00    +0.005 A 
ATOM      7  C   UNL     1       3.644   2.041   4.337  0.00  0.00    +0.047 A 
ATOM      8  C   UNL     1       2.474   1.331   4.002  0.00  0.00    +0.140 A 
ATOM      9  N   UNL     1       2.130   0.638   2.924  0.00  0.00    -0.213 NA
ENDROOT
BRANCH   1  10
ATOM     10  N   UNL     1       0.193  -0.632   2.164  0.00  0.00    -0.314 N 
ATOM     11  C   UNL     1      -1.203  -0.994   2.421  0.00  0.00    +0.131 C 
BRANCH  10  18
ATOM     12  C   UNL     1       0.101   0.985  -0.237  0.00  0.00    +0.009 C 
ATOM     13  C   UNL     1       0.102  -0.544  -0.278  0.00  0.00    +0.006 C 
ATOM     14  C   UNL     1       0.792  -1.019  -1.558  0.00  0.00    +0.005 C 
ATOM     15  C   UNL     1       0.793  -2.549  -1.599  0.00  0.00    +0.000 C 
ATOM     16  C   UNL     1       1.546  -3.091  -0.383  0.00  0.00    +0.002 C 
ATOM     17  C   UNL     1       0.855  -2.616   0.898  0.00  0.00    +0.023 C 
ATOM     18  C   UNL     1       0.854  -1.087   0.939  0.00  0.00    +0.077 C 
ENDBRANCH  10  18
ENDBRANCH   1  10
BRANCH   2  19
ATOM     19  C   UNL     1      -0.899   0.201   4.913  0.00  0.00    -0.028 C 
BRANCH  19  20
ATOM     20  N   UNL     1      -1.849   1.282   4.620  0.00  0.00    +0.382 N 
ATOM     21  H   UNL     1      -1.944   1.384   3.621  0.00  0.00    -0.090 HD
ATOM     22  H   UNL     1      -2.747   1.060   5.023  0.00  0.00    -0.090 HD
ATOM     23  H   UNL     1      -1.508   2.146   5.015  0.00  0.00    -0.090 HD
ENDBRANCH  19  20
ENDBRANCH   2  19
TORSDOF 4
