REMARK  Name = ZINC01865796
REMARK  7 active torsions:
REMARK  status: ('A' for Active; 'I' for Inactive)
REMARK    1  A    between atoms: C_1  and  C_2
REMARK    2  A    between atoms: C_2  and  C_3
REMARK    3  A    between atoms: C_3  and  C_4
REMARK    4  A    between atoms: C_4  and  S_5
REMARK    5  A    between atoms: S_5  and  C_6
REMARK    6  A    between atoms: C_28  and  C_30
REMARK    7  A    between atoms: C_28  and  C_31
REMARK                            x       y       z     vdW  Elec       q    Type
REMARK                         _______ _______ _______ _____ _____    ______ ____
ROOT
ATOM      1  C   UNL     1      -1.002   3.584   0.054  0.00  0.00    +0.170 A 
ATOM      2  N   UNL     1       0.201   4.223  -0.020  0.00  0.00    -0.301 N 
ATOM      3  H   UNL     1       0.242   5.193  -0.025  0.00  0.00    +0.171 HD
ATOM      4  C   UNL     1       1.336   3.489  -0.087  0.00  0.00    +0.267 A 
ATOM      5  O   UNL     1       2.428   4.029  -0.154  0.00  0.00    -0.267 OA
ATOM      6  C   UNL     1       1.225   2.097  -0.077  0.00  0.00    +0.104 A 
ATOM      7  C   UNL     1      -0.018   1.469  -0.001  0.00  0.00    +0.096 A 
ATOM      8  N   UNL     1      -1.109   2.281   0.069  0.00  0.00    -0.222 NA
ATOM      9  C   UNL     1       0.002  -0.004   0.001  0.00  0.00    +0.036 A 
ATOM     10  C   UNL     1      -1.110  -0.882   0.070  0.00  0.00    -0.024 A 
ATOM     11  C   UNL     1      -0.904  -2.225   0.059  0.00  0.00    +0.020 A 
ATOM     12  C   UNL     1       0.400  -2.730  -0.014  0.00  0.00    +0.105 A 
ATOM     13  C   UNL     1       1.272  -0.603  -0.072  0.00  0.00    +0.089 A 
ATOM     14  S   UNL     1       2.397   0.769  -0.144  0.00  0.00    -0.064 S 
ATOM     15  N   UNL     1       0.606  -4.102  -0.020  0.00  0.00    -0.312 N 
ATOM     16  C   UNL     1       1.399  -4.521   1.145  0.00  0.00    +0.134 C 
ATOM     17  C   UNL     1       1.552  -6.044   1.131  0.00  0.00    +0.178 C 
ATOM     18  O   UNL     1       2.151  -6.447  -0.104  0.00  0.00    -0.377 OA
ATOM     19  C   UNL     1       1.404  -6.056  -1.260  0.00  0.00    +0.178 C 
ATOM     20  C   UNL     1       1.250  -4.533  -1.270  0.00  0.00    +0.134 C 
ATOM     21  C   UNL     1      -2.054  -3.197   0.122  0.00  0.00    +0.199 C 
ATOM     22  O   UNL     1      -3.240  -2.533   0.560  0.00  0.00    -0.369 OA
ATOM     23  C   UNL     1      -3.533  -1.349  -0.192  0.00  0.00    +0.068 C 
ATOM     24  C   UNL     1      -2.489  -0.286   0.156  0.00  0.00    +0.070 C 
ATOM     25  C   UNL     1      -4.929  -0.840   0.174  0.00  0.00    +0.041 C 
ATOM     26  C   UNL     1      -3.473  -1.661  -1.688  0.00  0.00    +0.041 C 
ATOM     27  N   UNL     1       1.506  -1.939  -0.080  0.00  0.00    -0.337 N 
ATOM     28  H   UNL     1       2.455  -2.328  -0.133  0.00  0.00    +0.168 HD
ENDROOT
BRANCH   1  29
ATOM     29  S   UNL     1      -2.471   4.554   0.141  0.00  0.00    -0.088 S 
BRANCH  29  30
ATOM     30  C   UNL     1      -3.712   3.238   0.219  0.00  0.00    +0.077 C 
BRANCH  30  31
ATOM     31  C   UNL     1      -5.108   3.858   0.302  0.00  0.00    +0.011 C 
BRANCH  31  33
ATOM     32  C   UNL     1      -7.553   3.367   0.452  0.00  0.00    +0.004 C 
ATOM     33  C   UNL     1      -6.157   2.747   0.368  0.00  0.00    -0.003 C 
ENDBRANCH  31  33
ENDBRANCH  30  31
ENDBRANCH  29  30
ENDBRANCH   1  29
TORSDOF 4
