REMARK  Name = ZINC35668764
REMARK  3 active torsions:
REMARK  status: ('A' for Active; 'I' for Inactive)
REMARK    1  A    between atoms: C_3  and  O_23
REMARK    2  A    between atoms: C_4  and  C_8
REMARK    3  A    between atoms: C_20  and  O_22
REMARK                            x       y       z     vdW  Elec       q    Type
REMARK                         _______ _______ _______ _____ _____    ______ ____
ROOT
ATOM      1  C   UNL     1       3.711  -0.716  -0.038  0.00  0.00    +0.227 C 
ATOM      2  N   UNL     1       3.512  -2.065   0.523  0.00  0.00    -0.313 N 
ATOM      3  C   UNL     1       3.546  -2.165   1.896  0.00  0.00    +0.080 A 
ATOM      4  C   UNL     1       4.231  -1.237   2.689  0.00  0.00    +0.068 A 
ATOM      5  C   UNL     1       4.167  -1.466   4.121  0.00  0.00    -0.023 A 
ATOM      6  C   UNL     1       3.454  -2.557   4.484  0.00  0.00    -0.005 A 
ATOM      7  S   UNL     1       2.886  -3.255   2.957  0.00  0.00    -0.078 S 
ATOM      8  C   UNL     1       3.211  -3.051   5.876  0.00  0.00    +0.043 C 
ATOM      9  C   UNL     1       4.200  -2.350   6.818  0.00  0.00    +0.005 C 
ATOM     10  C   UNL     1       4.185  -0.848   6.523  0.00  0.00    +0.005 C 
ATOM     11  C   UNL     1       4.831  -0.577   5.163  0.00  0.00    +0.037 C 
ATOM     12  C   UNL     1       4.947  -0.137   1.993  0.00  0.00    +0.220 C 
ATOM     13  N   UNL     1       4.692   0.043   0.726  0.00  0.00    -0.223 NA
ATOM     14  H   UNL     1       3.365  -2.838  -0.043  0.00  0.00    +0.149 HD
ENDROOT
BRANCH   1  18
ATOM     15  C   UNL     1      -0.017   1.379   0.010  0.00  0.00    +0.019 A 
ATOM     16  C   UNL     1       1.170   2.087   0.002  0.00  0.00    +0.047 A 
ATOM     17  C   UNL     1       2.380   1.410  -0.013  0.00  0.00    +0.124 A 
ATOM     18  C   UNL     1       2.397   0.022  -0.021  0.00  0.00    +0.037 A 
ATOM     19  C   UNL     1       1.208  -0.681  -0.013  0.00  0.00    +0.026 A 
ATOM     20  C   UNL     1       0.002  -0.004   0.002  0.00  0.00    +0.018 A 
ATOM     21 BR   UNL     1      -1.623  -0.971   0.012  0.00  0.00    -0.050 Br
BRANCH  17  22
ATOM     22  O   UNL     1       3.548   2.104  -0.021  0.00  0.00    -0.506 OA
ATOM     23  H   UNL     1       3.895   2.301   0.860  0.00  0.00    +0.292 HD
ENDBRANCH  17  22
ENDBRANCH   1  18
BRANCH  12  24
ATOM     24  O   UNL     1       5.831   0.649   2.649  0.00  0.00    -0.492 OA
ATOM     25  H   UNL     1       6.236   1.331   2.097  0.00  0.00    +0.294 HD
ENDBRANCH  12  24
TORSDOF 3
