REMARK  Name = ZINC43589540
REMARK  8 active torsions:
REMARK  status: ('A' for Active; 'I' for Inactive)
REMARK    1  A    between atoms: C_1  and  C_2
REMARK    2  A    between atoms: C_2  and  C_4
REMARK    3  A    between atoms: C_2  and  N_14
REMARK    4  A    between atoms: N_6  and  C_7
REMARK    5  A    between atoms: C_7  and  C_8
REMARK    6  A    between atoms: C_15  and  C_17
REMARK    7  A    between atoms: C_19  and  C_32
REMARK    8  A    between atoms: C_19  and  C_33
REMARK                            x       y       z     vdW  Elec       q    Type
REMARK                         _______ _______ _______ _____ _____    ______ ____
ROOT
ATOM      1  N   UNL     1      -1.372  -0.511   0.012  0.00  0.00    -0.303 N 
ATOM      2  C   UNL     1      -2.051  -0.643  -1.145  0.00  0.00    +0.236 C 
ATOM      3  O   UNL     1      -1.524  -0.341  -2.194  0.00  0.00    -0.274 OA
ATOM      4  H   UNL     1      -1.794  -0.752   0.852  0.00  0.00    +0.149 HD
ENDROOT
BRANCH   2   5
ATOM      5  C   UNL     1      -3.465  -1.164  -1.134  0.00  0.00    +0.179 C 
ATOM      6  C   UNL     1      -4.409  -0.028  -0.675  0.00  0.00    +0.040 C 
ATOM      7  S   UNL     1      -5.388   0.281  -2.208  0.00  0.00    -0.125 S 
ATOM      8  C   UNL     1      -4.265  -0.604  -3.371  0.00  0.00    +0.167 C 
ATOM      9  N   UNL     1      -3.783  -1.683  -2.465  0.00  0.00    -0.269 N 
ATOM     10  C   UNL     1      -3.822  -2.817  -3.197  0.00  0.00    +0.249 C 
ATOM     11  O   UNL     1      -3.175  -3.821  -2.968  0.00  0.00    -0.270 OA
ATOM     12  C   UNL     1      -4.770  -2.653  -4.316  0.00  0.00    +0.043 A 
ATOM     13  C   UNL     1      -5.061  -1.282  -4.448  0.00  0.00    -0.005 A 
ATOM     14  C   UNL     1      -5.927  -0.833  -5.418  0.00  0.00    +0.007 A 
ATOM     15  C   UNL     1      -6.508  -1.729  -6.299  0.00  0.00    +0.000 A 
ATOM     16  C   UNL     1      -6.218  -3.079  -6.209  0.00  0.00    +0.001 A 
ATOM     17  C   UNL     1      -5.345  -3.558  -5.208  0.00  0.00    +0.013 A 
ATOM     18  C   UNL     1      -5.312  -0.494   0.469  0.00  0.00    +0.025 C 
ATOM     19  C   UNL     1      -3.614   1.216  -0.271  0.00  0.00    +0.025 C 
ENDBRANCH   2   5
BRANCH   1  21
ATOM     20  C   UNL     1      -0.019   1.526   0.010  0.00  0.00    +0.038 C 
ATOM     21  C   UNL     1       0.002  -0.004   0.002  0.00  0.00    +0.156 C 
BRANCH  21  22
ATOM     22  C   UNL     1       0.731  -0.503   1.223  0.00  0.00    +0.233 C 
ATOM     23  O   UNL     1       0.159  -1.213   2.023  0.00  0.00    -0.274 OA
ATOM     24  N   UNL     1       2.019  -0.161   1.426  0.00  0.00    -0.310 N 
ATOM     25  H   UNL     1       2.476   0.406   0.786  0.00  0.00    +0.149 HD
BRANCH  24  26
ATOM     26  C   UNL     1       2.727  -0.647   2.613  0.00  0.00    +0.139 C 
BRANCH  26  27
ATOM     27  C   UNL     1       4.141  -0.125   2.602  0.00  0.00    -0.027 A 
ATOM     28  C   UNL     1       5.157  -0.841   1.988  0.00  0.00    +0.025 A 
ATOM     29  C   UNL     1       6.442  -0.331   1.998  0.00  0.00    +0.111 A 
ATOM     30  N   UNL     1       6.705   0.821   2.583  0.00  0.00    -0.263 NA
ATOM     31  C   UNL     1       5.764   1.529   3.176  0.00  0.00    +0.111 A 
ATOM     32  C   UNL     1       4.456   1.085   3.201  0.00  0.00    +0.025 A 
ENDBRANCH  26  27
ENDBRANCH  24  26
ENDBRANCH  21  22
ENDBRANCH   1  21
TORSDOF 5
