REMARK  Name = ZINC03007177
REMARK  12 active torsions:
REMARK  status: ('A' for Active; 'I' for Inactive)
REMARK    1  A    between atoms: C_1  and  C_2
REMARK    2  A    between atoms: C_2  and  N_3
REMARK    3  A    between atoms: N_3  and  C_4
REMARK    4  A    between atoms: N_3  and  S_6
REMARK    5  A    between atoms: C_4  and  C_5
REMARK    6  A    between atoms: S_6  and  C_9
REMARK    7  A    between atoms: C_12  and  C_15
REMARK    8  A    between atoms: N_17  and  C_18
REMARK    9  A    between atoms: C_19  and  C_29
REMARK   10  A    between atoms: C_26  and  C_27
REMARK   11  A    between atoms: C_26  and  C_28
REMARK   12  A    between atoms: C_26  and  N_62
REMARK                            x       y       z     vdW  Elec       q    Type
REMARK                         _______ _______ _______ _____ _____    ______ ____
ROOT
ATOM      1  C   UNL     1       2.216   2.523   3.518  0.00  0.00    +0.249 C 
ATOM      2  O   UNL     1       3.244   3.136   3.307  0.00  0.00    -0.270 OA
ATOM      3  N   UNL     1       1.469   2.083   2.486  0.00  0.00    -0.275 N 
ATOM      4  H   UNL     1       0.648   1.594   2.654  0.00  0.00    +0.156 HD
ENDROOT
BRANCH   3   5
ATOM      5  C   UNL     1       1.873   2.331   1.184  0.00  0.00    +0.085 A 
ATOM      6  C   UNL     1       1.245   1.963   0.001  0.00  0.00    +0.068 A 
ATOM      7  C   UNL     1       1.880   2.355  -1.243  0.00  0.00    -0.027 A 
ATOM      8  C   UNL     1       3.038   3.042  -1.109  0.00  0.00    -0.021 A 
ATOM      9  S   UNL     1       3.286   3.172   0.637  0.00  0.00    -0.079 S 
ATOM     10  C   UNL     1       3.895   3.563  -2.220  0.00  0.00    -0.035 C 
ATOM     11  C   UNL     1       2.017   2.978  -3.634  0.00  0.00    -0.073 C 
ATOM     12  C   UNL     1       1.330   2.046  -2.631  0.00  0.00    +0.018 C 
ATOM     13  N   UNL     1       3.482   2.881  -3.470  0.00  0.00    +0.384 N 
ATOM     14  H   UNL     1       3.747   1.890  -3.414  0.00  0.00    -0.081 HD
BRANCH   6  15
ATOM     15  C   UNL     1      -0.014   1.213   0.009  0.00  0.00    +0.244 C 
ATOM     16  O   UNL     1       0.002  -0.004   0.002  0.00  0.00    -0.270 OA
ATOM     17  N   UNL     1      -1.191   1.871   0.018  0.00  0.00    -0.325 N 
ATOM     18  H   UNL     1      -2.024   1.375   0.019  0.00  0.00    +0.145 HD
ATOM     19  H   UNL     1      -1.204   2.841   0.023  0.00  0.00    +0.145 HD
ENDBRANCH   6  15
BRANCH  13  20
ATOM     20  C   UNL     1       4.162   3.495  -4.631  0.00  0.00    -0.074 C 
ATOM     21  C   UNL     1       5.670   3.516  -4.372  0.00  0.00    -0.014 C 
ATOM     22  C   UNL     1       3.870   2.656  -5.877  0.00  0.00    -0.014 C 
ENDBRANCH  13  20
ENDBRANCH   3   5
BRANCH   1  26
ATOM     23  C   UNL     1       0.976   1.764   7.509  0.00  0.00    +0.106 A 
ATOM     24  C   UNL     1       2.147   2.462   7.272  0.00  0.00    +0.029 A 
ATOM     25  C   UNL     1       2.555   2.712   5.979  0.00  0.00    +0.015 A 
ATOM     26  C   UNL     1       1.784   2.259   4.907  0.00  0.00    +0.037 A 
ATOM     27  C   UNL     1       0.601   1.559   5.153  0.00  0.00    +0.015 A 
ATOM     28  C   UNL     1       0.208   1.311   6.451  0.00  0.00    +0.029 A 
BRANCH  23  29
ATOM     29  S   UNL     1       0.462   1.449   9.165  0.00  0.00    +0.061 S 
ATOM     30  O   UNL     1      -0.381   0.306   9.118  0.00  0.00    -0.153 OA
ATOM     31  O   UNL     1       1.632   1.500   9.970  0.00  0.00    -0.153 OA
BRANCH  29  32
ATOM     32  N   UNL     1      -0.490   2.720   9.632  0.00  0.00    -0.177 NA
BRANCH  32  34
ATOM     33  C   UNL     1      -2.635   2.162  10.666  0.00  0.00    +0.022 C 
ATOM     34  C   UNL     1      -1.937   2.675   9.405  0.00  0.00    +0.106 C 
ENDBRANCH  32  34
BRANCH  32  35
ATOM     35  C   UNL     1       0.114   3.891  10.273  0.00  0.00    +0.106 C 
ATOM     36  C   UNL     1       0.394   4.963   9.217  0.00  0.00    +0.022 C 
ENDBRANCH  32  35
ENDBRANCH  29  32
ENDBRANCH  23  29
ENDBRANCH   1  26
TORSDOF 8
