REMARK  Name = ZINC09580534
REMARK  9 active torsions:
REMARK  status: ('A' for Active; 'I' for Inactive)
REMARK    1  A    between atoms: C_1  and  C_2
REMARK    2  A    between atoms: C_2  and  C_3
REMARK    3  A    between atoms: C_2  and  C_4
REMARK    4  A    between atoms: C_4  and  C_6
REMARK    5  A    between atoms: C_4  and  N_17
REMARK    6  A    between atoms: C_18  and  C_20
REMARK    7  A    between atoms: C_20  and  S_21
REMARK    8  A    between atoms: S_21  and  C_22
REMARK    9  A    between atoms: C_25  and  C_27
REMARK                            x       y       z     vdW  Elec       q    Type
REMARK                         _______ _______ _______ _____ _____    ______ ____
ROOT
ATOM      1  N   UNL     1      -2.873   1.535   0.091  0.00  0.00    -0.308 N 
ATOM      2  C   UNL     1      -2.772   0.866  -1.075  0.00  0.00    +0.224 C 
ATOM      3  O   UNL     1      -2.095  -0.138  -1.141  0.00  0.00    -0.275 OA
ATOM      4  H   UNL     1      -3.414   2.338   0.144  0.00  0.00    +0.149 HD
ENDROOT
BRANCH   1   5
ATOM      5  C   UNL     1      -2.164   1.050   1.278  0.00  0.00    +0.106 C 
BRANCH   5   6
ATOM      6  C   UNL     1      -2.870   1.536   2.518  0.00  0.00    -0.023 A 
ATOM      7  C   UNL     1      -3.374   2.822   2.564  0.00  0.00    +0.009 A 
ATOM      8  C   UNL     1      -4.028   3.273   3.696  0.00  0.00    +0.050 A 
ATOM      9  C   UNL     1      -4.165   2.434   4.789  0.00  0.00    +0.162 A 
ATOM     10  C   UNL     1      -3.655   1.145   4.745  0.00  0.00    +0.162 A 
ATOM     11  C   UNL     1      -3.005   0.695   3.608  0.00  0.00    +0.055 A 
ATOM     12  O   UNL     1      -3.796   0.326   5.827  0.00  0.00    -0.488 OA
ATOM     13  C   UNL     1      -3.052   0.693   6.990  0.00  0.00    +0.232 C 
ATOM     14  C   UNL     1      -3.810   1.724   7.812  0.00  0.00    +0.082 C 
ATOM     15  C   UNL     1      -3.982   3.041   7.071  0.00  0.00    +0.232 C 
ATOM     16  O   UNL     1      -4.803   2.869   5.915  0.00  0.00    -0.488 OA
ENDBRANCH   5   6
BRANCH   5  18
ATOM     17  C   UNL     1      -0.013   1.086   0.008  0.00  0.00    +0.009 C 
ATOM     18  C   UNL     1      -0.729   1.579   1.267  0.00  0.00    +0.008 C 
ATOM     19  C   UNL     1       0.011   1.072   2.506  0.00  0.00    +0.009 C 
ENDBRANCH   5  18
ENDBRANCH   1   5
BRANCH   2  20
ATOM     20  C   UNL     1      -3.501   1.365  -2.296  0.00  0.00    +0.174 C 
BRANCH  20  21
ATOM     21  S   UNL     1      -3.169   0.260  -3.690  0.00  0.00    -0.056 S 
BRANCH  21  22
ATOM     22  C   UNL     1      -4.115   1.058  -4.944  0.00  0.00    +0.278 A 
ATOM     23  N   UNL     1      -4.830   2.150  -4.802  0.00  0.00    -0.101 NA
ATOM     24  N   UNL     1      -5.387   2.446  -5.924  0.00  0.00    -0.106 NA
ATOM     25  C   UNL     1      -5.051   1.557  -6.826  0.00  0.00    +0.251 A 
ATOM     26  O   UNL     1      -4.234   0.662  -6.226  0.00  0.00    -0.411 OA
BRANCH  25  27
ATOM     27  C   UNL     1      -5.480   1.539  -8.239  0.00  0.00    +0.057 A 
ATOM     28  C   UNL     1      -6.333   2.532  -8.737  0.00  0.00    +0.016 A 
ATOM     29  C   UNL     1      -6.701   2.473 -10.069  0.00  0.00    +0.020 A 
ATOM     30  C   UNL     1      -6.228   1.438 -10.857  0.00  0.00    +0.111 A 
ATOM     31  N   UNL     1      -5.430   0.513 -10.360  0.00  0.00    -0.263 NA
ATOM     32  C   UNL     1      -5.047   0.529  -9.100  0.00  0.00    +0.124 A 
ENDBRANCH  25  27
ENDBRANCH  21  22
ENDBRANCH  20  21
ENDBRANCH   2  20
TORSDOF 7
