REMARK  Name = ZINC39214938
REMARK  5 active torsions:
REMARK  status: ('A' for Active; 'I' for Inactive)
REMARK    1  A    between atoms: C_4  and  C_7
REMARK    2  A    between atoms: C_17  and  S_19
REMARK    3  A    between atoms: S_19  and  C_20
REMARK    4  A    between atoms: C_23  and  C_31
REMARK    5  A    between atoms: N_24  and  C_25
REMARK                            x       y       z     vdW  Elec       q    Type
REMARK                         _______ _______ _______ _____ _____    ______ ____
ROOT
ATOM      1  C   UNL     1       3.629  -0.569   0.231  0.00  0.00    -0.009 C 
ATOM      2  C   UNL     1       4.839   0.070  -0.056  0.00  0.00    +0.003 A 
ATOM      3  C   UNL     1       4.930   1.477  -0.046  0.00  0.00    +0.030 A 
ATOM      4  C   UNL     1       6.121   2.074  -0.328  0.00  0.00    +0.042 A 
ATOM      5  C   UNL     1       7.255   1.321  -0.627  0.00  0.00    +0.022 A 
ATOM      6  C   UNL     1       7.228  -0.040  -0.652  0.00  0.00    +0.025 A 
ATOM      7  C   UNL     1       6.032  -0.724  -0.370  0.00  0.00    +0.041 A 
ATOM      8  N   UNL     1       6.008  -2.061  -0.394  0.00  0.00    -0.284 N 
ATOM      9  C   UNL     1       4.928  -2.775  -0.142  0.00  0.00    +0.235 C 
ATOM     10  O   UNL     1       4.980  -3.990  -0.183  0.00  0.00    -0.274 OA
ATOM     11  C   UNL     1       3.628  -2.086   0.203  0.00  0.00    +0.171 C 
ATOM     12 CL   UNL     1       6.228   3.807  -0.316  0.00  0.00    -0.084 Cl
ATOM     13  H   UNL     1       6.829  -2.530  -0.608  0.00  0.00    +0.155 HD
ENDROOT
BRANCH   1  17
ATOM     14  C   UNL     1       0.165   1.605   1.141  0.00  0.00    +0.000 A 
ATOM     15  C   UNL     1       0.207   0.825  -0.003  0.00  0.00    +0.001 A 
ATOM     16  C   UNL     1       1.340   0.106  -0.311  0.00  0.00    +0.008 A 
ATOM     17  C   UNL     1       2.457   0.167   0.538  0.00  0.00    -0.020 A 
ATOM     18  C   UNL     1       2.405   0.962   1.695  0.00  0.00    +0.008 A 
ATOM     19  C   UNL     1       1.261   1.672   1.986  0.00  0.00    +0.001 A 
ENDBRANCH   1  17
BRANCH  11  20
ATOM     20  S   UNL     1       3.097  -2.671   1.836  0.00  0.00    -0.068 S 
BRANCH  20  21
ATOM     21  C   UNL     1       2.990  -4.420   1.648  0.00  0.00    +0.193 A 
ATOM     22  N   UNL     1       3.251  -5.104   0.556  0.00  0.00    -0.122 NA
ATOM     23  N   UNL     1       3.071  -6.359   0.768  0.00  0.00    -0.128 NA
ATOM     24  C   UNL     1       2.684  -6.553   2.007  0.00  0.00    +0.167 A 
ATOM     25  N   UNL     1       2.626  -5.318   2.610  0.00  0.00    -0.299 N 
BRANCH  25  26
ATOM     26  C   UNL     1       2.248  -5.026   3.995  0.00  0.00    +0.091 C 
ATOM     27  C   UNL     1       0.980  -4.170   4.009  0.00  0.00    +0.025 C 
ATOM     28  C   UNL     1       0.586  -3.865   5.455  0.00  0.00    +0.002 C 
ATOM     29  C   UNL     1       1.722  -3.106   6.144  0.00  0.00    +0.000 C 
ATOM     30  C   UNL     1       2.989  -3.962   6.131  0.00  0.00    +0.002 C 
ATOM     31  C   UNL     1       3.384  -4.267   4.684  0.00  0.00    +0.025 C 
ENDBRANCH  25  26
BRANCH  24  32
ATOM     32  C   UNL     1       2.375  -7.854   2.637  0.00  0.00    +0.037 A 
ATOM     33  C   UNL     1       1.408  -7.944   3.646  0.00  0.00    +0.014 A 
ATOM     34  C   UNL     1       1.156  -9.186   4.203  0.00  0.00    +0.020 A 
ATOM     35  C   UNL     1       1.860 -10.287   3.750  0.00  0.00    +0.111 A 
ATOM     36  N   UNL     1       2.766 -10.172   2.798  0.00  0.00    -0.263 NA
ATOM     37  C   UNL     1       3.038  -9.014   2.233  0.00  0.00    +0.122 A 
ENDBRANCH  24  32
ENDBRANCH  20  21
ENDBRANCH  11  20
TORSDOF 5
