REMARK  Name = ZINC12497358
REMARK  15 active torsions:
REMARK  status: ('A' for Active; 'I' for Inactive)
REMARK    1  A    between atoms: C_1  and  C_2
REMARK    2  A    between atoms: C_2  and  C_3
REMARK    3  A    between atoms: C_3  and  C_4
REMARK    4  A    between atoms: C_4  and  C_35
REMARK    5  A    between atoms: C_9  and  C_11
REMARK    6  A    between atoms: C_13  and  O_21
REMARK    7  A    between atoms: C_14  and  O_19
REMARK    8  A    between atoms: C_15  and  O_17
REMARK    9  A    between atoms: O_17  and  C_18
REMARK   10  A    between atoms: O_19  and  C_20
REMARK   11  A    between atoms: O_21  and  C_22
REMARK   12  A    between atoms: N_25  and  C_28
REMARK   13  A    between atoms: C_31  and  C_34
REMARK   14  A    between atoms: C_35  and  O_37
REMARK   15  A    between atoms: O_37  and  C_38
REMARK                            x       y       z     vdW  Elec       q    Type
REMARK                         _______ _______ _______ _____ _____    ______ ____
ROOT
ATOM      1  C   UNL     1      -6.032   4.528   0.293  0.00  0.00    +0.044 C 
ATOM      2  C   UNL     1      -4.590   4.242   0.362  0.00  0.00    +0.086 C 
ATOM      3  C   UNL     1      -3.971   5.509  -0.352  0.00  0.00    +0.077 C 
ATOM      4  C   UNL     1      -4.745   6.576   0.424  0.00  0.00    -0.026 C 
ATOM      5  C   UNL     1      -2.543   5.220   0.038  0.00  0.00    +0.229 C 
ATOM      6  O   UNL     1      -1.681   6.027   0.315  0.00  0.00    -0.275 OA
ATOM      7  N   UNL     1      -2.421   3.860   0.014  0.00  0.00    -0.210 N 
ATOM      8  C   UNL     1      -3.634   3.218   0.021  0.00  0.00    +0.229 C 
ATOM      9  O   UNL     1      -3.854   2.048  -0.209  0.00  0.00    -0.275 OA
ATOM     10  N   UNL     1      -6.076   5.970   0.690  0.00  0.00    +0.395 N 
ATOM     11  H   UNL     1      -6.298   6.047   1.690  0.00  0.00    -0.083 HD
ATOM     12  H   UNL     1      -6.795   6.458   0.142  0.00  0.00    -0.083 HD
ENDROOT
BRANCH   7  13
ATOM     13  C   UNL     1      -1.189   3.191  -0.009  0.00  0.00    +0.044 A 
ATOM     14  C   UNL     1      -1.151   1.804  -0.032  0.00  0.00    +0.024 A 
ATOM     15  C   UNL     1       0.064   1.148  -0.051  0.00  0.00    +0.005 A 
ATOM     16  C   UNL     1       1.242   1.872  -0.057  0.00  0.00    -0.050 A 
ATOM     17  C   UNL     1       1.208   3.254  -0.039  0.00  0.00    +0.005 A 
ATOM     18  C   UNL     1      -0.004   3.916  -0.015  0.00  0.00    +0.024 A 
ATOM     19  C   UNL     1       2.567   1.153  -0.084  0.00  0.00    +0.044 C 
ENDBRANCH   7  13
BRANCH   4  20
ATOM     20  C   UNL     1      -4.043   6.891   1.719  0.00  0.00    -0.053 A 
ATOM     21  C   UNL     1      -4.295   6.127   2.843  0.00  0.00    +0.051 A 
ATOM     22  C   UNL     1      -3.648   6.411   4.036  0.00  0.00    +0.165 A 
ATOM     23  C   UNL     1      -2.753   7.472   4.104  0.00  0.00    +0.204 A 
ATOM     24  C   UNL     1      -2.507   8.242   2.973  0.00  0.00    +0.165 A 
ATOM     25  C   UNL     1      -3.154   7.947   1.782  0.00  0.00    +0.051 A 
BRANCH  24  26
ATOM     26  O   UNL     1      -1.632   9.281   3.033  0.00  0.00    -0.491 OA
ATOM     27  C   UNL     1      -1.427  10.027   1.832  0.00  0.00    +0.277 C 
ENDBRANCH  24  26
BRANCH  23  28
ATOM     28  O   UNL     1      -2.120   7.758   5.274  0.00  0.00    -0.488 OA
ATOM     29  C   UNL     1      -2.770   8.675   6.156  0.00  0.00    +0.277 C 
ENDBRANCH  23  28
BRANCH  22  30
ATOM     30  O   UNL     1      -3.892   5.655   5.140  0.00  0.00    -0.491 OA
ATOM     31  C   UNL     1      -4.823   4.581   4.998  0.00  0.00    +0.277 C 
ENDBRANCH  22  30
ENDBRANCH   4  20
BRANCH   1  32
ATOM     32  C   UNL     1      -6.798   3.671   1.267  0.00  0.00    +0.297 C 
ATOM     33  O   UNL     1      -6.341   2.612   1.629  0.00  0.00    -0.252 OA
BRANCH  32  34
ATOM     34  O   UNL     1      -7.987   4.082   1.733  0.00  0.00    -0.469 OA
ATOM     35  C   UNL     1      -8.668   3.206   2.668  0.00  0.00    +0.280 C 
ENDBRANCH  32  34
ENDBRANCH   1  32
BRANCH   1  36
ATOM     36  C   UNL     1      -6.559   4.337  -1.131  0.00  0.00    -0.001 C 
BRANCH  36  38
ATOM     37  C   UNL     1      -8.555   4.570  -2.616  0.00  0.00    +0.004 C 
ATOM     38  C   UNL     1      -8.028   4.761  -1.193  0.00  0.00    -0.004 C 
ENDBRANCH  36  38
ENDBRANCH   1  36
TORSDOF 9
