REMARK  Name = ZINC13083084
REMARK  12 active torsions:
REMARK  status: ('A' for Active; 'I' for Inactive)
REMARK    1  A    between atoms: C_1  and  C_2
REMARK    2  A    between atoms: C_2  and  O_3
REMARK    3  A    between atoms: O_3  and  C_4
REMARK    4  A    between atoms: C_9  and  C_10
REMARK    5  A    between atoms: C_10  and  N_11
REMARK    6  A    between atoms: N_11  and  C_12
REMARK    7  A    between atoms: C_14  and  C_19
REMARK    8  A    between atoms: C_14  and  C_20
REMARK    9  A    between atoms: C_15  and  C_17
REMARK   10  A    between atoms: C_15  and  C_18
REMARK   11  A    between atoms: C_21  and  C_23
REMARK   12  A    between atoms: N_27  and  C_28
REMARK                            x       y       z     vdW  Elec       q    Type
REMARK                         _______ _______ _______ _____ _____    ______ ____
ROOT
ATOM      1  N   UNL     1       0.567   6.009  -0.774  0.00  0.00    -0.289 N 
ATOM      2  C   UNL     1       0.835   5.715   0.514  0.00  0.00    +0.264 C 
ATOM      3  O   UNL     1       1.906   6.028   1.000  0.00  0.00    -0.268 OA
ENDROOT
BRANCH   1   4
ATOM      4  C   UNL     1       0.746   4.987  -1.813  0.00  0.00    +0.074 C 
ATOM      5  C   UNL     1       1.675   3.892  -1.286  0.00  0.00    +0.009 C 
ATOM      6  C   UNL     1       1.875   2.820  -2.356  0.00  0.00    -0.072 C 
ATOM      7  C   UNL     1      -0.451   3.262  -3.190  0.00  0.00    -0.072 C 
ATOM      8  C   UNL     1      -0.608   4.355  -2.136  0.00  0.00    +0.009 C 
ATOM      9  C   UNL     1      -0.260   3.905  -4.569  0.00  0.00    -0.010 C 
ATOM     10  C   UNL     1      -1.777   2.470  -3.237  0.00  0.00    -0.010 C 
ATOM     11  C   UNL     1       2.608   1.633  -1.694  0.00  0.00    -0.010 C 
ATOM     12  C   UNL     1       2.785   3.358  -3.464  0.00  0.00    -0.010 C 
ATOM     13  N   UNL     1       0.609   2.260  -2.904  0.00  0.00    +0.386 N 
ATOM     14  H   UNL     1       0.237   1.588  -2.223  0.00  0.00    -0.084 HD
ATOM     15  H   UNL     1       0.830   1.772  -3.780  0.00  0.00    -0.084 HD
ENDBRANCH   1   4
BRANCH   2  16
ATOM     16  C   UNL     1      -0.163   5.019   1.329  0.00  0.00    +0.106 A 
ATOM     17  C   UNL     1      -0.959   5.594   2.295  0.00  0.00    +0.048 A 
ATOM     18  C   UNL     1      -1.758   4.593   2.823  0.00  0.00    +0.038 A 
ATOM     19  C   UNL     1      -1.464   3.382   2.186  0.00  0.00    +0.057 A 
ATOM     20  N   UNL     1      -0.471   3.676   1.254  0.00  0.00    -0.339 N 
ATOM     21  C   UNL     1       0.150   2.712   0.343  0.00  0.00    +0.149 C 
ATOM     22  C   UNL     1      -2.200   2.270   2.618  0.00  0.00    +0.034 A 
ATOM     23  C   UNL     1      -3.124   2.407   3.592  0.00  0.00    +0.048 A 
ATOM     24  S   UNL     1      -3.026   4.146   3.982  0.00  0.00    -0.095 S 
ENDBRANCH   2  16
BRANCH   1  25
ATOM     25  C   UNL     1       0.098   7.349  -1.137  0.00  0.00    +0.147 C 
BRANCH  25  31
ATOM     26  C   UNL     1      -2.051   7.524   0.143  0.00  0.00    +0.125 A 
ATOM     27  C   UNL     1      -3.437   7.564   0.193  0.00  0.00    +0.046 A 
ATOM     28  C   UNL     1      -4.173   7.456  -0.971  0.00  0.00    +0.004 A 
ATOM     29  C   UNL     1      -3.529   7.314  -2.187  0.00  0.00    +0.001 A 
ATOM     30  C   UNL     1      -2.148   7.279  -2.240  0.00  0.00    +0.009 A 
ATOM     31  C   UNL     1      -1.407   7.387  -1.078  0.00  0.00    +0.012 A 
BRANCH  26  32
ATOM     32  O   UNL     1      -1.325   7.625   1.287  0.00  0.00    -0.492 OA
BRANCH  32  34
ATOM     33  C   UNL     1      -1.076   7.863   3.679  0.00  0.00    +0.048 C 
ATOM     34  C   UNL     1      -2.055   7.765   2.508  0.00  0.00    +0.225 C 
ENDBRANCH  32  34
ENDBRANCH  26  32
ENDBRANCH  25  31
ENDBRANCH   1  25
TORSDOF 6
