REMARK  Name = ZINC58009198
REMARK  10 active torsions:
REMARK  status: ('A' for Active; 'I' for Inactive)
REMARK    1  A    between atoms: C_1  and  C_2
REMARK    2  A    between atoms: C_2  and  C_3
REMARK    3  A    between atoms: C_3  and  N_4
REMARK    4  A    between atoms: C_5  and  C_7
REMARK    5  A    between atoms: C_7  and  N_8
REMARK    6  A    between atoms: N_11  and  C_14
REMARK    7  A    between atoms: C_17  and  N_23
REMARK    8  A    between atoms: C_19  and  C_20
REMARK    9  A    between atoms: N_23  and  S_24
REMARK   10  A    between atoms: S_24  and  C_27
REMARK                            x       y       z     vdW  Elec       q    Type
REMARK                         _______ _______ _______ _____ _____    ______ ____
ROOT
ATOM      1  C   UNL     1       4.855  -6.856  -5.470  0.00  0.00    +0.044 A 
ATOM      2  C   UNL     1       5.542  -7.559  -4.488  0.00  0.00    +0.026 A 
ATOM      3  C   UNL     1       6.567  -8.413  -4.836  0.00  0.00    +0.028 A 
ATOM      4  C   UNL     1       6.923  -8.579  -6.172  0.00  0.00    +0.075 A 
ATOM      5  C   UNL     1       6.250  -7.887  -7.162  0.00  0.00    +0.043 A 
ATOM      6  C   UNL     1       5.205  -7.022  -6.820  0.00  0.00    +0.086 A 
ENDROOT
BRANCH   1  10
ATOM      7  N   UNL     1       2.029  -4.603  -3.502  0.00  0.00    -0.291 NA
ATOM      8  C   UNL     1       3.449  -4.228  -3.481  0.00  0.00    +0.104 C 
ATOM      9  C   UNL     1       4.086  -4.577  -4.830  0.00  0.00    +0.120 C 
ATOM     10  N   UNL     1       3.822  -5.995  -5.118  0.00  0.00    -0.327 N 
ATOM     11  C   UNL     1       2.436  -6.478  -5.024  0.00  0.00    +0.120 C 
ATOM     12  C   UNL     1       1.864  -6.054  -3.667  0.00  0.00    +0.104 C 
BRANCH   7  13
ATOM     13  C   UNL     1       1.341  -4.130  -2.293  0.00  0.00    +0.180 C 
BRANCH  13  15
ATOM     14  N   UNL     1       0.738  -1.962  -1.265  0.00  0.00    -0.314 N 
ATOM     15  C   UNL     1       1.321  -2.623  -2.285  0.00  0.00    +0.227 C 
ATOM     16  O   UNL     1       1.829  -2.004  -3.196  0.00  0.00    -0.274 OA
ATOM     17  H   UNL     1       0.332  -2.457  -0.536  0.00  0.00    +0.149 HD
BRANCH  14  18
ATOM     18  C   UNL     1       0.718  -0.497  -1.257  0.00  0.00    +0.104 C 
BRANCH  18  20
ATOM     19  C   UNL     1      -0.019   1.526   0.010  0.00  0.00    +0.005 C 
ATOM     20  C   UNL     1       0.002  -0.004   0.002  0.00  0.00    +0.015 C 
ENDBRANCH  18  20
ENDBRANCH  14  18
ENDBRANCH  13  15
ENDBRANCH   7  13
ENDBRANCH   1  10
BRANCH   6  21
ATOM     21  C   UNL     1       4.480  -6.287  -7.867  0.00  0.00    +0.388 C 
ATOM     22  O   UNL     1       4.787  -6.435  -9.043  0.00  0.00    -0.241 OA
ATOM     23  O   UNL     1       3.569  -5.529  -7.564  0.00  0.00    -0.241 OA
ENDBRANCH   6  21
BRANCH   4  24
ATOM     24  N   UNL     1       7.966  -9.448  -6.513  0.00  0.00    -0.097 NA
BRANCH  24  25
ATOM     25  S   UNL     1       8.774 -10.277  -5.330  0.00  0.00    +0.098 S 
ATOM     26  O   UNL     1       9.468  -9.308  -4.556  0.00  0.00    -0.148 OA
ATOM     27  O   UNL     1       7.840 -11.182  -4.757  0.00  0.00    -0.148 OA
BRANCH  25  28
ATOM     28  C   UNL     1      10.002 -11.258  -6.126  0.00  0.00    +0.148 A 
ATOM     29  C   UNL     1      11.287 -10.943  -6.422  0.00  0.00    +0.037 A 
ATOM     30  C   UNL     1      12.078 -11.882  -7.057  0.00  0.00    +0.010 A 
ATOM     31  C   UNL     1      11.546 -13.090  -7.365  0.00  0.00    +0.047 A 
ATOM     32  S   UNL     1       9.880 -12.928  -6.746  0.00  0.00    -0.077 S 
ENDBRANCH  25  28
ENDBRANCH  24  25
ENDBRANCH   4  24
TORSDOF 9
