REMARK  Name = ZINC26460607
REMARK  3 active torsions:
REMARK  status: ('A' for Active; 'I' for Inactive)
REMARK    1  A    between atoms: C_5  and  S_16
REMARK    2  A    between atoms: S_16  and  O_19
REMARK    3  A    between atoms: O_19  and  C_20
REMARK                            x       y       z     vdW  Elec       q    Type
REMARK                         _______ _______ _______ _____ _____    ______ ____
ROOT
ATOM      1  C   UNL     1       0.975  10.182  -2.609  0.00  0.00    +0.001 A 
ATOM      2  C   UNL     1       1.769   9.193  -2.102  0.00  0.00    +0.008 A 
ATOM      3  C   UNL     1       1.429   7.844  -2.307  0.00  0.00    -0.015 A 
ATOM      4  C   UNL     1       2.214   6.790  -1.806  0.00  0.00    +0.039 A 
ATOM      5  C   UNL     1       1.843   5.496  -2.030  0.00  0.00    +0.129 A 
ATOM      6  C   UNL     1       0.699   5.181  -2.755  0.00  0.00    +0.044 A 
ATOM      7  C   UNL     1      -0.105   6.192  -3.262  0.00  0.00    +0.047 A 
ATOM      8  C   UNL     1       0.263   7.538  -3.039  0.00  0.00    +0.006 A 
ATOM      9  C   UNL     1      -0.546   8.575  -3.555  0.00  0.00    +0.046 A 
ATOM     10  C   UNL     1      -0.177   9.893  -3.332  0.00  0.00    +0.014 A 
ATOM     11  C   UNL     1      -1.754   8.216  -4.313  0.00  0.00    +0.251 C 
ATOM     12  O   UNL     1      -2.466   9.092  -4.767  0.00  0.00    -0.270 OA
ATOM     13  N   UNL     1      -2.077   6.923  -4.507  0.00  0.00    -0.248 N 
ATOM     14  C   UNL     1      -1.327   5.912  -4.029  0.00  0.00    +0.251 C 
ATOM     15  O   UNL     1      -1.664   4.761  -4.233  0.00  0.00    -0.270 OA
ATOM     16  H   UNL     1      -2.983   6.662  -5.075  0.00  0.00    +0.158 HD
ENDROOT
BRANCH   5  17
ATOM     17  S   UNL     1       2.842   4.192  -1.393  0.00  0.00    +0.151 S 
ATOM     18  O   UNL     1       4.148   4.727  -1.226  0.00  0.00    -0.131 OA
ATOM     19  O   UNL     1       2.583   3.051  -2.199  0.00  0.00    -0.131 OA
BRANCH  17  20
ATOM     20  O   UNL     1       2.323   3.868   0.001  0.00  0.00    -0.341 OA
BRANCH  20  21
ATOM     21  C   UNL     1       1.156   3.171   0.008  0.00  0.00    +0.176 A 
ATOM     22  C   UNL     1      -0.056   3.845   0.022  0.00  0.00    +0.070 A 
ATOM     23  C   UNL     1      -1.241   3.134   0.030  0.00  0.00    +0.045 A 
ATOM     24  C   UNL     1      -1.219   1.750   0.017  0.00  0.00    +0.021 A 
ATOM     25  C   UNL     1      -0.013   1.076   0.008  0.00  0.00    +0.025 A 
ATOM     26  C   UNL     1       1.176   1.783   0.000  0.00  0.00    +0.085 A 
ATOM     27 CL   UNL     1       2.691   0.935  -0.018  0.00  0.00    -0.080 Cl
ATOM     28 CL   UNL     1      -2.759   3.977   0.048  0.00  0.00    -0.083 Cl
ENDBRANCH  20  21
ENDBRANCH  17  20
ENDBRANCH   5  17
TORSDOF 3
