REMARK  Name = ZINC20831927
REMARK  9 active torsions:
REMARK  status: ('A' for Active; 'I' for Inactive)
REMARK    1  A    between atoms: C_3  and  N_31
REMARK    2  A    between atoms: C_6  and  C_7
REMARK    3  A    between atoms: N_8  and  N_9
REMARK    4  A    between atoms: C_12  and  S_16
REMARK    5  A    between atoms: S_16  and  C_17
REMARK    6  A    between atoms: C_17  and  C_18
REMARK    7  A    between atoms: N_20  and  C_21
REMARK    8  A    between atoms: C_24  and  S_27
REMARK    9  A    between atoms: S_27  and  N_30
REMARK                            x       y       z     vdW  Elec       q    Type
REMARK                         _______ _______ _______ _____ _____    ______ ____
ROOT
ATOM      1  N   UNL     1      -2.443  -2.780   0.050  0.00  0.00    -0.204 N 
ATOM      2  C   UNL     1      -2.421  -4.174   0.032  0.00  0.00    +0.255 A 
ATOM      3  N   UNL     1      -3.497  -4.969   0.027  0.00  0.00    -0.187 NA
ATOM      4  C   UNL     1      -3.116  -6.229   0.008  0.00  0.00    +0.186 A 
ATOM      5  N   UNL     1      -1.766  -6.257   0.001  0.00  0.00    -0.252 N 
ATOM      6  H   UNL     1      -1.201  -7.045  -0.013  0.00  0.00    +0.191 HD
ATOM      7  N   UNL     1      -1.341  -4.919   0.012  0.00  0.00    -0.134 NA
ATOM      8  H   UNL     1      -3.291  -2.309   0.064  0.00  0.00    +0.177 HD
ENDROOT
BRANCH   1  10
ATOM      9  C   UNL     1      -1.263  -0.762   0.065  0.00  0.00    +0.138 C 
ATOM     10  N   UNL     1      -1.242  -2.060   0.048  0.00  0.00    -0.188 NA
BRANCH   9  16
ATOM     11  C   UNL     1      -0.018   1.393   0.080  0.00  0.00    +0.012 A 
ATOM     12  C   UNL     1       1.169   2.096   0.078  0.00  0.00    +0.033 A 
ATOM     13  C   UNL     1       2.377   1.420   0.059  0.00  0.00    +0.126 A 
ATOM     14  C   UNL     1       2.404   0.037   0.041  0.00  0.00    +0.033 A 
ATOM     15  C   UNL     1       1.224  -0.679   0.042  0.00  0.00    +0.012 A 
ATOM     16  C   UNL     1       0.002  -0.004   0.062  0.00  0.00    -0.005 A 
BRANCH  13  17
ATOM     17  N   UNL     1       3.647   2.182   0.056  0.00  0.00    +0.056 N 
ATOM     18  O   UNL     1       3.628   3.391   0.071  0.00  0.00    -0.126 OA
ATOM     19  O   UNL     1       4.704   1.595   0.039  0.00  0.00    -0.126 OA
ENDBRANCH  13  17
ENDBRANCH   9  16
ENDBRANCH   1  10
BRANCH   4  20
ATOM     20  S   UNL     1      -4.181  -7.633  -0.005  0.00  0.00    -0.077 S 
BRANCH  20  21
ATOM     21  C   UNL     1      -5.848  -6.920   0.013  0.00  0.00    +0.173 C 
BRANCH  21  22
ATOM     22  C   UNL     1      -6.869  -8.028   0.004  0.00  0.00    +0.227 C 
ATOM     23  O   UNL     1      -6.508  -9.186  -0.013  0.00  0.00    -0.275 OA
ATOM     24  N   UNL     1      -8.184  -7.733   0.014  0.00  0.00    -0.285 N 
ATOM     25  H   UNL     1      -8.474  -6.811   0.095  0.00  0.00    +0.155 HD
BRANCH  24  26
ATOM     26  C   UNL     1      -9.132  -8.757  -0.092  0.00  0.00    +0.034 A 
ATOM     27  C   UNL     1     -10.315  -8.541  -0.786  0.00  0.00    +0.025 A 
ATOM     28  C   UNL     1     -11.249  -9.554  -0.889  0.00  0.00    +0.030 A 
ATOM     29  C   UNL     1     -11.006 -10.782  -0.302  0.00  0.00    +0.105 A 
ATOM     30  C   UNL     1      -9.828 -11.001   0.390  0.00  0.00    +0.030 A 
ATOM     31  C   UNL     1      -8.888  -9.994   0.491  0.00  0.00    +0.025 A 
BRANCH  29  32
ATOM     32  S   UNL     1     -12.199 -12.072  -0.436  0.00  0.00    +0.056 S 
ATOM     33  O   UNL     1     -11.976 -12.947   0.661  0.00  0.00    -0.153 OA
ATOM     34  O   UNL     1     -13.452 -11.443  -0.667  0.00  0.00    -0.153 OA
BRANCH  32  35
ATOM     35  N   UNL     1     -11.841 -12.930  -1.806  0.00  0.00    -0.204 NA
ATOM     36  H   UNL     1     -12.051 -13.876  -1.855  0.00  0.00    +0.144 HD
ATOM     37  H   UNL     1     -11.420 -12.487  -2.560  0.00  0.00    +0.144 HD
ENDBRANCH  32  35
ENDBRANCH  29  32
ENDBRANCH  24  26
ENDBRANCH  21  22
ENDBRANCH  20  21
ENDBRANCH   4  20
TORSDOF 9
