REMARK  Name = ZINC16572959
REMARK  16 active torsions:
REMARK  status: ('A' for Active; 'I' for Inactive)
REMARK    1  A    between atoms: C_1  and  C_2
REMARK    2  A    between atoms: C_2  and  N_70
REMARK    3  A    between atoms: C_3  and  C_4
REMARK    4  A    between atoms: C_3  and  N_70
REMARK    5  A    between atoms: C_5  and  C_6
REMARK    6  A    between atoms: C_5  and  N_70
REMARK    7  A    between atoms: C_6  and  C_7
REMARK    8  A    between atoms: C_7  and  C_8
REMARK    9  A    between atoms: C_8  and  C_10
REMARK   10  A    between atoms: C_8  and  N_11
REMARK   11  A    between atoms: C_12  and  C_14
REMARK   12  A    between atoms: C_16  and  C_28
REMARK   13  A    between atoms: N_18  and  C_19
REMARK   14  A    between atoms: C_22  and  N_25
REMARK   15  A    between atoms: C_31  and  C_35
REMARK   16  A    between atoms: C_32  and  C_34
REMARK                            x       y       z     vdW  Elec       q    Type
REMARK                         _______ _______ _______ _____ _____    ______ ____
ROOT
ATOM      1  C   UNL     1      -0.977   5.367  -2.925  0.00  0.00    +0.130 A 
ATOM      2  C   UNL     1      -1.951   6.132  -3.539  0.00  0.00    +0.063 A 
ATOM      3  C   UNL     1      -1.562   7.467  -3.329  0.00  0.00    +0.094 A 
ATOM      4  N   UNL     1      -0.440   7.452  -2.639  0.00  0.00    -0.166 NA
ATOM      5  N   UNL     1      -0.078   6.246  -2.384  0.00  0.00    -0.227 N 
ENDROOT
BRANCH   3   6
ATOM      6  C   UNL     1      -2.284   8.675  -3.800  0.00  0.00    +0.002 A 
ATOM      7  C   UNL     1      -3.519   8.549  -4.433  0.00  0.00    +0.010 A 
ATOM      8  C   UNL     1      -4.187   9.675  -4.868  0.00  0.00    +0.004 A 
ATOM      9  C   UNL     1      -3.632  10.928  -4.677  0.00  0.00    -0.047 A 
ATOM     10  C   UNL     1      -2.407  11.059  -4.049  0.00  0.00    -0.047 A 
ATOM     11  C   UNL     1      -1.733   9.940  -3.605  0.00  0.00    +0.013 A 
ATOM     12  C   UNL     1      -1.809  12.428  -3.845  0.00  0.00    +0.044 C 
ATOM     13  C   UNL     1      -4.367  12.155  -5.154  0.00  0.00    +0.044 C 
ENDBRANCH   3   6
BRANCH   5  14
ATOM     14  C   UNL     1       1.067   5.885  -1.664  0.00  0.00    +0.066 A 
ATOM     15  C   UNL     1       0.991   4.905  -0.683  0.00  0.00    +0.030 A 
ATOM     16  C   UNL     1       2.123   4.548   0.023  0.00  0.00    +0.035 A 
ATOM     17  C   UNL     1       3.329   5.172  -0.239  0.00  0.00    +0.126 A 
ATOM     18  C   UNL     1       3.406   6.153  -1.212  0.00  0.00    +0.035 A 
ATOM     19  C   UNL     1       2.279   6.511  -1.925  0.00  0.00    +0.030 A 
BRANCH  17  20
ATOM     20  N   UNL     1       4.540   4.791   0.523  0.00  0.00    +0.056 N 
ATOM     21  O   UNL     1       5.602   5.340   0.293  0.00  0.00    -0.126 OA
ATOM     22  O   UNL     1       4.473   3.928   1.379  0.00  0.00    -0.126 OA
ENDBRANCH  17  20
ENDBRANCH   5  14
BRANCH   1  24
ATOM     23  N   UNL     1      -1.950   3.163  -3.329  0.00  0.00    -0.308 N 
ATOM     24  C   UNL     1      -0.922   3.898  -2.859  0.00  0.00    +0.263 C 
ATOM     25  O   UNL     1       0.051   3.347  -2.380  0.00  0.00    -0.269 OA
ATOM     26  H   UNL     1      -2.755   3.602  -3.645  0.00  0.00    +0.149 HD
BRANCH  23  27
ATOM     27  C   UNL     1      -1.850   1.702  -3.362  0.00  0.00    +0.070 C 
ATOM     28  C   UNL     1      -2.328   1.128  -2.027  0.00  0.00    +0.028 C 
BRANCH  27  29
ATOM     29  C   UNL     1      -2.724   1.157  -4.494  0.00  0.00    +0.020 C 
BRANCH  29  30
ATOM     30  C   UNL     1      -2.155   1.607  -5.840  0.00  0.00    -0.017 C 
BRANCH  30  31
ATOM     31  C   UNL     1      -3.092   1.163  -6.965  0.00  0.00    -0.079 C 
BRANCH  31  32
ATOM     32  N   UNL     1      -2.540   1.623  -8.256  0.00  0.00    +0.379 N 
ATOM     33  H   UNL     1      -2.337   2.628  -8.193  0.00  0.00    -0.082 HD
BRANCH  32  35
ATOM     34  C   UNL     1      -1.563  -0.595  -8.745  0.00  0.00    -0.017 C 
ATOM     35  C   UNL     1      -1.287   0.899  -8.557  0.00  0.00    -0.082 C 
ENDBRANCH  32  35
BRANCH  32  36
ATOM     36  C   UNL     1      -3.524   1.399  -9.336  0.00  0.00    -0.082 C 
ATOM     37  C   UNL     1      -2.996   2.030 -10.626  0.00  0.00    -0.017 C 
ENDBRANCH  32  36
ENDBRANCH  31  32
ENDBRANCH  30  31
ENDBRANCH  29  30
ENDBRANCH  27  29
ENDBRANCH  23  27
ENDBRANCH   1  24
TORSDOF 11
