REMARK  Name = ZINC12579244
REMARK  6 active torsions:
REMARK  status: ('A' for Active; 'I' for Inactive)
REMARK    1  A    between atoms: C_1  and  C_2
REMARK    2  A    between atoms: C_15  and  C_17
REMARK    3  A    between atoms: C_17  and  N_18
REMARK    4  A    between atoms: N_18  and  C_19
REMARK    5  A    between atoms: C_20  and  C_22
REMARK    6  A    between atoms: C_24  and  C_32
REMARK                            x       y       z     vdW  Elec       q    Type
REMARK                         _______ _______ _______ _____ _____    ______ ____
ROOT
ATOM      1  N   UNL     1      -1.191   6.559   3.202  0.00  0.00    -0.292 N 
ATOM      2  C   UNL     1      -0.211   7.377   3.922  0.00  0.00    +0.133 C 
ATOM      3  C   UNL     1      -2.505   6.695   3.465  0.00  0.00    +0.247 C 
ATOM      4  O   UNL     1      -3.323   6.075   2.814  0.00  0.00    -0.270 OA
ENDROOT
BRANCH   3   5
ATOM      5  C   UNL     1      -2.954   7.598   4.547  0.00  0.00    +0.048 A 
ATOM      6  C   UNL     1      -2.480   8.898   4.635  0.00  0.00    +0.042 A 
ATOM      7  C   UNL     1      -2.928   9.728   5.675  0.00  0.00    +0.072 A 
ATOM      8  N   UNL     1      -3.791   9.302   6.576  0.00  0.00    -0.247 NA
ATOM      9  C   UNL     1      -4.283   8.062   6.546  0.00  0.00    +0.072 A 
ATOM     10  C   UNL     1      -3.887   7.163   5.524  0.00  0.00    +0.013 A 
ATOM     11  C   UNL     1      -4.406   5.863   5.505  0.00  0.00    +0.011 A 
ATOM     12  C   UNL     1      -5.295   5.477   6.463  0.00  0.00    +0.001 A 
ATOM     13  C   UNL     1      -5.692   6.358   7.466  0.00  0.00    +0.002 A 
ATOM     14  C   UNL     1      -5.204   7.627   7.518  0.00  0.00    +0.028 A 
BRANCH   7  15
ATOM     15  C   UNL     1      -2.417  11.116   5.763  0.00  0.00    +0.001 A 
ATOM     16  C   UNL     1      -1.498  11.584   4.824  0.00  0.00    +0.013 A 
ATOM     17  C   UNL     1      -1.030  12.879   4.906  0.00  0.00    +0.039 A 
ATOM     18  C   UNL     1      -1.462  13.711   5.927  0.00  0.00    +0.123 A 
ATOM     19  C   UNL     1      -2.370  13.248   6.866  0.00  0.00    +0.039 A 
ATOM     20  C   UNL     1      -2.848  11.957   6.788  0.00  0.00    +0.013 A 
ATOM     21  F   UNL     1      -0.995  14.976   6.007  0.00  0.00    -0.205 F 
ENDBRANCH   7  15
ENDBRANCH   3   5
BRANCH   1  22
ATOM     22  C   UNL     1      -0.741   5.594   2.196  0.00  0.00    +0.204 C 
BRANCH  22  36
ATOM     23  C   UNL     1      -1.455   5.782  -2.375  0.00  0.00    +0.029 C 
ATOM     24  C   UNL     1      -0.234   6.201  -1.553  0.00  0.00    +0.087 C 
ATOM     25  C   UNL     1       1.041   5.770  -2.281  0.00  0.00    +0.118 C 
ATOM     26  C   UNL     1       2.213   5.806  -1.337  0.00  0.00    +0.219 C 
ATOM     27  O   UNL     1       3.020   6.707  -1.412  0.00  0.00    -0.275 OA
ATOM     28  N   UNL     1       2.372   4.840  -0.405  0.00  0.00    -0.284 N 
ATOM     29  C   UNL     1       1.402   3.843  -0.242  0.00  0.00    +0.055 A 
ATOM     30  C   UNL     1       1.760   2.507  -0.173  0.00  0.00    +0.025 A 
ATOM     31  C   UNL     1       0.787   1.544   0.021  0.00  0.00    +0.002 A 
ATOM     32  C   UNL     1      -0.540   1.910   0.148  0.00  0.00    +0.002 A 
ATOM     33  C   UNL     1      -0.905   3.243   0.083  0.00  0.00    +0.025 A 
ATOM     34  C   UNL     1       0.061   4.213  -0.125  0.00  0.00    +0.058 A 
ATOM     35  N   UNL     1      -0.294   5.564  -0.237  0.00  0.00    -0.265 N 
ATOM     36  C   UNL     1      -0.684   6.263   0.847  0.00  0.00    +0.237 C 
ATOM     37  O   UNL     1      -0.989   7.432   0.737  0.00  0.00    -0.274 OA
ATOM     38  H   UNL     1       3.164   4.836   0.154  0.00  0.00    +0.155 HD
ENDBRANCH  22  36
ENDBRANCH   1  22
TORSDOF 4
