REMARK  Name = ZINC16648167
REMARK  12 active torsions:
REMARK  status: ('A' for Active; 'I' for Inactive)
REMARK    1  A    between atoms: C_1  and  C_2
REMARK    2  A    between atoms: C_2  and  C_3
REMARK    3  A    between atoms: C_3  and  C_4
REMARK    4  A    between atoms: C_4  and  N_5
REMARK    5  A    between atoms: N_5  and  C_6
REMARK    6  A    between atoms: C_6  and  C_7
REMARK    7  A    between atoms: N_9  and  C_10
REMARK    8  A    between atoms: N_9  and  C_22
REMARK    9  A    between atoms: C_10  and  C_11
REMARK   10  A    between atoms: C_11  and  C_12
REMARK   11  A    between atoms: C_22  and  C_23
REMARK   12  A    between atoms: C_31  and  C_33
REMARK                            x       y       z     vdW  Elec       q    Type
REMARK                         _______ _______ _______ _____ _____    ______ ____
ROOT
ATOM      1  C   UNL     1      -3.549  -1.498  -1.669  0.00  0.00    +0.233 C 
ATOM      2  O   UNL     1      -3.583  -0.302  -1.469  0.00  0.00    -0.274 OA
ATOM      3  N   UNL     1      -2.365  -2.138  -1.728  0.00  0.00    -0.296 N 
ENDROOT
BRANCH   1   4
ATOM      4  C   UNL     1      -4.832  -2.268  -1.852  0.00  0.00    +0.204 C 
BRANCH   4   5
ATOM      5  N   UNL     1      -5.960  -1.335  -1.891  0.00  0.00    -0.286 N 
ATOM      6  C   UNL     1      -6.278  -0.709  -3.042  0.00  0.00    +0.282 C 
ATOM      7  O   UNL     1      -7.164   0.126  -3.056  0.00  0.00    -0.267 OA
BRANCH   6   8
ATOM      8  C   UNL     1      -5.557  -1.034  -4.276  0.00  0.00    +0.189 A 
ATOM      9  C   UNL     1      -5.719  -0.422  -5.486  0.00  0.00    +0.054 A 
ATOM     10  C   UNL     1      -4.833  -1.047  -6.377  0.00  0.00    +0.042 A 
ATOM     11  C   UNL     1      -4.177  -2.002  -5.682  0.00  0.00    +0.196 A 
ATOM     12  O   UNL     1      -4.612  -1.987  -4.415  0.00  0.00    -0.458 OA
ENDBRANCH   6   8
BRANCH   5  13
ATOM     13  C   UNL     1      -6.744  -1.082  -0.679  0.00  0.00    +0.109 C 
BRANCH  13  14
ATOM     14  C   UNL     1      -6.209   0.169   0.022  0.00  0.00    +0.019 C 
BRANCH  14  16
ATOM     15  C   UNL     1      -6.493   1.684   1.988  0.00  0.00    +0.004 C 
ATOM     16  C   UNL     1      -7.027   0.433   1.288  0.00  0.00    -0.002 C 
ENDBRANCH  14  16
ENDBRANCH  13  14
ENDBRANCH   5  13
ENDBRANCH   4   5
ENDBRANCH   1   4
BRANCH   3  17
ATOM     17  C   UNL     1      -1.116  -1.375  -1.653  0.00  0.00    +0.113 C 
BRANCH  17  18
ATOM     18  C   UNL     1      -0.683  -1.246  -0.191  0.00  0.00    +0.056 C 
BRANCH  18  19
ATOM     19  C   UNL     1       0.601  -0.462  -0.115  0.00  0.00    -0.021 A 
ATOM     20  C   UNL     1       1.844  -0.968  -0.065  0.00  0.00    +0.087 A 
ATOM     21  N   UNL     1       2.759   0.048  -0.001  0.00  0.00    -0.360 N 
ATOM     22  H   UNL     1       3.720  -0.070   0.043  0.00  0.00    +0.165 HD
ATOM     23  C   UNL     1       2.111   1.263  -0.007  0.00  0.00    +0.047 A 
ATOM     24  C   UNL     1       0.731   0.997  -0.079  0.00  0.00    +0.003 A 
ATOM     25  C   UNL     1      -0.182   2.053  -0.096  0.00  0.00    +0.010 A 
ATOM     26  C   UNL     1       0.270   3.341  -0.053  0.00  0.00    +0.001 A 
ATOM     27  C   UNL     1       1.630   3.609   0.018  0.00  0.00    +0.002 A 
ATOM     28  C   UNL     1       2.549   2.582   0.041  0.00  0.00    +0.026 A 
ENDBRANCH  18  19
ENDBRANCH  17  18
ENDBRANCH   3  17
BRANCH   3  29
ATOM     29  C   UNL     1      -2.326  -3.595  -1.866  0.00  0.00    +0.143 C 
BRANCH  29  30
ATOM     30  C   UNL     1      -2.367  -4.231  -0.500  0.00  0.00    -0.029 A 
ATOM     31  C   UNL     1      -1.201  -4.383   0.227  0.00  0.00    +0.007 A 
ATOM     32  C   UNL     1      -1.239  -4.961   1.482  0.00  0.00    +0.022 A 
ATOM     33  C   UNL     1      -2.442  -5.397   2.006  0.00  0.00    +0.059 A 
ATOM     34  C   UNL     1      -3.609  -5.250   1.276  0.00  0.00    +0.060 A 
ATOM     35  C   UNL     1      -3.570  -4.666   0.022  0.00  0.00    +0.026 A 
ATOM     36 CL   UNL     1      -5.120  -5.797   1.933  0.00  0.00    -0.082 Cl
ATOM     37 CL   UNL     1      -2.489  -6.129   3.580  0.00  0.00    -0.082 Cl
ENDBRANCH  29  30
ENDBRANCH   3  29
TORSDOF 11
