REMARK  Name = ZINC57460661
REMARK  8 active torsions:
REMARK  status: ('A' for Active; 'I' for Inactive)
REMARK    1  A    between atoms: C_1  and  C_2
REMARK    2  A    between atoms: C_5  and  N_9
REMARK    3  A    between atoms: C_6  and  C_8
REMARK    4  A    between atoms: N_11  and  C_28
REMARK    5  A    between atoms: C_14  and  C_17
REMARK    6  A    between atoms: C_17  and  C_18
REMARK    7  A    between atoms: N_20  and  C_21
REMARK    8  A    between atoms: C_28  and  C_29
REMARK                            x       y       z     vdW  Elec       q    Type
REMARK                         _______ _______ _______ _____ _____    ______ ____
ROOT
ATOM      1  N   UNL     1       0.526  -4.033   0.070  0.00  0.00    -0.226 NA
ATOM      2  C   UNL     1       0.318  -4.673  -1.056  0.00  0.00    +0.164 C 
ATOM      3  N   UNL     1       0.111  -6.024  -1.242  0.00  0.00    -0.242 N 
ATOM      4  C   UNL     1      -0.089  -6.553  -2.437  0.00  0.00    +0.235 C 
ATOM      5  O   UNL     1      -0.270  -7.742  -2.593  0.00  0.00    -0.274 OA
ATOM      6  C   UNL     1      -0.077  -5.578  -3.603  0.00  0.00    +0.149 C 
ATOM      7  S   UNL     1       0.228  -3.999  -2.708  0.00  0.00    -0.077 S 
ENDROOT
BRANCH   1  12
ATOM      8  C   UNL     1       0.829   1.605   0.099  0.00  0.00    +0.044 C 
ATOM      9  C   UNL     1       0.748   0.100   0.092  0.00  0.00    -0.050 A 
ATOM     10  C   UNL     1      -0.302  -0.530  -0.553  0.00  0.00    +0.005 A 
ATOM     11  C   UNL     1      -0.382  -1.907  -0.564  0.00  0.00    +0.028 A 
ATOM     12  C   UNL     1       0.600  -2.665   0.077  0.00  0.00    +0.069 A 
ATOM     13  C   UNL     1       1.656  -2.023   0.726  0.00  0.00    -0.025 A 
ATOM     14  C   UNL     1       1.726  -0.645   0.725  0.00  0.00    +0.008 A 
ATOM     15  C   UNL     1       2.720  -2.833   1.421  0.00  0.00    +0.046 C 
ENDBRANCH   1  12
BRANCH   6  16
ATOM     16  C   UNL     1       1.056  -5.897  -4.581  0.00  0.00    +0.120 C 
BRANCH  16  17
ATOM     17  C   UNL     1       0.956  -4.987  -5.779  0.00  0.00    +0.219 C 
ATOM     18  O   UNL     1       0.066  -4.165  -5.844  0.00  0.00    -0.275 OA
ATOM     19  N   UNL     1       1.855  -5.088  -6.778  0.00  0.00    -0.283 N 
ATOM     20  H   UNL     1       2.524  -5.790  -6.760  0.00  0.00    +0.155 HD
BRANCH  19  21
ATOM     21  C   UNL     1       1.824  -4.177  -7.842  0.00  0.00    +0.069 A 
ATOM     22  C   UNL     1       1.177  -2.958  -7.695  0.00  0.00    +0.026 A 
ATOM     23  C   UNL     1       1.148  -2.062  -8.746  0.00  0.00    +0.002 A 
ATOM     24  C   UNL     1       1.763  -2.378  -9.944  0.00  0.00    +0.003 A 
ATOM     25  C   UNL     1       2.408  -3.591 -10.095  0.00  0.00    +0.040 A 
ATOM     26  C   UNL     1       2.446  -4.491  -9.045  0.00  0.00    +0.144 A 
ATOM     27  F   UNL     1       3.081  -5.674  -9.190  0.00  0.00    -0.204 F 
ENDBRANCH  19  21
ENDBRANCH  16  17
ENDBRANCH   6  16
BRANCH   3  28
ATOM     28  C   UNL     1       0.113  -6.905  -0.072  0.00  0.00    +0.189 C 
BRANCH  28  29
ATOM     29  C   UNL     1      -1.286  -7.014   0.478  0.00  0.00    +0.123 A 
ATOM     30  C   UNL     1      -2.201  -7.933   0.122  0.00  0.00    +0.046 A 
ATOM     31  C   UNL     1      -3.365  -7.667   0.880  0.00  0.00    +0.041 A 
ATOM     32  C   UNL     1      -3.090  -6.601   1.654  0.00  0.00    +0.195 A 
ATOM     33  O   UNL     1      -1.828  -6.214   1.410  0.00  0.00    -0.466 OA
ENDBRANCH  28  29
ENDBRANCH   3  28
TORSDOF 6
