REMARK  Name = ZINC36016728
REMARK  12 active torsions:
REMARK  status: ('A' for Active; 'I' for Inactive)
REMARK    1  A    between atoms: C_1  and  C_2
REMARK    2  A    between atoms: C_2  and  N_3
REMARK    3  A    between atoms: C_4  and  C_24
REMARK    4  A    between atoms: C_5  and  C_19
REMARK    5  A    between atoms: C_6  and  C_11
REMARK    6  A    between atoms: C_19  and  O_21
REMARK    7  A    between atoms: O_21  and  C_22
REMARK    8  A    between atoms: C_22  and  C_23
REMARK    9  A    between atoms: C_24  and  N_25
REMARK   10  A    between atoms: C_31  and  C_33
REMARK   11  A    between atoms: C_33  and  C_34
REMARK   12  A    between atoms: C_33  and  C_35
REMARK                            x       y       z     vdW  Elec       q    Type
REMARK                         _______ _______ _______ _____ _____    ______ ____
ROOT
ATOM      1  N   UNL     1       1.145  -0.017  -2.738  0.00  0.00    -0.258 N 
ATOM      2  C   UNL     1       0.170  -0.069  -3.692  0.00  0.00    +0.041 C 
ATOM      3  C   UNL     1       0.442  -0.494  -4.945  0.00  0.00    +0.080 C 
ATOM      4  C   UNL     1       1.865  -0.911  -5.254  0.00  0.00    +0.145 C 
ATOM      5  N   UNL     1       2.842  -0.817  -4.156  0.00  0.00    -0.288 N 
ATOM      6  C   UNL     1       2.419  -0.368  -2.958  0.00  0.00    +0.307 C 
ATOM      7  O   UNL     1       3.218  -0.283  -2.046  0.00  0.00    -0.252 OA
ATOM      8  H   UNL     1       3.768  -1.069  -4.293  0.00  0.00    +0.151 HD
ENDROOT
BRANCH   4   9
ATOM      9  C   UNL     1       1.838  -2.340  -5.730  0.00  0.00    -0.004 A 
ATOM     10  C   UNL     1       2.002  -3.373  -4.825  0.00  0.00    +0.008 A 
ATOM     11  C   UNL     1       1.977  -4.684  -5.261  0.00  0.00    +0.020 A 
ATOM     12  C   UNL     1       1.788  -4.965  -6.602  0.00  0.00    +0.042 A 
ATOM     13  C   UNL     1       1.623  -3.932  -7.508  0.00  0.00    +0.040 A 
ATOM     14  C   UNL     1       1.644  -2.620  -7.071  0.00  0.00    +0.048 A 
ATOM     15 CL   UNL     1       1.431  -1.323  -8.206  0.00  0.00    -0.083 Cl
ATOM     16 CL   UNL     1       1.757  -6.612  -7.149  0.00  0.00    -0.083 Cl
ENDBRANCH   4   9
BRANCH   1  18
ATOM     17  C   UNL     1       0.957   1.972  -1.328  0.00  0.00    +0.025 C 
ATOM     18  C   UNL     1       0.779   0.454  -1.400  0.00  0.00    +0.111 C 
ENDBRANCH   1  18
BRANCH   3  19
ATOM     19  C   UNL     1      -0.568  -0.549  -5.934  0.00  0.00    +0.339 C 
ATOM     20  O   UNL     1      -1.128  -1.603  -6.173  0.00  0.00    -0.245 OA
BRANCH  19  21
ATOM     21  O   UNL     1      -0.910   0.566  -6.612  0.00  0.00    -0.462 OA
BRANCH  21  22
ATOM     22  C   UNL     1      -1.938   0.438  -7.596  0.00  0.00    +0.229 C 
ATOM     23  C   UNL     1      -2.187   1.796  -8.254  0.00  0.00    +0.048 C 
ENDBRANCH  21  22
ENDBRANCH  19  21
ENDBRANCH   3  19
BRANCH   2  24
ATOM     24  C   UNL     1      -1.234   0.355  -3.341  0.00  0.00    +0.136 C 
BRANCH  24  25
ATOM     25  N   UNL     1      -1.805  -0.595  -2.377  0.00  0.00    -0.294 NA
ATOM     26  C   UNL     1      -1.974  -1.923  -2.983  0.00  0.00    +0.104 C 
ATOM     27  C   UNL     1      -2.399  -2.923  -1.903  0.00  0.00    +0.123 C 
ATOM     28  N   UNL     1      -3.590  -2.395  -1.219  0.00  0.00    -0.299 N 
ATOM     29  C   UNL     1      -3.543  -1.018  -0.705  0.00  0.00    +0.123 C 
ATOM     30  C   UNL     1      -3.073  -0.093  -1.832  0.00  0.00    +0.104 C 
ATOM     31  C   UNL     1      -4.694  -3.153  -1.068  0.00  0.00    +0.218 C 
ATOM     32  O   UNL     1      -5.626  -2.742  -0.410  0.00  0.00    -0.275 OA
BRANCH  31  33
ATOM     33  C   UNL     1      -4.770  -4.511  -1.717  0.00  0.00    +0.069 C 
ATOM     34  C   UNL     1      -3.926  -5.506  -0.917  0.00  0.00    +0.017 C 
ATOM     35  C   UNL     1      -6.225  -4.982  -1.744  0.00  0.00    +0.017 C 
ENDBRANCH  31  33
ENDBRANCH  24  25
ENDBRANCH   2  24
TORSDOF 8
