REMARK  Name = ZINC04767293
REMARK  14 active torsions:
REMARK  status: ('A' for Active; 'I' for Inactive)
REMARK    1  A    between atoms: C_1  and  C_2
REMARK    2  A    between atoms: C_7  and  C_19
REMARK    3  A    between atoms: C_9  and  C_13
REMARK    4  A    between atoms: C_10  and  C_12
REMARK    5  A    between atoms: C_13  and  O_15
REMARK    6  A    between atoms: O_15  and  C_16
REMARK    7  A    between atoms: C_16  and  C_17
REMARK    8  A    between atoms: C_16  and  C_18
REMARK    9  A    between atoms: C_21  and  O_27
REMARK   10  A    between atoms: C_22  and  O_26
REMARK   11  A    between atoms: O_27  and  C_28
REMARK   12  A    between atoms: C_31  and  C_33
REMARK   13  A    between atoms: C_33  and  O_35
REMARK   14  A    between atoms: O_35  and  C_36
REMARK                            x       y       z     vdW  Elec       q    Type
REMARK                         _______ _______ _______ _____ _____    ______ ____
ROOT
ATOM      1  C   UNL     1      -0.719   0.907  -0.815  0.00  0.00    +0.009 C 
ATOM      2  C   UNL     1      -0.444  -0.526  -0.357  0.00  0.00    +0.013 C 
ATOM      3  C   UNL     1      -1.730  -1.145   0.195  0.00  0.00    +0.055 C 
ATOM      4  C   UNL     1      -2.201  -0.353   1.389  0.00  0.00    +0.016 C 
ATOM      5  C   UNL     1      -1.321   0.276   2.197  0.00  0.00    +0.025 C 
ATOM      6  C   UNL     1      -1.798   1.056   3.397  0.00  0.00    +0.092 C 
ATOM      7  C   UNL     1      -3.261   1.372   3.286  0.00  0.00    +0.065 C 
ATOM      8  C   UNL     1      -4.057   0.704   2.433  0.00  0.00    +0.016 C 
ATOM      9  N   UNL     1      -3.545  -0.283   1.638  0.00  0.00    -0.321 N 
ATOM     10  C   UNL     1      -5.522   1.044   2.355  0.00  0.00    +0.061 C 
ATOM     11  C   UNL     1       0.061   0.227   1.943  0.00  0.00    +0.176 C 
ATOM     12  O   UNL     1       0.826   0.796   2.695  0.00  0.00    -0.291 OA
ATOM     13  C   UNL     1       0.613  -0.518   0.753  0.00  0.00    +0.171 C 
ATOM     14  H   UNL     1      -4.141  -0.941   1.245  0.00  0.00    +0.152 HD
ENDROOT
BRANCH   6  15
ATOM     15  C   UNL     1      -1.562   0.240   4.642  0.00  0.00    -0.030 A 
ATOM     16  C   UNL     1      -0.750   0.735   5.646  0.00  0.00    +0.054 A 
ATOM     17  C   UNL     1      -0.531  -0.013   6.792  0.00  0.00    +0.163 A 
ATOM     18  C   UNL     1      -1.130  -1.262   6.929  0.00  0.00    +0.177 A 
ATOM     19  C   UNL     1      -1.944  -1.752   5.919  0.00  0.00    +0.086 A 
ATOM     20  C   UNL     1      -2.162  -0.997   4.780  0.00  0.00    +0.028 A 
ATOM     21 CL   UNL     1      -2.693  -3.308   6.086  0.00  0.00    -0.080 Cl
BRANCH  18  22
ATOM     22  O   UNL     1      -0.918  -2.000   8.052  0.00  0.00    -0.502 OA
ATOM     23  H   UNL     1      -1.558  -1.834   8.758  0.00  0.00    +0.292 HD
ENDBRANCH  18  22
BRANCH  17  24
ATOM     24  O   UNL     1       0.269   0.471   7.779  0.00  0.00    -0.491 OA
ATOM     25  C   UNL     1       0.851   1.759   7.569  0.00  0.00    +0.277 C 
ENDBRANCH  17  24
ENDBRANCH   6  15
BRANCH   7  26
ATOM     26  C   UNL     1      -3.813   2.393   4.094  0.00  0.00    +0.338 C 
ATOM     27  O   UNL     1      -4.966   2.745   3.927  0.00  0.00    -0.245 OA
BRANCH  26  28
ATOM     28  O   UNL     1      -3.061   2.978   5.050  0.00  0.00    -0.459 OA
BRANCH  28  29
ATOM     29  C   UNL     1      -3.683   4.002   5.829  0.00  0.00    +0.171 C 
ATOM     30  C   UNL     1      -4.345   3.377   7.059  0.00  0.00    +0.052 C 
ATOM     31  C   UNL     1      -2.626   5.013   6.278  0.00  0.00    +0.052 C 
ENDBRANCH  28  29
ENDBRANCH  26  28
ENDBRANCH   7  26
BRANCH  13  32
ATOM     32  C   UNL     1       1.861   0.165   0.256  0.00  0.00    +0.318 C 
ATOM     33  O   UNL     1       1.993   1.357   0.396  0.00  0.00    -0.250 OA
BRANCH  32  34
ATOM     34  O   UNL     1       2.825  -0.552  -0.341  0.00  0.00    -0.467 OA
ATOM     35  C   UNL     1       3.981   0.160  -0.787  0.00  0.00    +0.280 C 
ENDBRANCH  32  34
ENDBRANCH  13  32
TORSDOF 8
