REMARK  Name = ZINC16026657
REMARK  11 active torsions:
REMARK  status: ('A' for Active; 'I' for Inactive)
REMARK    1  A    between atoms: C_1  and  C_2
REMARK    2  A    between atoms: C_2  and  O_3
REMARK    3  A    between atoms: O_3  and  C_4
REMARK    4  A    between atoms: C_4  and  C_6
REMARK    5  A    between atoms: C_9  and  N_12
REMARK    6  A    between atoms: C_13  and  C_15
REMARK    7  A    between atoms: C_18  and  C_31
REMARK    8  A    between atoms: C_23  and  C_30
REMARK    9  A    between atoms: C_31  and  C_32
REMARK   10  A    between atoms: C_32  and  C_33
REMARK   11  A    between atoms: C_32  and  C_34
REMARK                            x       y       z     vdW  Elec       q    Type
REMARK                         _______ _______ _______ _____ _____    ______ ____
ROOT
ATOM      1  C   UNL     1      -1.132  -0.733   0.233  0.00  0.00    +0.076 C 
ATOM      2  C   UNL     1      -1.648  -0.488   1.677  0.00  0.00    -0.004 C 
ATOM      3  C   UNL     1      -0.909  -1.597   2.468  0.00  0.00    -0.069 C 
ATOM      4  C   UNL     1      -0.993  -2.262   0.175  0.00  0.00    +0.049 C 
ATOM      5  C   UNL     1       0.200  -2.660  -0.653  0.00  0.00    -0.027 A 
ATOM      6  C   UNL     1       1.550  -2.414  -0.545  0.00  0.00    +0.008 A 
ATOM      7  C   UNL     1       2.425  -2.928  -1.485  0.00  0.00    -0.050 A 
ATOM      8  C   UNL     1       1.940  -3.689  -2.533  0.00  0.00    +0.005 A 
ATOM      9  C   UNL     1       0.588  -3.938  -2.646  0.00  0.00    +0.024 A 
ATOM     10  C   UNL     1      -0.300  -3.423  -1.703  0.00  0.00    +0.036 A 
ATOM     11  N   UNL     1      -1.689  -3.532  -1.603  0.00  0.00    -0.286 N 
ATOM     12  C   UNL     1      -2.173  -2.879  -0.530  0.00  0.00    +0.211 C 
ATOM     13  O   UNL     1      -3.336  -2.802  -0.196  0.00  0.00    -0.277 OA
ATOM     14  C   UNL     1       3.903  -2.659  -1.368  0.00  0.00    +0.044 C 
ATOM     15  H   UNL     1      -2.240  -4.022  -2.233  0.00  0.00    +0.155 HD
ATOM     16  N   UNL     1      -0.878  -2.751   1.548  0.00  0.00    +0.394 N 
ATOM     17  H   UNL     1      -1.661  -3.380   1.758  0.00  0.00    -0.083 HD
ATOM     18  H   UNL     1       0.008  -3.258   1.661  0.00  0.00    -0.083 HD
ENDROOT
BRANCH   1  20
ATOM     19  N   UNL     1       0.572   0.331  -1.211  0.00  0.00    -0.285 N 
ATOM     20  C   UNL     1       0.203  -0.067   0.023  0.00  0.00    +0.220 C 
ATOM     21  O   UNL     1       0.947   0.112   0.965  0.00  0.00    -0.275 OA
ATOM     22  H   UNL     1       0.015   0.118  -1.976  0.00  0.00    +0.155 HD
BRANCH  19  26
ATOM     23  C   UNL     1       4.113   2.460  -1.742  0.00  0.00    +0.059 A 
ATOM     24  C   UNL     1       3.661   1.590  -2.740  0.00  0.00    +0.017 A 
ATOM     25  C   UNL     1       2.491   0.888  -2.561  0.00  0.00    +0.024 A 
ATOM     26  C   UNL     1       1.758   1.043  -1.388  0.00  0.00    +0.033 A 
ATOM     27  C   UNL     1       2.201   1.911  -0.396  0.00  0.00    +0.024 A 
ATOM     28  C   UNL     1       3.373   2.613  -0.566  0.00  0.00    +0.017 A 
BRANCH  23  29
ATOM     29  C   UNL     1       5.366   3.213  -1.931  0.00  0.00    +0.339 C 
ATOM     30  O   UNL     1       6.008   3.079  -2.953  0.00  0.00    -0.245 OA
BRANCH  29  31
ATOM     31  O   UNL     1       5.800   4.051  -0.968  0.00  0.00    -0.461 OA
BRANCH  31  33
ATOM     32  C   UNL     1       7.370   5.656  -0.026  0.00  0.00    +0.048 C 
ATOM     33  C   UNL     1       7.041   4.760  -1.221  0.00  0.00    +0.229 C 
ENDBRANCH  31  33
ENDBRANCH  29  31
ENDBRANCH  23  29
ENDBRANCH  19  26
ENDBRANCH   1  20
BRANCH   3  34
ATOM     34  C   UNL     1      -1.680  -1.946   3.742  0.00  0.00    -0.013 C 
BRANCH  34  35
ATOM     35  C   UNL     1      -0.910  -3.008   4.530  0.00  0.00    -0.019 C 
ATOM     36  C   UNL     1       0.421  -2.423   5.008  0.00  0.00    +0.007 C 
ATOM     37  C   UNL     1      -1.738  -3.447   5.739  0.00  0.00    +0.007 C 
ENDBRANCH  34  35
ENDBRANCH   3  34
TORSDOF 7
