REMARK  Name = ZINC01904745
REMARK  12 active torsions:
REMARK  status: ('A' for Active; 'I' for Inactive)
REMARK    1  A    between atoms: C_1  and  C_2
REMARK    2  A    between atoms: C_2  and  O_3
REMARK    3  A    between atoms: O_3  and  C_4
REMARK    4  A    between atoms: C_4  and  C_6
REMARK    5  A    between atoms: C_10  and  N_11
REMARK    6  A    between atoms: C_12  and  C_14
REMARK    7  A    between atoms: C_14  and  C_16
REMARK    8  A    between atoms: C_14  and  N_20
REMARK    9  A    between atoms: C_16  and  C_17
REMARK   10  A    between atoms: C_17  and  C_18
REMARK   11  A    between atoms: C_17  and  C_19
REMARK   12  A    between atoms: C_32  and  C_36
REMARK                            x       y       z     vdW  Elec       q    Type
REMARK                         _______ _______ _______ _____ _____    ______ ____
ROOT
ATOM      1  N   UNL     1      -0.777  -2.794  -3.650  0.00  0.00    -0.278 N 
ATOM      2  C   UNL     1      -1.255  -3.082  -4.877  0.00  0.00    +0.239 C 
ATOM      3  O   UNL     1      -0.582  -3.726  -5.654  0.00  0.00    -0.273 OA
ATOM      4  H   UNL     1      -1.314  -2.279  -3.029  0.00  0.00    +0.155 HD
ENDROOT
BRANCH   1   9
ATOM      5  C   UNL     1       1.133  -3.035  -2.067  0.00  0.00    +0.091 A 
ATOM      6  C   UNL     1       2.459  -3.611  -1.923  0.00  0.00    -0.021 A 
ATOM      7  C   UNL     1       2.895  -4.275  -3.015  0.00  0.00    -0.004 A 
ATOM      8  S   UNL     1       1.576  -4.130  -4.185  0.00  0.00    -0.077 S 
ATOM      9  C   UNL     1       0.483  -3.235  -3.276  0.00  0.00    +0.086 A 
ATOM     10  C   UNL     1       4.209  -4.974  -3.178  0.00  0.00    +0.046 C 
ATOM     11  C   UNL     1       4.838  -5.148  -1.788  0.00  0.00    -0.009 C 
ATOM     12  C   UNL     1       4.768  -3.813  -1.042  0.00  0.00    +0.008 C 
ATOM     13  C   UNL     1       3.317  -3.499  -0.671  0.00  0.00    +0.037 C 
ATOM     14  C   UNL     1       6.298  -5.579  -1.937  0.00  0.00    +0.008 C 
BRANCH   5  15
ATOM     15  C   UNL     1       0.505  -2.282  -0.979  0.00  0.00    +0.342 C 
ATOM     16  O   UNL     1      -0.177  -2.859  -0.154  0.00  0.00    -0.245 OA
BRANCH  15  17
ATOM     17  O   UNL     1       0.685  -0.948  -0.892  0.00  0.00    -0.461 OA
BRANCH  17  19
ATOM     18  C   UNL     1       0.359   1.218   0.129  0.00  0.00    +0.048 C 
ATOM     19  C   UNL     1       0.043  -0.277   0.195  0.00  0.00    +0.229 C 
ENDBRANCH  17  19
ENDBRANCH  15  17
ENDBRANCH   5  15
ENDBRANCH   1   9
BRANCH   2  20
ATOM     20  C   UNL     1      -2.625  -2.603  -5.283  0.00  0.00    +0.171 C 
BRANCH  20  21
ATOM     21  N   UNL     1      -2.909  -3.042  -6.651  0.00  0.00    -0.222 N 
ATOM     22  C   UNL     1      -2.228  -2.637  -7.738  0.00  0.00    +0.254 C 
ATOM     23  O   UNL     1      -1.294  -1.860  -7.740  0.00  0.00    -0.270 OA
ATOM     24  C   UNL     1      -2.806  -3.294  -8.929  0.00  0.00    +0.049 A 
ATOM     25  C   UNL     1      -2.524  -3.261 -10.285  0.00  0.00    +0.014 A 
ATOM     26  C   UNL     1      -3.281  -4.020 -11.163  0.00  0.00    +0.001 A 
ATOM     27  C   UNL     1      -4.315  -4.810 -10.695  0.00  0.00    +0.001 A 
ATOM     28  C   UNL     1      -4.609  -4.853  -9.341  0.00  0.00    +0.014 A 
ATOM     29  C   UNL     1      -3.860  -4.099  -8.452  0.00  0.00    +0.049 A 
ATOM     30  C   UNL     1      -3.883  -3.908  -6.986  0.00  0.00    +0.254 C 
ATOM     31  O   UNL     1      -4.654  -4.441  -6.214  0.00  0.00    -0.270 OA
ENDBRANCH  20  21
BRANCH  20  32
ATOM     32  C   UNL     1      -2.671  -1.075  -5.217  0.00  0.00    +0.035 C 
BRANCH  32  33
ATOM     33  C   UNL     1      -4.089  -0.594  -5.534  0.00  0.00    -0.015 C 
ATOM     34  C   UNL     1      -5.044  -1.064  -4.435  0.00  0.00    +0.007 C 
ATOM     35  C   UNL     1      -4.105   0.934  -5.605  0.00  0.00    +0.007 C 
ENDBRANCH  32  33
ENDBRANCH  20  32
ENDBRANCH   2  20
TORSDOF 8
