REMARK  Name = ZINC39451847
REMARK  5 active torsions:
REMARK  status: ('A' for Active; 'I' for Inactive)
REMARK    1  A    between atoms: C_1  and  C_2
REMARK    2  A    between atoms: C_2  and  O_3
REMARK    3  A    between atoms: O_3  and  C_4
REMARK    4  A    between atoms: C_14  and  C_17
REMARK    5  A    between atoms: C_22  and  O_23
REMARK                            x       y       z     vdW  Elec       q    Type
REMARK                         _______ _______ _______ _____ _____    ______ ____
ROOT
ATOM      1  C   UNL     1       0.770  -1.902   1.249  0.00  0.00    +0.211 C 
ATOM      2  C   UNL     1       1.720  -2.298   2.384  0.00  0.00    +0.132 C 
ATOM      3  C   UNL     1       1.102  -1.925   3.706  0.00  0.00    +0.187 C 
ATOM      4  O   UNL     1       1.818  -1.635   4.644  0.00  0.00    -0.290 OA
ATOM      5  C   UNL     1      -0.302  -1.907   3.866  0.00  0.00    +0.127 A 
ATOM      6  C   UNL     1      -1.119  -2.178   2.784  0.00  0.00    +0.084 A 
ATOM      7  C   UNL     1      -2.578  -2.168   2.951  0.00  0.00    +0.099 A 
ATOM      8  C   UNL     1      -3.101  -1.866   4.228  0.00  0.00    +0.068 A 
ATOM      9  C   UNL     1      -4.481  -1.848   4.414  0.00  0.00    +0.025 A 
ATOM     10  C   UNL     1      -5.293  -2.134   3.315  0.00  0.00    +0.004 A 
ATOM     11  C   UNL     1      -4.699  -2.423   2.081  0.00  0.00    +0.120 A 
ATOM     12  N   UNL     1      -3.393  -2.432   1.936  0.00  0.00    -0.252 NA
ATOM     13  C   UNL     1      -2.169  -1.579   5.328  0.00  0.00    +0.276 A 
ATOM     14  O   UNL     1      -2.598  -1.315   6.436  0.00  0.00    -0.266 OA
ATOM     15  N   UNL     1      -0.841  -1.609   5.111  0.00  0.00    -0.213 N 
ATOM     16 CL   UNL     1       0.217  -1.270   6.410  0.00  0.00    +0.022 Cl
ATOM     17  N   UNL     1      -0.561  -2.452   1.549  0.00  0.00    -0.315 N 
ATOM     18  H   UNL     1      -1.033  -2.994   0.897  0.00  0.00    +0.149 HD
ENDROOT
BRANCH  10  19
ATOM     19  C   UNL     1      -6.768  -2.129   3.452  0.00  0.00    +0.025 A 
ATOM     20  C   UNL     1      -7.377  -2.834   4.489  0.00  0.00    +0.012 A 
ATOM     21  C   UNL     1      -8.751  -2.826   4.613  0.00  0.00    +0.001 A 
ATOM     22  C   UNL     1      -9.529  -2.121   3.711  0.00  0.00    +0.004 A 
ATOM     23  C   UNL     1      -8.936  -1.418   2.679  0.00  0.00    +0.046 A 
ATOM     24  C   UNL     1      -7.556  -1.413   2.546  0.00  0.00    +0.125 A 
BRANCH  24  25
ATOM     25  O   UNL     1      -6.972  -0.718   1.535  0.00  0.00    -0.506 OA
ATOM     26  H   UNL     1      -6.854  -1.230   0.723  0.00  0.00    +0.292 HD
ENDBRANCH  24  25
ENDBRANCH  10  19
BRANCH   1  27
ATOM     27  O   UNL     1       0.693  -0.477   1.160  0.00  0.00    -0.359 OA
BRANCH  27  29
ATOM     28  C   UNL     1      -0.019   1.526   0.010  0.00  0.00    +0.034 C 
ATOM     29  C   UNL     1       0.002  -0.004   0.002  0.00  0.00    +0.159 C 
ENDBRANCH  27  29
ENDBRANCH   1  27
TORSDOF 4
