REMARK  Name = ZINC12497662
REMARK  13 active torsions:
REMARK  status: ('A' for Active; 'I' for Inactive)
REMARK    1  A    between atoms: C_1  and  C_2
REMARK    2  A    between atoms: C_2  and  C_3
REMARK    3  A    between atoms: C_3  and  C_4
REMARK    4  A    between atoms: C_4  and  C_32
REMARK    5  A    between atoms: C_9  and  C_11
REMARK    6  A    between atoms: C_16  and  C_17
REMARK    7  A    between atoms: N_20  and  C_23
REMARK    8  A    between atoms: C_26  and  O_29
REMARK    9  A    between atoms: O_29  and  C_30
REMARK   10  A    between atoms: C_30  and  C_31
REMARK   11  A    between atoms: C_32  and  O_34
REMARK   12  A    between atoms: O_34  and  C_35
REMARK   13  A    between atoms: C_35  and  C_36
REMARK                            x       y       z     vdW  Elec       q    Type
REMARK                         _______ _______ _______ _____ _____    ______ ____
ROOT
ATOM      1  C   UNL     1      -3.158  -1.324   0.398  0.00  0.00    +0.044 C 
ATOM      2  C   UNL     1      -4.035  -0.390   1.213  0.00  0.00    +0.086 C 
ATOM      3  C   UNL     1      -3.011   0.795   1.393  0.00  0.00    +0.077 C 
ATOM      4  C   UNL     1      -2.514   0.980   0.019  0.00  0.00    -0.026 C 
ATOM      5  C   UNL     1      -3.613   1.532   2.484  0.00  0.00    +0.229 C 
ATOM      6  O   UNL     1      -3.589   2.732   2.655  0.00  0.00    -0.275 OA
ATOM      7  N   UNL     1      -4.223   0.588   3.272  0.00  0.00    -0.210 N 
ATOM      8  C   UNL     1      -4.305  -0.634   2.664  0.00  0.00    +0.229 C 
ATOM      9  O   UNL     1      -4.546  -1.698   3.193  0.00  0.00    -0.275 OA
ATOM     10  N   UNL     1      -2.301  -0.433  -0.428  0.00  0.00    +0.395 N 
ATOM     11  H   UNL     1      -2.558  -0.525  -1.418  0.00  0.00    -0.083 HD
ATOM     12  H   UNL     1      -1.314  -0.690  -0.305  0.00  0.00    -0.083 HD
ENDROOT
BRANCH   4  13
ATOM     13  C   UNL     1      -1.219   1.751   0.017  0.00  0.00    -0.058 A 
ATOM     14  C   UNL     1      -0.013   1.076   0.008  0.00  0.00    +0.002 A 
ATOM     15  C   UNL     1       1.175   1.783   0.000  0.00  0.00    +0.000 A 
ATOM     16  C   UNL     1       1.156   3.166   0.008  0.00  0.00    +0.000 A 
ATOM     17  C   UNL     1      -0.050   3.840   0.023  0.00  0.00    +0.003 A 
ATOM     18  C   UNL     1      -1.238   3.133   0.029  0.00  0.00    -0.049 A 
ATOM     19  C   UNL     1      -2.553   3.868   0.046  0.00  0.00    +0.044 C 
ENDBRANCH   4  13
BRANCH   7  20
ATOM     20  C   UNL     1      -4.711   0.849   4.562  0.00  0.00    +0.044 A 
ATOM     21  C   UNL     1      -5.321  -0.162   5.291  0.00  0.00    +0.027 A 
ATOM     22  C   UNL     1      -5.797   0.094   6.562  0.00  0.00    +0.047 A 
ATOM     23  C   UNL     1      -5.674   1.365   7.106  0.00  0.00    +0.121 A 
ATOM     24  C   UNL     1      -5.069   2.377   6.375  0.00  0.00    +0.047 A 
ATOM     25  C   UNL     1      -4.588   2.120   5.106  0.00  0.00    +0.027 A 
BRANCH  23  26
ATOM     26  O   UNL     1      -6.146   1.618   8.355  0.00  0.00    -0.492 OA
BRANCH  26  27
ATOM     27  C   UNL     1      -6.758   0.529   9.050  0.00  0.00    +0.225 C 
ATOM     28  C   UNL     1      -7.224   1.002  10.429  0.00  0.00    +0.048 C 
ENDBRANCH  26  27
ENDBRANCH  23  26
ENDBRANCH   7  20
BRANCH   1  29
ATOM     29  C   UNL     1      -2.309  -2.171   1.311  0.00  0.00    +0.297 C 
ATOM     30  O   UNL     1      -2.693  -2.428   2.427  0.00  0.00    -0.252 OA
BRANCH  29  31
ATOM     31  O   UNL     1      -1.125  -2.638   0.884  0.00  0.00    -0.466 OA
BRANCH  31  32
ATOM     32  C   UNL     1      -0.361  -3.447   1.817  0.00  0.00    +0.228 C 
ATOM     33  C   UNL     1       0.948  -3.886   1.157  0.00  0.00    +0.048 C 
ENDBRANCH  31  32
ENDBRANCH  29  31
ENDBRANCH   1  29
BRANCH   1  34
ATOM     34  C   UNL     1      -4.022  -2.214  -0.498  0.00  0.00    -0.001 C 
BRANCH  34  36
ATOM     35  C   UNL     1      -3.985  -3.995  -2.249  0.00  0.00    +0.004 C 
ATOM     36  C   UNL     1      -3.121  -3.105  -1.354  0.00  0.00    -0.004 C 
ENDBRANCH  34  36
ENDBRANCH   1  34
TORSDOF 9
