REMARK  Name = ZINC45071612
REMARK  5 active torsions:
REMARK  status: ('A' for Active; 'I' for Inactive)
REMARK    1  A    between atoms: C_1  and  C_2
REMARK    2  A    between atoms: C_3  and  N_19
REMARK    3  A    between atoms: C_4  and  N_8
REMARK    4  A    between atoms: N_5  and  C_7
REMARK    5  A    between atoms: C_12  and  C_14
REMARK                            x       y       z     vdW  Elec       q    Type
REMARK                         _______ _______ _______ _____ _____    ______ ____
ROOT
ATOM      1  C   UNL     1      -1.458   0.728   1.100  0.00  0.00    +0.069 C 
ATOM      2  C   UNL     1      -0.588  -0.350   0.505  0.00  0.00    +0.082 A 
ATOM      3  C   UNL     1      -1.009  -1.341  -0.389  0.00  0.00    +0.088 A 
ATOM      4  C   UNL     1       0.071  -2.118  -0.690  0.00  0.00    +0.141 A 
ATOM      5  N   UNL     1       1.134  -1.622  -0.001  0.00  0.00    -0.252 N 
ATOM      6  N   UNL     1       0.691  -0.514   0.733  0.00  0.00    -0.173 NA
ATOM      7  C   UNL     1       2.500  -2.150  -0.026  0.00  0.00    +0.174 C 
ENDROOT
BRANCH   4   8
ATOM      8  N   UNL     1       0.083  -3.220  -1.548  0.00  0.00    -0.311 N 
ATOM      9  C   UNL     1       0.223  -3.165  -3.015  0.00  0.00    +0.107 C 
ATOM     10  C   UNL     1       0.791  -4.551  -3.410  0.00  0.00    +0.021 C 
ATOM     11  C   UNL     1       0.052  -5.486  -2.417  0.00  0.00    +0.024 C 
ATOM     12  C   UNL     1      -0.036  -4.627  -1.138  0.00  0.00    +0.078 C 
BRANCH  12  13
ATOM     13  C   UNL     1      -1.385  -4.856  -0.452  0.00  0.00    +0.009 C 
ATOM     14  C   UNL     1      -1.438  -4.084   0.882  0.00  0.00    +0.005 C 
ATOM     15  C   UNL     1      -2.218  -5.024   1.834  0.00  0.00    +0.000 C 
ATOM     16  C   UNL     1      -1.701  -6.427   1.428  0.00  0.00    +0.000 C 
ATOM     17  C   UNL     1      -1.552  -6.346  -0.105  0.00  0.00    +0.005 C 
ENDBRANCH  12  13
ENDBRANCH   4   8
BRANCH   3  18
ATOM     18  N   UNL     1      -2.321  -1.507  -0.890  0.00  0.00    -0.354 N 
ATOM     19  H   UNL     1      -3.047  -0.968  -0.538  0.00  0.00    +0.142 HD
ATOM     20  H   UNL     1      -2.495  -2.160  -1.586  0.00  0.00    +0.142 HD
ENDBRANCH   3  18
TORSDOF 3
