REMARK  Name = ZINC41585867
REMARK  9 active torsions:
REMARK  status: ('A' for Active; 'I' for Inactive)
REMARK    1  A    between atoms: C_1  and  C_2
REMARK    2  A    between atoms: C_2  and  N_3
REMARK    3  A    between atoms: C_5  and  C_14
REMARK    4  A    between atoms: C_10  and  O_12
REMARK    5  A    between atoms: O_12  and  C_13
REMARK    6  A    between atoms: C_19  and  C_39
REMARK    7  A    between atoms: C_21  and  O_38
REMARK    8  A    between atoms: C_22  and  C_25
REMARK    9  A    between atoms: C_25  and  N_26
REMARK                            x       y       z     vdW  Elec       q    Type
REMARK                         _______ _______ _______ _____ _____    ______ ____
ROOT
ATOM      1  C   UNL     1       0.722  -1.550  -4.624  0.00  0.00    +0.060 C 
ATOM      2  C   UNL     1      -0.553  -1.725  -5.074  0.00  0.00    +0.176 C 
ATOM      3  C   UNL     1      -1.736  -1.388  -4.366  0.00  0.00    +0.232 C 
ATOM      4  O   UNL     1      -1.819  -0.893  -3.254  0.00  0.00    -0.283 OA
ATOM      5  C   UNL     1      -2.843  -1.764  -5.263  0.00  0.00    +0.071 A 
ATOM      6  C   UNL     1      -4.232  -1.690  -5.157  0.00  0.00    -0.033 A 
ATOM      7  C   UNL     1      -5.017  -2.130  -6.186  0.00  0.00    +0.050 A 
ATOM      8  C   UNL     1      -4.434  -2.652  -7.338  0.00  0.00    +0.125 A 
ATOM      9  C   UNL     1      -3.056  -2.732  -7.456  0.00  0.00    +0.051 A 
ATOM     10  C   UNL     1      -2.245  -2.288  -6.420  0.00  0.00    +0.148 A 
ATOM     11  O   UNL     1      -0.904  -2.245  -6.275  0.00  0.00    -0.451 OA
ATOM     12  C   UNL     1      -4.866  -1.126  -3.912  0.00  0.00    +0.045 C 
ENDROOT
BRANCH   1  15
ATOM     13  N   UNL     1       0.752  -0.903  -1.033  0.00  0.00    -0.346 N 
ATOM     14  C   UNL     1       0.224  -1.492  -2.134  0.00  0.00    +0.094 A 
ATOM     15  C   UNL     1       0.958  -1.132  -3.244  0.00  0.00    +0.004 A 
ATOM     16  C   UNL     1       2.031  -0.242  -2.761  0.00  0.00    +0.011 A 
ATOM     17  C   UNL     1       1.847  -0.132  -1.373  0.00  0.00    +0.050 A 
ATOM     18  C   UNL     1       2.716   0.659  -0.629  0.00  0.00    +0.030 A 
ATOM     19  C   UNL     1       3.745   1.330  -1.255  0.00  0.00    +0.047 A 
ATOM     20  C   UNL     1       3.925   1.224  -2.630  0.00  0.00    +0.121 A 
ATOM     21  C   UNL     1       3.076   0.435  -3.384  0.00  0.00    +0.056 A 
BRANCH  13  23
ATOM     22  C   UNL     1      -0.721   0.097   0.644  0.00  0.00    +0.027 C 
ATOM     23  C   UNL     1       0.231  -1.059   0.327  0.00  0.00    +0.118 C 
ENDBRANCH  13  23
BRANCH  20  24
ATOM     24  O   UNL     1       4.945   1.892  -3.233  0.00  0.00    -0.495 OA
ATOM     25  C   UNL     1       5.790   2.682  -2.394  0.00  0.00    +0.277 C 
ENDBRANCH  20  24
ENDBRANCH   1  15
BRANCH   8  26
ATOM     26  O   UNL     1      -5.223  -3.087  -8.353  0.00  0.00    -0.506 OA
ATOM     27  H   UNL     1      -5.436  -2.406  -9.006  0.00  0.00    +0.292 HD
ENDBRANCH   8  26
BRANCH   9  28
ATOM     28  C   UNL     1      -2.438  -3.300  -8.708  0.00  0.00    +0.127 C 
BRANCH  28  29
ATOM     29  N   UNL     1      -2.212  -2.219  -9.677  0.00  0.00    -0.295 NA
ATOM     30  C   UNL     1      -1.207  -1.269  -9.181  0.00  0.00    +0.103 C 
ATOM     31  C   UNL     1      -1.132  -0.068 -10.130  0.00  0.00    +0.122 C 
ATOM     32  N   UNL     1      -0.900  -0.564 -11.495  0.00  0.00    -0.314 N 
ATOM     33  C   UNL     1      -1.785  -1.618 -12.012  0.00  0.00    +0.122 C 
ATOM     34  C   UNL     1      -1.834  -2.758 -10.989  0.00  0.00    +0.103 C 
ATOM     35  C   UNL     1       0.130  -0.051 -12.274  0.00  0.00    +0.099 A 
ATOM     36  C   UNL     1       0.246  -0.440 -13.605  0.00  0.00    +0.042 A 
ATOM     37  C   UNL     1       1.276   0.079 -14.370  0.00  0.00    +0.005 A 
ATOM     38  C   UNL     1       2.158   0.972 -13.776  0.00  0.00    +0.018 A 
ATOM     39  C   UNL     1       1.983   1.314 -12.450  0.00  0.00    +0.084 A 
ATOM     40  N   UNL     1       0.988   0.807 -11.746  0.00  0.00    -0.350 N 
ATOM     41  H   UNL     1       0.886   1.067 -10.817  0.00  0.00    +0.166 HD
ENDBRANCH  28  29
ENDBRANCH   9  28
TORSDOF 6
