REMARK  Name = ZINC40033250
REMARK  7 active torsions:
REMARK  status: ('A' for Active; 'I' for Inactive)
REMARK    1  A    between atoms: C_1  and  C_2
REMARK    2  A    between atoms: C_2  and  N_3
REMARK    3  A    between atoms: N_10  and  N_11
REMARK    4  A    between atoms: C_12  and  C_13
REMARK    5  A    between atoms: C_16  and  N_19
REMARK    6  A    between atoms: C_29  and  C_30
REMARK    7  A    between atoms: C_29  and  C_31
REMARK                            x       y       z     vdW  Elec       q    Type
REMARK                         _______ _______ _______ _____ _____    ______ ____
ROOT
ATOM      1  N   UNL     1       0.862  -0.205  -1.328  0.00  0.00    -0.280 N 
ATOM      2  C   UNL     1       0.103  -0.513  -2.403  0.00  0.00    +0.260 A 
ATOM      3  O   UNL     1      -1.103  -0.328  -2.387  0.00  0.00    -0.267 OA
ATOM      4  C   UNL     1       0.730  -1.048  -3.535  0.00  0.00    +0.049 A 
ATOM      5  C   UNL     1       2.104  -1.240  -3.511  0.00  0.00    +0.084 A 
ATOM      6  N   UNL     1       2.803  -0.924  -2.416  0.00  0.00    -0.214 NA
ATOM      7  C   UNL     1       2.207  -0.416  -1.356  0.00  0.00    +0.219 A 
ATOM      8  N   UNL     1       2.958  -0.097  -0.254  0.00  0.00    -0.206 N 
ATOM      9  C   UNL     1       2.771  -1.791  -4.712  0.00  0.00    +0.004 A 
ATOM     10  C   UNL     1       4.043  -2.350  -4.630  0.00  0.00    +0.010 A 
ATOM     11  C   UNL     1       4.639  -2.861  -5.766  0.00  0.00    +0.001 A 
ATOM     12  C   UNL     1       3.974  -2.817  -6.979  0.00  0.00    +0.000 A 
ATOM     13  C   UNL     1       2.711  -2.261  -7.064  0.00  0.00    +0.004 A 
ATOM     14  C   UNL     1       2.105  -1.744  -5.938  0.00  0.00    -0.037 A 
ATOM     15  C   UNL     1       0.736  -1.125  -6.025  0.00  0.00    +0.047 C 
ATOM     16  C   UNL     1      -0.065  -1.413  -4.757  0.00  0.00    +0.001 C 
ATOM     17  C   UNL     1      -0.412  -2.902  -4.707  0.00  0.00    +0.016 C 
ATOM     18  C   UNL     1      -1.357  -0.594  -4.780  0.00  0.00    +0.016 C 
ATOM     19  H   UNL     1       2.530   0.274   0.534  0.00  0.00    +0.177 HD
ENDROOT
BRANCH   1  21
ATOM     20  C   UNL     1       0.215   1.887  -0.241  0.00  0.00    +0.027 C 
ATOM     21  C   UNL     1       0.236   0.362  -0.131  0.00  0.00    +0.125 C 
ENDBRANCH   1  21
BRANCH   8  22
ATOM     22  N   UNL     1       4.343  -0.306  -0.265  0.00  0.00    -0.188 NA
ATOM     23  C   UNL     1       5.053  -0.005   0.778  0.00  0.00    +0.138 C 
BRANCH  23  24
ATOM     24  C   UNL     1       6.511  -0.226   0.766  0.00  0.00    -0.005 A 
ATOM     25  C   UNL     1       7.132  -0.754  -0.368  0.00  0.00    +0.012 A 
ATOM     26  C   UNL     1       8.496  -0.958  -0.373  0.00  0.00    +0.033 A 
ATOM     27  C   UNL     1       9.250  -0.640   0.744  0.00  0.00    +0.126 A 
ATOM     28  C   UNL     1       8.642  -0.116   1.871  0.00  0.00    +0.033 A 
ATOM     29  C   UNL     1       7.279   0.098   1.887  0.00  0.00    +0.012 A 
BRANCH  27  30
ATOM     30  N   UNL     1      10.713  -0.862   0.732  0.00  0.00    +0.056 N 
ATOM     31  O   UNL     1      11.247  -1.320  -0.252  0.00  0.00    -0.126 OA
ATOM     32  O   UNL     1      11.374  -0.586   1.705  0.00  0.00    -0.126 OA
ENDBRANCH  27  30
ENDBRANCH  23  24
ENDBRANCH   8  22
TORSDOF 4
