REMARK  Name = ZINC02614288
REMARK  9 active torsions:
REMARK  status: ('A' for Active; 'I' for Inactive)
REMARK    1  A    between atoms: C_1  and  C_2
REMARK    2  A    between atoms: C_4  and  C_36
REMARK    3  A    between atoms: C_5  and  N_9
REMARK    4  A    between atoms: C_6  and  C_8
REMARK    5  A    between atoms: C_10  and  C_12
REMARK    6  A    between atoms: C_12  and  S_13
REMARK    7  A    between atoms: S_13  and  C_14
REMARK    8  A    between atoms: C_22  and  C_26
REMARK    9  A    between atoms: N_29  and  C_30
REMARK                            x       y       z     vdW  Elec       q    Type
REMARK                         _______ _______ _______ _____ _____    ______ ____
ROOT
ATOM      1  C   UNL     1      -7.313   5.282  -2.013  0.00  0.00    +0.178 A 
ATOM      2  N   UNL     1      -6.928   6.531  -1.843  0.00  0.00    -0.215 NA
ATOM      3  C   UNL     1      -7.761   7.436  -1.343  0.00  0.00    +0.117 A 
ATOM      4  C   UNL     1      -9.079   7.117  -0.974  0.00  0.00    +0.076 A 
ATOM      5  C   UNL     1      -9.877   8.222  -0.437  0.00  0.00    -0.023 A 
ATOM      6  C   UNL     1      -9.276   9.425  -0.350  0.00  0.00    -0.004 A 
ATOM      7  S   UNL     1      -7.635   9.167  -0.969  0.00  0.00    -0.073 S 
ATOM      8  C   UNL     1      -9.872  10.703   0.159  0.00  0.00    +0.046 C 
ATOM      9  C   UNL     1     -11.396  10.532   0.229  0.00  0.00    -0.009 C 
ATOM     10  C   UNL     1     -11.710   9.203   0.922  0.00  0.00    +0.008 C 
ATOM     11  C   UNL     1     -11.325   8.038   0.010  0.00  0.00    +0.037 C 
ATOM     12  C   UNL     1     -12.008  11.684   1.028  0.00  0.00    +0.008 C 
ATOM     13  C   UNL     1      -9.469   5.755  -1.169  0.00  0.00    +0.268 A 
ATOM     14  O   UNL     1     -10.594   5.387  -0.878  0.00  0.00    -0.267 OA
ATOM     15  N   UNL     1      -8.580   4.887  -1.685  0.00  0.00    -0.255 N 
ENDROOT
BRANCH  15  16
ATOM     16  C   UNL     1      -8.957   3.553  -1.885  0.00  0.00    +0.052 A 
ATOM     17  C   UNL     1      -9.542   3.167  -3.084  0.00  0.00    +0.026 A 
ATOM     18  C   UNL     1      -9.908   1.850  -3.279  0.00  0.00    +0.002 A 
ATOM     19  C   UNL     1      -9.704   0.918  -2.278  0.00  0.00    +0.000 A 
ATOM     20  C   UNL     1      -9.127   1.300  -1.081  0.00  0.00    +0.002 A 
ATOM     21  C   UNL     1      -8.754   2.615  -0.881  0.00  0.00    +0.026 A 
ENDBRANCH  15  16
BRANCH   1  22
ATOM     22  S   UNL     1      -6.181   4.107  -2.679  0.00  0.00    -0.078 S 
BRANCH  22  23
ATOM     23  C   UNL     1      -4.732   5.165  -2.915  0.00  0.00    +0.173 C 
BRANCH  23  25
ATOM     24  N   UNL     1      -2.417   4.933  -3.754  0.00  0.00    -0.284 N 
ATOM     25  C   UNL     1      -3.603   4.350  -3.493  0.00  0.00    +0.228 C 
ATOM     26  O   UNL     1      -3.763   3.170  -3.722  0.00  0.00    -0.275 OA
ATOM     27  H   UNL     1      -2.269   5.862  -3.517  0.00  0.00    +0.155 HD
BRANCH  24  32
ATOM     28  C   UNL     1       1.718   1.953  -6.247  0.00  0.00    +0.044 C 
ATOM     29  C   UNL     1       0.619   2.745  -5.585  0.00  0.00    -0.050 A 
ATOM     30  C   UNL     1      -0.632   2.810  -6.169  0.00  0.00    +0.008 A 
ATOM     31  C   UNL     1      -1.639   3.539  -5.567  0.00  0.00    -0.029 A 
ATOM     32  C   UNL     1      -1.397   4.198  -4.369  0.00  0.00    +0.039 A 
ATOM     33  C   UNL     1      -0.139   4.130  -3.785  0.00  0.00    -0.029 A 
ATOM     34  C   UNL     1       0.866   3.404  -4.394  0.00  0.00    +0.008 A 
ATOM     35  C   UNL     1       0.131   4.849  -2.488  0.00  0.00    +0.045 C 
ATOM     36  C   UNL     1      -3.002   3.614  -6.207  0.00  0.00    +0.045 C 
ENDBRANCH  24  32
ENDBRANCH  23  25
ENDBRANCH  22  23
ENDBRANCH   1  22
TORSDOF 5
