REMARK  Name = ZINC13182800
REMARK  11 active torsions:
REMARK  status: ('A' for Active; 'I' for Inactive)
REMARK    1  A    between atoms: C_1  and  O_2
REMARK    2  A    between atoms: O_2  and  C_3
REMARK    3  A    between atoms: C_6  and  C_11
REMARK    4  A    between atoms: C_8  and  O_9
REMARK    5  A    between atoms: O_9  and  C_10
REMARK    6  A    between atoms: C_11  and  C_13
REMARK    7  A    between atoms: C_11  and  N_16
REMARK    8  A    between atoms: C_13  and  C_14
REMARK    9  A    between atoms: C_17  and  C_19
REMARK   10  A    between atoms: C_23  and  S_25
REMARK   11  A    between atoms: S_25  and  N_28
REMARK                            x       y       z     vdW  Elec       q    Type
REMARK                         _______ _______ _______ _____ _____    ______ ____
ROOT
ATOM      1  N   UNL     1       4.328   1.254  -0.921  0.00  0.00    -0.304 N 
ATOM      2  C   UNL     1       5.320   1.772  -1.671  0.00  0.00    +0.245 C 
ATOM      3  O   UNL     1       5.487   2.975  -1.710  0.00  0.00    -0.270 OA
ATOM      4  H   UNL     1       4.149   0.301  -0.945  0.00  0.00    +0.150 HD
ENDROOT
BRANCH   2   5
ATOM      5  C   UNL     1       6.204   0.878  -2.446  0.00  0.00    +0.039 A 
ATOM      6  C   UNL     1       6.018  -0.506  -2.399  0.00  0.00    +0.016 A 
ATOM      7  C   UNL     1       6.842  -1.335  -3.128  0.00  0.00    +0.041 A 
ATOM      8  C   UNL     1       7.862  -0.799  -3.899  0.00  0.00    +0.150 A 
ATOM      9  C   UNL     1       8.056   0.573  -3.946  0.00  0.00    +0.141 A 
ATOM     10  C   UNL     1       7.233   1.412  -3.225  0.00  0.00    +0.044 A 
ATOM     11  F   UNL     1       8.671  -1.617  -4.607  0.00  0.00    -0.203 F 
BRANCH   9  12
ATOM     12  S   UNL     1       9.354   1.245  -4.929  0.00  0.00    +0.064 S 
ATOM     13  O   UNL     1       9.252   0.636  -6.208  0.00  0.00    -0.153 OA
ATOM     14  O   UNL     1       9.310   2.654  -4.750  0.00  0.00    -0.153 OA
BRANCH  12  15
ATOM     15  N   UNL     1      10.784   0.729  -4.272  0.00  0.00    -0.176 NA
ATOM     16  C   UNL     1      11.463   1.522  -3.239  0.00  0.00    +0.109 C 
ATOM     17  C   UNL     1      11.727   0.620  -2.024  0.00  0.00    +0.017 C 
ATOM     18  C   UNL     1      12.504  -0.619  -2.476  0.00  0.00    +0.003 C 
ATOM     19  C   UNL     1      11.668  -1.406  -3.488  0.00  0.00    +0.017 C 
ATOM     20  C   UNL     1      11.400  -0.529  -4.715  0.00  0.00    +0.109 C 
ENDBRANCH  12  15
ENDBRANCH   9  12
ENDBRANCH   2   5
BRANCH   1  21
ATOM     21  C   UNL     1       3.519   2.130  -0.069  0.00  0.00    +0.114 C 
BRANCH  21  25
ATOM     22  C   UNL     1      -0.326   0.361   0.543  0.00  0.00    +0.162 A 
ATOM     23  C   UNL     1       0.812  -0.429   0.550  0.00  0.00    +0.050 A 
ATOM     24  C   UNL     1       2.054   0.146   0.352  0.00  0.00    +0.009 A 
ATOM     25  C   UNL     1       2.163   1.509   0.147  0.00  0.00    -0.023 A 
ATOM     26  C   UNL     1       1.032   2.303   0.140  0.00  0.00    +0.055 A 
ATOM     27  C   UNL     1      -0.216   1.733   0.338  0.00  0.00    +0.162 A 
BRANCH  22  29
ATOM     28  C   UNL     1      -1.585  -1.616   0.942  0.00  0.00    +0.277 C 
ATOM     29  O   UNL     1      -1.548  -0.203   0.737  0.00  0.00    -0.491 OA
ENDBRANCH  22  29
BRANCH  27  30
ATOM     30  O   UNL     1      -1.330   2.512   0.325  0.00  0.00    -0.491 OA
ATOM     31  C   UNL     1      -1.141   3.912   0.108  0.00  0.00    +0.277 C 
ENDBRANCH  27  30
ENDBRANCH  21  25
BRANCH  21  32
ATOM     32  C   UNL     1       4.217   2.314   1.280  0.00  0.00    +0.152 C 
BRANCH  32  33
ATOM     33  C   UNL     1       3.471   3.340   2.095  0.00  0.00    +0.358 C 
ATOM     34  O   UNL     1       2.560   3.959   1.599  0.00  0.00    -0.246 OA
ATOM     35  O   UNL     1       3.819   3.565   3.371  0.00  0.00    -0.246 OA
ENDBRANCH  32  33
ENDBRANCH  21  32
ENDBRANCH   1  21
TORSDOF 9
