REMARK  Name = ZINC12704071
REMARK  12 active torsions:
REMARK  status: ('A' for Active; 'I' for Inactive)
REMARK    1  A    between atoms: C_1  and  C_2
REMARK    2  A    between atoms: C_5  and  C_7
REMARK    3  A    between atoms: N_10  and  C_12
REMARK    4  A    between atoms: C_12  and  C_13
REMARK    5  A    between atoms: N_15  and  C_16
REMARK    6  A    between atoms: N_15  and  C_24
REMARK    7  A    between atoms: C_21  and  O_22
REMARK    8  A    between atoms: O_22  and  C_23
REMARK    9  A    between atoms: C_24  and  C_26
REMARK   10  A    between atoms: C_24  and  C_32
REMARK   11  A    between atoms: C_29  and  C_31
REMARK   12  A    between atoms: N_34  and  C_35
REMARK                            x       y       z     vdW  Elec       q    Type
REMARK                         _______ _______ _______ _____ _____    ______ ____
ROOT
ATOM      1  C   UNL     1      -0.107   1.337  -0.225  0.00  0.00    +0.244 C 
ATOM      2  O   UNL     1      -0.053   0.145  -0.446  0.00  0.00    -0.273 OA
ATOM      3  N   UNL     1      -1.292   1.920   0.043  0.00  0.00    -0.247 N 
ENDROOT
BRANCH   3   4
ATOM      4  C   UNL     1      -1.353   3.296   0.299  0.00  0.00    +0.079 A 
ATOM      5  C   UNL     1      -1.605   4.185  -0.736  0.00  0.00    +0.027 A 
ATOM      6  C   UNL     1      -1.666   5.542  -0.481  0.00  0.00    +0.002 A 
ATOM      7  C   UNL     1      -1.477   6.017   0.803  0.00  0.00    +0.004 A 
ATOM      8  C   UNL     1      -1.226   5.137   1.840  0.00  0.00    +0.047 A 
ATOM      9  C   UNL     1      -1.169   3.775   1.594  0.00  0.00    +0.141 A 
BRANCH   9  10
ATOM     10  O   UNL     1      -0.928   2.908   2.613  0.00  0.00    -0.493 OA
ATOM     11  C   UNL     1      -0.748   3.470   3.915  0.00  0.00    +0.277 C 
ENDBRANCH   9  10
ENDBRANCH   3   4
BRANCH   1  12
ATOM     12  C   UNL     1       1.151   2.166  -0.256  0.00  0.00    +0.264 C 
BRANCH  12  16
ATOM     13  C   UNL     1       3.950   0.018  -0.370  0.00  0.00    +0.239 A 
ATOM     14  N   UNL     1       3.746   0.266  -1.673  0.00  0.00    -0.105 NA
ATOM     15  N   UNL     1       2.729   1.054  -1.758  0.00  0.00    -0.045 NA
ATOM     16  N   UNL     1       2.295   1.307  -0.574  0.00  0.00    -0.154 N 
ATOM     17  N   UNL     1       3.026   0.690   0.290  0.00  0.00    -0.127 NA
BRANCH  13  22
ATOM     18  C   UNL     1       6.781  -2.399   2.998  0.00  0.00    +0.086 C 
ATOM     19  C   UNL     1       6.248  -1.895   1.681  0.00  0.00    +0.103 A 
ATOM     20  C   UNL     1       6.747  -2.195   0.466  0.00  0.00    +0.045 A 
ATOM     21  C   UNL     1       5.952  -1.522  -0.483  0.00  0.00    +0.053 A 
ATOM     22  C   UNL     1       5.007  -0.836   0.212  0.00  0.00    +0.175 A 
ATOM     23  O   UNL     1       5.197  -1.075   1.524  0.00  0.00    -0.457 OA
ENDBRANCH  13  22
ENDBRANCH  12  16
ENDBRANCH   1  12
BRANCH   3  24
ATOM     24  C   UNL     1      -2.516   1.115   0.068  0.00  0.00    +0.233 C 
BRANCH  24  25
ATOM     25  C   UNL     1      -2.408   0.070   1.149  0.00  0.00    +0.135 A 
ATOM     26  C   UNL     1      -3.397  -0.306   1.980  0.00  0.00    +0.047 A 
ATOM     27  C   UNL     1      -2.863  -1.305   2.826  0.00  0.00    +0.045 A 
ATOM     28  C   UNL     1      -1.578  -1.473   2.468  0.00  0.00    +0.102 A 
ATOM     29  O   UNL     1      -1.308  -0.637   1.452  0.00  0.00    -0.462 OA
ATOM     30  C   UNL     1      -0.605  -2.436   3.099  0.00  0.00    +0.086 C 
ENDBRANCH  24  25
BRANCH  24  31
ATOM     31  C   UNL     1      -2.699   0.439  -1.266  0.00  0.00    +0.242 C 
ATOM     32  O   UNL     1      -1.818   0.491  -2.099  0.00  0.00    -0.273 OA
ATOM     33  N   UNL     1      -3.841  -0.224  -1.535  0.00  0.00    -0.311 N 
ATOM     34  H   UNL     1      -4.546  -0.266  -0.869  0.00  0.00    +0.149 HD
BRANCH  33  35
ATOM     35  C   UNL     1      -4.020  -0.881  -2.832  0.00  0.00    +0.073 C 
ATOM     36  C   UNL     1      -4.613   0.114  -3.851  0.00  0.00    +0.022 C 
ATOM     37  C   UNL     1      -5.582  -0.746  -4.700  0.00  0.00    +0.002 C 
ATOM     38  C   UNL     1      -6.202  -1.700  -3.650  0.00  0.00    +0.002 C 
ATOM     39  C   UNL     1      -5.030  -2.034  -2.704  0.00  0.00    +0.022 C 
ENDBRANCH  33  35
ENDBRANCH  24  31
ENDBRANCH   3  24
TORSDOF 9
