REMARK  Name = ZINC36207781
REMARK  13 active torsions:
REMARK  status: ('A' for Active; 'I' for Inactive)
REMARK    1  A    between atoms: C_1  and  C_2
REMARK    2  A    between atoms: C_2  and  C_3
REMARK    3  A    between atoms: C_3  and  N_4
REMARK    4  A    between atoms: N_4  and  C_5
REMARK    5  A    between atoms: N_4  and  C_24
REMARK    6  A    between atoms: C_5  and  C_6
REMARK    7  A    between atoms: C_12  and  C_17
REMARK    8  A    between atoms: C_24  and  C_25
REMARK    9  A    between atoms: C_25  and  C_27
REMARK   10  A    between atoms: C_25  and  O_36
REMARK   11  A    between atoms: C_27  and  O_28
REMARK   12  A    between atoms: O_28  and  C_29
REMARK   13  A    between atoms: C_34  and  C_35
REMARK                            x       y       z     vdW  Elec       q    Type
REMARK                         _______ _______ _______ _____ _____    ______ ____
ROOT
ATOM      1  C   UNL     1       1.318  -2.672   0.011  0.00  0.00    -0.003 C 
ENDROOT
BRANCH   1   2
ATOM      2  C   UNL     1       0.685  -2.342  -1.316  0.00  0.00    +0.094 A 
ATOM      3  N   UNL     1       1.223  -2.847  -2.455  0.00  0.00    -0.312 N 
ATOM      4  H   UNL     1       2.008  -3.414  -2.400  0.00  0.00    +0.170 HD
ATOM      5  C   UNL     1       0.688  -2.578  -3.661  0.00  0.00    +0.260 A 
ATOM      6  O   UNL     1       1.183  -3.039  -4.675  0.00  0.00    -0.267 OA
ATOM      7  C   UNL     1      -0.471  -1.741  -3.734  0.00  0.00    +0.080 A 
ATOM      8  C   UNL     1      -1.224  -1.309  -4.904  0.00  0.00    +0.004 A 
ATOM      9  C   UNL     1      -2.302  -0.507  -4.726  0.00  0.00    +0.056 A 
ATOM     10  S   UNL     1      -2.364  -0.286  -2.959  0.00  0.00    -0.076 S 
ATOM     11  C   UNL     1      -0.956  -1.265  -2.505  0.00  0.00    +0.116 A 
ATOM     12  N   UNL     1      -0.375  -1.580  -1.350  0.00  0.00    -0.229 NA
BRANCH   8  13
ATOM     13  C   UNL     1      -0.819  -1.738  -6.264  0.00  0.00    -0.016 A 
ATOM     14  C   UNL     1       0.506  -1.601  -6.675  0.00  0.00    +0.010 A 
ATOM     15  C   UNL     1       0.878  -2.003  -7.942  0.00  0.00    +0.020 A 
ATOM     16  C   UNL     1      -0.062  -2.542  -8.804  0.00  0.00    +0.041 A 
ATOM     17  C   UNL     1      -1.380  -2.679  -8.401  0.00  0.00    +0.020 A 
ATOM     18  C   UNL     1      -1.761  -2.286  -7.135  0.00  0.00    +0.010 A 
ATOM     19 CL   UNL     1       0.412  -3.045 -10.396  0.00  0.00    -0.084 Cl
ENDBRANCH   8  13
ENDBRANCH   1   2
BRANCH   1  20
ATOM     20  N   UNL     1       0.655  -1.905   1.074  0.00  0.00    +0.386 N 
ATOM     21  H   UNL     1      -0.341  -2.066   1.035  0.00  0.00    -0.081 HD
BRANCH  20  22
ATOM     22  C   UNL     1       0.926  -0.473   0.887  0.00  0.00    -0.078 C 
BRANCH  22  24
ATOM     23  C   UNL     1       2.726   1.254   0.754  0.00  0.00    +0.002 C 
ATOM     24  C   UNL     1       2.420  -0.208   1.085  0.00  0.00    -0.022 C 
ENDBRANCH  22  24
ENDBRANCH  20  22
BRANCH  20  25
ATOM     25  C   UNL     1       1.169  -2.334   2.382  0.00  0.00    -0.043 C 
BRANCH  25  26
ATOM     26  C   UNL     1       0.357  -1.665   3.493  0.00  0.00    +0.135 C 
BRANCH  26  27
ATOM     27  O   UNL     1       0.597  -0.256   3.476  0.00  0.00    -0.390 OA
ATOM     28  H   UNL     1       1.523  -0.013   3.613  0.00  0.00    +0.210 HD
ENDBRANCH  26  27
BRANCH  26  29
ATOM     29  C   UNL     1       0.779  -2.238   4.848  0.00  0.00    +0.258 C 
BRANCH  29  30
ATOM     30  O   UNL     1      -0.057  -1.700   5.874  0.00  0.00    -0.489 OA
BRANCH  30  31
ATOM     31  C   UNL     1       0.186  -2.109   7.147  0.00  0.00    +0.124 A 
ATOM     32  C   UNL     1       1.213  -3.007   7.403  0.00  0.00    +0.046 A 
ATOM     33  C   UNL     1       1.458  -3.421   8.698  0.00  0.00    +0.004 A 
ATOM     34  C   UNL     1       0.682  -2.943   9.737  0.00  0.00    +0.000 A 
ATOM     35  C   UNL     1      -0.342  -2.049   9.484  0.00  0.00    +0.007 A 
ATOM     36  C   UNL     1      -0.588  -1.627   8.192  0.00  0.00    -0.009 A 
ATOM     37  C   UNL     1      -1.700  -0.647   7.917  0.00  0.00    +0.047 C 
ENDBRANCH  30  31
ENDBRANCH  29  30
ENDBRANCH  26  29
ENDBRANCH  25  26
ENDBRANCH  20  25
ENDBRANCH   1  20
TORSDOF 11
