REMARK  Name = ZINC20083177
REMARK  13 active torsions:
REMARK  status: ('A' for Active; 'I' for Inactive)
REMARK    1  A    between atoms: C_1  and  C_2
REMARK    2  A    between atoms: C_4  and  C_41
REMARK    3  A    between atoms: C_9  and  C_14
REMARK    4  A    between atoms: C_14  and  C_16
REMARK    5  A    between atoms: C_14  and  N_25
REMARK    6  A    between atoms: N_20  and  C_21
REMARK    7  A    between atoms: C_21  and  C_22
REMARK    8  A    between atoms: C_21  and  C_23
REMARK    9  A    between atoms: C_21  and  C_24
REMARK   10  A    between atoms: N_25  and  C_26
REMARK   11  A    between atoms: N_25  and  C_33
REMARK   12  A    between atoms: C_26  and  C_27
REMARK   13  A    between atoms: C_33  and  C_34
REMARK                            x       y       z     vdW  Elec       q    Type
REMARK                         _______ _______ _______ _____ _____    ______ ____
ROOT
ATOM      1  C   UNL     1       0.911  -3.407  -2.260  0.00  0.00    +0.163 C 
ENDROOT
BRANCH   1  10
ATOM      2  C   UNL     1       3.607  -3.856  -9.199  0.00  0.00    +0.044 C 
ATOM      3  C   UNL     1       2.507  -3.485  -8.238  0.00  0.00    -0.050 A 
ATOM      4  C   UNL     1       1.327  -2.934  -8.721  0.00  0.00    +0.008 A 
ATOM      5  C   UNL     1       0.309  -2.587  -7.860  0.00  0.00    -0.026 A 
ATOM      6  C   UNL     1       0.462  -2.789  -6.492  0.00  0.00    +0.052 A 
ATOM      7  C   UNL     1       1.660  -3.347  -6.006  0.00  0.00    -0.001 A 
ATOM      8  C   UNL     1       2.680  -3.692  -6.899  0.00  0.00    +0.013 A 
ATOM      9  C   UNL     1       1.813  -3.552  -4.564  0.00  0.00    +0.021 A 
ATOM     10  C   UNL     1       0.788  -3.204  -3.748  0.00  0.00    +0.042 A 
ATOM     11  C   UNL     1      -0.392  -2.649  -4.287  0.00  0.00    +0.254 A 
ATOM     12  O   UNL     1      -1.300  -2.339  -3.534  0.00  0.00    -0.268 OA
ATOM     13  N   UNL     1      -0.541  -2.452  -5.608  0.00  0.00    -0.322 N 
ATOM     14  H   UNL     1      -1.479  -2.016  -5.981  0.00  0.00    +0.169 HD
ATOM     15  C   UNL     1      -0.966  -1.991  -8.398  0.00  0.00    +0.046 C 
ENDBRANCH   1  10
BRANCH   1  16
ATOM     16  C   UNL     1      -0.147  -4.374  -1.795  0.00  0.00    +0.174 A 
ATOM     17  N   UNL     1      -1.419  -4.115  -1.616  0.00  0.00    -0.111 NA
ATOM     18  N   UNL     1      -1.994  -5.197  -1.217  0.00  0.00    -0.023 NA
ATOM     19  N   UNL     1      -1.119  -6.138  -1.129  0.00  0.00    -0.043 NA
ATOM     20  N   UNL     1       0.032  -5.670  -1.477  0.00  0.00    -0.222 N 
BRANCH  20  21
ATOM     21  C   UNL     1       1.296  -6.409  -1.519  0.00  0.00    +0.059 C 
ATOM     22  C   UNL     1       2.267  -5.818  -0.495  0.00  0.00    +0.036 C 
ATOM     23  C   UNL     1       1.037  -7.880  -1.186  0.00  0.00    +0.036 C 
ATOM     24  C   UNL     1       1.903  -6.303  -2.919  0.00  0.00    +0.036 C 
ENDBRANCH  20  21
ENDBRANCH   1  16
BRANCH   1  25
ATOM     25  N   UNL     1       0.734  -2.120  -1.574  0.00  0.00    -0.280 NA
BRANCH  25  26
ATOM     26  C   UNL     1       1.045  -2.239  -0.143  0.00  0.00    +0.121 C 
BRANCH  26  27
ATOM     27  C   UNL     1      -0.082  -2.952   0.558  0.00  0.00    -0.033 A 
ATOM     28  C   UNL     1      -1.366  -2.443   0.498  0.00  0.00    +0.005 A 
ATOM     29  C   UNL     1      -2.401  -3.100   1.137  0.00  0.00    +0.000 A 
ATOM     30  C   UNL     1      -2.150  -4.261   1.845  0.00  0.00    +0.000 A 
ATOM     31  C   UNL     1      -0.865  -4.767   1.909  0.00  0.00    +0.000 A 
ATOM     32  C   UNL     1       0.169  -4.113   1.266  0.00  0.00    +0.005 A 
ENDBRANCH  26  27
ENDBRANCH  25  26
BRANCH  25  33
ATOM     33  C   UNL     1       1.547  -1.071  -2.204  0.00  0.00    +0.121 C 
BRANCH  33  34
ATOM     34  C   UNL     1       1.160   0.271  -1.641  0.00  0.00    -0.033 A 
ATOM     35  C   UNL     1       1.807   0.764  -0.523  0.00  0.00    +0.008 A 
ATOM     36  C   UNL     1       1.453   1.996  -0.005  0.00  0.00    +0.038 A 
ATOM     37  C   UNL     1       0.450   2.736  -0.607  0.00  0.00    +0.123 A 
ATOM     38  C   UNL     1      -0.198   2.242  -1.727  0.00  0.00    +0.038 A 
ATOM     39  C   UNL     1       0.158   1.010  -2.242  0.00  0.00    +0.008 A 
ATOM     40  F   UNL     1       0.103   3.940  -0.102  0.00  0.00    -0.205 F 
ENDBRANCH  33  34
ENDBRANCH  25  33
ENDBRANCH   1  25
TORSDOF 8
