REMARK  Name = ZINC63280095
REMARK  10 active torsions:
REMARK  status: ('A' for Active; 'I' for Inactive)
REMARK    1  A    between atoms: C_1  and  C_2
REMARK    2  A    between atoms: C_2  and  C_4
REMARK    3  A    between atoms: C_2  and  N_14
REMARK    4  A    between atoms: C_4  and  C_5
REMARK    5  A    between atoms: C_15  and  C_17
REMARK    6  A    between atoms: C_21  and  C_24
REMARK    7  A    between atoms: C_27  and  O_32
REMARK    8  A    between atoms: C_28  and  O_30
REMARK    9  A    between atoms: O_30  and  C_31
REMARK   10  A    between atoms: O_32  and  C_33
REMARK                            x       y       z     vdW  Elec       q    Type
REMARK                         _______ _______ _______ _____ _____    ______ ____
ROOT
ATOM      1  N   UNL     1       0.710  -0.309  -1.252  0.00  0.00    -0.309 N 
ATOM      2  C   UNL     1      -0.000  -0.653  -2.345  0.00  0.00    +0.239 C 
ATOM      3  O   UNL     1      -1.217  -0.610  -2.320  0.00  0.00    -0.271 OA
ATOM      4  H   UNL     1       1.679  -0.344  -1.273  0.00  0.00    +0.149 HD
ENDROOT
BRANCH   2   5
ATOM      5  C   UNL     1       0.668  -1.064  -3.522  0.00  0.00    +0.086 C 
ATOM      6  C   UNL     1      -0.033  -1.292  -4.652  0.00  0.00    +0.020 C 
ATOM      7  C   UNL     1       0.606  -1.890  -5.900  0.00  0.00    +0.121 C 
ATOM      8  S   UNL     1      -0.867  -2.725  -6.634  0.00  0.00    -0.128 S 
ATOM      9  C   UNL     1      -2.147  -1.721  -5.767  0.00  0.00    +0.159 C 
ATOM     10  N   UNL     1      -1.349  -1.013  -4.751  0.00  0.00    -0.331 N 
ATOM     11  H   UNL     1      -1.762  -0.357  -4.168  0.00  0.00    +0.147 HD
BRANCH   9  12
ATOM     12  C   UNL     1      -3.177  -2.609  -5.118  0.00  0.00    -0.014 A 
ATOM     13  C   UNL     1      -2.981  -3.064  -3.828  0.00  0.00    +0.010 A 
ATOM     14  C   UNL     1      -3.922  -3.879  -3.228  0.00  0.00    +0.050 A 
ATOM     15  C   UNL     1      -5.067  -4.241  -3.920  0.00  0.00    +0.162 A 
ATOM     16  C   UNL     1      -5.265  -3.783  -5.219  0.00  0.00    +0.162 A 
ATOM     17  C   UNL     1      -4.319  -2.962  -5.813  0.00  0.00    +0.055 A 
BRANCH  16  18
ATOM     18  O   UNL     1      -6.386  -4.136  -5.903  0.00  0.00    -0.491 OA
ATOM     19  C   UNL     1      -6.522  -3.628  -7.232  0.00  0.00    +0.277 C 
ENDBRANCH  16  18
BRANCH  15  20
ATOM     20  O   UNL     1      -5.994  -5.043  -3.332  0.00  0.00    -0.491 OA
ATOM     21  C   UNL     1      -5.724  -5.476  -1.997  0.00  0.00    +0.277 C 
ENDBRANCH  15  20
ENDBRANCH   9  12
ENDBRANCH   2   5
BRANCH   1  23
ATOM     22  C   UNL     1      -0.296   1.611  -0.121  0.00  0.00    +0.028 C 
ATOM     23  C   UNL     1       0.017   0.116  -0.034  0.00  0.00    +0.074 C 
BRANCH  23  24
ATOM     24  C   UNL     1       0.911  -0.148   1.179  0.00  0.00    +0.055 C 
BRANCH  24  25
ATOM     25  C   UNL     1       1.119  -1.632   1.337  0.00  0.00    -0.040 C 
ATOM     26  C   UNL     1       2.159  -2.361   0.872  0.00  0.00    -0.001 A 
ATOM     27  C   UNL     1       3.361  -2.005   0.109  0.00  0.00    +0.010 A 
ATOM     28  C   UNL     1       4.242  -2.977  -0.219  0.00  0.00    +0.001 A 
ATOM     29  C   UNL     1       4.037  -4.313   0.149  0.00  0.00    +0.002 A 
ATOM     30  C   UNL     1       2.957  -4.718   0.851  0.00  0.00    +0.026 A 
ATOM     31  C   UNL     1       1.966  -3.779   1.250  0.00  0.00    +0.043 A 
ATOM     32  N   UNL     1       0.849  -3.921   1.922  0.00  0.00    -0.380 N 
ATOM     33  C   UNL     1       0.211  -2.607   2.052  0.00  0.00    +0.144 C 
ATOM     34  H   UNL     1       0.505  -4.755   2.278  0.00  0.00    +0.160 HD
ENDBRANCH  24  25
ENDBRANCH  23  24
ENDBRANCH   1  23
TORSDOF 7
