REMARK  Name = ZINC59169620
REMARK  15 active torsions:
REMARK  status: ('A' for Active; 'I' for Inactive)
REMARK    1  A    between atoms: C_1  and  C_2
REMARK    2  A    between atoms: C_5  and  C_32
REMARK    3  A    between atoms: C_6  and  N_8
REMARK    4  A    between atoms: N_8  and  C_9
REMARK    5  A    between atoms: C_9  and  N_11
REMARK    6  A    between atoms: N_11  and  C_12
REMARK    7  A    between atoms: N_11  and  C_22
REMARK    8  A    between atoms: C_12  and  C_13
REMARK    9  A    between atoms: C_16  and  N_19
REMARK   10  A    between atoms: N_19  and  C_20
REMARK   11  A    between atoms: N_19  and  C_21
REMARK   12  A    between atoms: C_24  and  C_30
REMARK   13  A    between atoms: C_24  and  C_31
REMARK   14  A    between atoms: C_26  and  C_28
REMARK   15  A    between atoms: C_26  and  C_29
REMARK                            x       y       z     vdW  Elec       q    Type
REMARK                         _______ _______ _______ _____ _____    ______ ____
ROOT
ATOM      1  N   UNL     1       1.140  -2.583   4.339  0.00  0.00    -0.305 N 
ENDROOT
BRANCH   1   2
ATOM      2  C   UNL     1       1.441  -4.009   4.157  0.00  0.00    +0.073 C 
ATOM      3  C   UNL     1       2.539  -4.159   3.102  0.00  0.00    +0.009 C 
ATOM      4  C   UNL     1       2.855  -5.640   2.891  0.00  0.00    -0.072 C 
ATOM      5  N   UNL     1       1.665  -6.415   2.573  0.00  0.00    +0.386 N 
ATOM      6  C   UNL     1       0.481  -6.201   3.390  0.00  0.00    -0.072 C 
ATOM      7  C   UNL     1       0.190  -4.728   3.653  0.00  0.00    +0.009 C 
ATOM      8  C   UNL     1      -0.728  -6.777   2.615  0.00  0.00    -0.010 C 
ATOM      9  C   UNL     1       0.564  -6.962   4.716  0.00  0.00    -0.010 C 
ATOM     10  C   UNL     1       3.599  -6.198   4.104  0.00  0.00    -0.010 C 
ATOM     11  C   UNL     1       3.813  -5.736   1.681  0.00  0.00    -0.010 C 
ATOM     12  H   UNL     1       1.418  -6.237   1.597  0.00  0.00    -0.084 HD
ATOM     13  H   UNL     1       1.909  -7.408   2.612  0.00  0.00    -0.084 HD
ENDBRANCH   1   2
BRANCH   1  14
ATOM     14  C   UNL     1       0.828  -1.819   3.274  0.00  0.00    +0.138 C 
ATOM     15  S   UNL     1       0.607  -0.132   3.466  0.00  0.00    -0.018 S 
BRANCH  14  16
ATOM     16  N   UNL     1       0.691  -2.382   2.057  0.00  0.00    -0.297 N 
ATOM     17  H   UNL     1       0.724  -3.347   1.963  0.00  0.00    +0.154 HD
BRANCH  16  23
ATOM     18  C   UNL     1      -1.966   0.997  -0.329  0.00  0.00    +0.044 C 
ATOM     19  C   UNL     1      -0.779   0.072  -0.253  0.00  0.00    -0.049 A 
ATOM     20  C   UNL     1       0.125   0.021  -1.299  0.00  0.00    +0.004 A 
ATOM     21  C   UNL     1       1.216  -0.826  -1.233  0.00  0.00    +0.005 A 
ATOM     22  C   UNL     1       1.406  -1.624  -0.122  0.00  0.00    -0.029 A 
ATOM     23  C   UNL     1       0.501  -1.575   0.930  0.00  0.00    +0.036 A 
ATOM     24  C   UNL     1      -0.591  -0.719   0.864  0.00  0.00    +0.027 A 
ATOM     25  C   UNL     1       2.595  -2.547  -0.051  0.00  0.00    +0.045 C 
ENDBRANCH  16  23
ENDBRANCH  14  16
ENDBRANCH   1  14
BRANCH   1  26
ATOM     26  C   UNL     1       1.178  -1.992   5.679  0.00  0.00    +0.142 C 
BRANCH  26  27
ATOM     27  C   UNL     1      -0.184  -2.102   6.316  0.00  0.00    -0.030 A 
ATOM     28  C   UNL     1      -1.111  -1.091   6.141  0.00  0.00    +0.007 A 
ATOM     29  C   UNL     1      -2.359  -1.189   6.723  0.00  0.00    +0.023 A 
ATOM     30  C   UNL     1      -2.683  -2.305   7.484  0.00  0.00    +0.029 A 
ATOM     31  C   UNL     1      -1.750  -3.319   7.657  0.00  0.00    +0.023 A 
ATOM     32  C   UNL     1      -0.505  -3.217   7.068  0.00  0.00    +0.007 A 
BRANCH  30  33
ATOM     33  N   UNL     1      -3.945  -2.407   8.075  0.00  0.00    -0.336 N 
ATOM     34  C   UNL     1      -4.970  -1.399   7.792  0.00  0.00    +0.129 C 
ATOM     35  C   UNL     1      -4.244  -3.522   8.976  0.00  0.00    +0.129 C 
ENDBRANCH  30  33
ENDBRANCH  26  27
ENDBRANCH   1  26
TORSDOF 7
