REMARK  Name = ZINC09358663
REMARK  10 active torsions:
REMARK  status: ('A' for Active; 'I' for Inactive)
REMARK    1  A    between atoms: C_1  and  C_2
REMARK    2  A    between atoms: C_2  and  C_3
REMARK    3  A    between atoms: C_3  and  C_4
REMARK    4  A    between atoms: C_4  and  C_5
REMARK    5  A    between atoms: C_5  and  C_6
REMARK    6  A    between atoms: C_6  and  N_7
REMARK    7  A    between atoms: C_10  and  C_11
REMARK    8  A    between atoms: N_12  and  C_13
REMARK    9  A    between atoms: C_19  and  N_52
REMARK   10  A    between atoms: C_23  and  O_27
REMARK                            x       y       z     vdW  Elec       q    Type
REMARK                         _______ _______ _______ _____ _____    ______ ____
ROOT
ATOM      1  N   UNL     1      -0.377  -0.045   0.019  0.00  0.00    -0.223 N 
ATOM      2  C   UNL     1      -0.157  -0.682  -1.151  0.00  0.00    +0.240 C 
ATOM      3  O   UNL     1       0.077  -0.061  -2.171  0.00  0.00    -0.274 OA
ATOM      4  C   UNL     1      -0.202  -2.155  -1.151  0.00  0.00    +0.199 C 
ATOM      5  C   UNL     1      -0.497  -2.814   0.129  0.00  0.00    +0.198 C 
ATOM      6  N   UNL     1      -0.698  -2.058   1.196  0.00  0.00    -0.131 NA
ATOM      7  C   UNL     1      -0.639  -0.730   1.141  0.00  0.00    +0.335 C 
ATOM      8  O   UNL     1      -0.835  -0.102   2.167  0.00  0.00    -0.250 OA
ENDROOT
BRANCH   4   9
ATOM      9  C   UNL     1       0.018  -2.887  -2.308  0.00  0.00    +0.100 C 
ATOM     10  N   UNL     1       0.137  -4.227  -2.245  0.00  0.00    -0.293 NA
BRANCH  10  11
ATOM     11  C   UNL     1       0.245  -5.011  -3.477  0.00  0.00    +0.090 C 
ATOM     12  C   UNL     1      -1.155  -5.308  -4.018  0.00  0.00    +0.025 C 
ATOM     13  C   UNL     1      -1.946  -6.102  -2.976  0.00  0.00    +0.002 C 
ATOM     14  C   UNL     1      -1.224  -7.418  -2.680  0.00  0.00    -0.001 C 
ATOM     15  C   UNL     1       0.176  -7.121  -2.140  0.00  0.00    -0.014 C 
ATOM     16  C   UNL     1       0.968  -6.327  -3.182  0.00  0.00    -0.050 C 
BRANCH  16  19
ATOM     17  H   UNL     1       2.810  -6.896  -2.460  0.00  0.00    -0.090 HD
ATOM     18  H   UNL     1       2.833  -5.464  -3.306  0.00  0.00    -0.090 HD
ATOM     19  N   UNL     1       2.306  -6.030  -2.642  0.00  0.00    +0.381 N 
ATOM     20  H   UNL     1       2.207  -5.509  -1.762  0.00  0.00    -0.090 HD
ENDBRANCH  16  19
ENDBRANCH  10  11
ENDBRANCH   4   9
BRANCH   5  21
ATOM     21  O   UNL     1      -0.563  -4.159   0.214  0.00  0.00    -0.496 OA
ATOM     22  H   UNL     1      -0.763  -4.487   1.101  0.00  0.00    +0.293 HD
ENDBRANCH   5  21
BRANCH   1  23
ATOM     23  C   UNL     1      -0.336   1.419   0.061  0.00  0.00    +0.118 C 
BRANCH  23  24
ATOM     24  C   UNL     1       1.088   1.880   0.375  0.00  0.00    +0.019 C 
BRANCH  24  25
ATOM     25  C   UNL     1       1.131   3.409   0.419  0.00  0.00    +0.002 C 
BRANCH  25  26
ATOM     26  C   UNL     1       2.556   3.870   0.733  0.00  0.00    -0.000 C 
BRANCH  26  28
ATOM     27  C   UNL     1       4.024   5.860   1.091  0.00  0.00    +0.004 C 
ATOM     28  C   UNL     1       2.599   5.399   0.777  0.00  0.00    -0.003 C 
ENDBRANCH  26  28
ENDBRANCH  25  26
ENDBRANCH  24  25
ENDBRANCH  23  24
ENDBRANCH   1  23
TORSDOF 9
