REMARK  Name = ZINC05018169
REMARK  6 active torsions:
REMARK  status: ('A' for Active; 'I' for Inactive)
REMARK    1  A    between atoms: C_1  and  O_2
REMARK    2  A    between atoms: O_2  and  C_3
REMARK    3  A    between atoms: C_6  and  C_9
REMARK    4  A    between atoms: C_12  and  C_15
REMARK    5  A    between atoms: C_12  and  O_22
REMARK    6  A    between atoms: C_15  and  O_21
REMARK                            x       y       z     vdW  Elec       q    Type
REMARK                         _______ _______ _______ _____ _____    ______ ____
ROOT
ATOM      1  C   UNL     1       3.719  -0.680  -0.053  0.00  0.00    +0.176 C 
ATOM      2  C   UNL     1       4.259  -0.802   1.388  0.00  0.00    +0.094 C 
ATOM      3  C   UNL     1       5.785  -0.599   1.195  0.00  0.00    +0.170 C 
ATOM      4  N   UNL     1       5.817   0.402   0.094  0.00  0.00    -0.167 NA
ATOM      5  O   UNL     1       4.710   0.038  -0.802  0.00  0.00    -0.289 OA
ATOM      6  H   UNL     1       6.701   0.375  -0.393  0.00  0.00    +0.157 HD
ENDROOT
BRANCH   1  10
ATOM      7  C   UNL     1       0.031   1.480  -0.057  0.00  0.00    +0.120 A 
ATOM      8  C   UNL     1       1.238   2.165  -0.062  0.00  0.00    +0.046 A 
ATOM      9  C   UNL     1       2.428   1.464  -0.060  0.00  0.00    +0.010 A 
ATOM     10  C   UNL     1       2.419   0.082  -0.055  0.00  0.00    -0.017 A 
ATOM     11  C   UNL     1       1.218  -0.603  -0.051  0.00  0.00    +0.010 A 
ATOM     12  C   UNL     1       0.024   0.092  -0.052  0.00  0.00    +0.046 A 
BRANCH   7  14
ATOM     13  C   UNL     1      -1.058   3.593  -0.070  0.00  0.00    +0.277 C 
ATOM     14  O   UNL     1      -1.141   2.166  -0.064  0.00  0.00    -0.495 OA
ENDBRANCH   7  14
ENDBRANCH   1  10
BRANCH   3  15
ATOM     15  C   UNL     1       6.428  -0.038   2.464  0.00  0.00    +0.110 C 
ATOM     16  C   UNL     1       7.910   0.242   2.204  0.00  0.00    +0.039 C 
ATOM     17  C   UNL     1       8.553   0.802   3.474  0.00  0.00    +0.003 C 
ATOM     18  C   UNL     1       8.419  -0.217   4.607  0.00  0.00    +0.000 C 
ATOM     19  C   UNL     1       6.937  -0.497   4.867  0.00  0.00    +0.003 C 
ATOM     20  C   UNL     1       6.294  -1.058   3.597  0.00  0.00    +0.039 C 
BRANCH  15  21
ATOM     21  O   UNL     1       5.772   1.175   2.835  0.00  0.00    -0.384 OA
ATOM     22  H   UNL     1       6.129   1.587   3.634  0.00  0.00    +0.210 HD
ENDBRANCH  15  21
ENDBRANCH   3  15
BRANCH   3  23
ATOM     23  O   UNL     1       6.417  -1.817   0.797  0.00  0.00    -0.370 OA
ATOM     24  H   UNL     1       6.013  -2.236   0.025  0.00  0.00    +0.212 HD
ENDBRANCH   3  23
TORSDOF 5
