REMARK  Name = ZINC22371952
REMARK  11 active torsions:
REMARK  status: ('A' for Active; 'I' for Inactive)
REMARK    1  A    between atoms: C_1  and  C_2
REMARK    2  A    between atoms: C_5  and  N_8
REMARK    3  A    between atoms: N_8  and  C_9
REMARK    4  A    between atoms: N_8  and  S_24
REMARK    5  A    between atoms: C_9  and  C_10
REMARK    6  A    between atoms: N_12  and  C_13
REMARK    7  A    between atoms: C_13  and  C_15
REMARK    8  A    between atoms: C_13  and  C_16
REMARK    9  A    between atoms: C_19  and  C_23
REMARK   10  A    between atoms: C_20  and  C_22
REMARK   11  A    between atoms: S_24  and  C_27
REMARK                            x       y       z     vdW  Elec       q    Type
REMARK                         _______ _______ _______ _____ _____    ______ ____
ROOT
ATOM      1  N   UNL     1       1.223  -2.923  -1.606  0.00  0.00    -0.194 N 
ENDROOT
BRANCH   1   6
ATOM      2  C   UNL     1      -3.677  -4.220  -4.149  0.00  0.00    +0.044 C 
ATOM      3  C   UNL     1      -2.375  -3.875  -3.473  0.00  0.00    -0.050 A 
ATOM      4  C   UNL     1      -2.064  -4.435  -2.247  0.00  0.00    +0.005 A 
ATOM      5  C   UNL     1      -0.872  -4.121  -1.625  0.00  0.00    +0.025 A 
ATOM      6  C   UNL     1       0.016  -3.242  -2.232  0.00  0.00    +0.052 A 
ATOM      7  C   UNL     1      -0.301  -2.678  -3.462  0.00  0.00    +0.025 A 
ATOM      8  C   UNL     1      -1.493  -3.000  -4.080  0.00  0.00    +0.005 A 
ENDBRANCH   1   6
BRANCH   1   9
ATOM      9  S   UNL     1       1.217  -2.213  -0.110  0.00  0.00    +0.075 S 
ATOM     10  O   UNL     1       2.413  -2.623   0.539  0.00  0.00    -0.150 OA
ATOM     11  O   UNL     1      -0.070  -2.447   0.445  0.00  0.00    -0.150 OA
BRANCH   9  12
ATOM     12  C   UNL     1       1.349  -0.473  -0.358  0.00  0.00    +0.109 A 
ATOM     13  C   UNL     1       0.207   0.293  -0.500  0.00  0.00    +0.030 A 
ATOM     14  C   UNL     1       0.311   1.658  -0.694  0.00  0.00    +0.022 A 
ATOM     15  C   UNL     1       1.557   2.256  -0.746  0.00  0.00    +0.041 A 
ATOM     16  C   UNL     1       2.699   1.488  -0.605  0.00  0.00    +0.022 A 
ATOM     17  C   UNL     1       2.595   0.124  -0.410  0.00  0.00    +0.030 A 
ATOM     18 CL   UNL     1       1.687   3.970  -0.991  0.00  0.00    -0.084 Cl
ENDBRANCH   9  12
ENDBRANCH   1   9
BRANCH   1  19
ATOM     19  C   UNL     1       2.494  -3.215  -2.273  0.00  0.00    +0.227 C 
BRANCH  19  20
ATOM     20  C   UNL     1       2.893  -4.641  -1.992  0.00  0.00    +0.233 C 
ATOM     21  O   UNL     1       2.185  -5.344  -1.302  0.00  0.00    -0.274 OA
ATOM     22  N   UNL     1       4.036  -5.135  -2.506  0.00  0.00    -0.307 N 
ATOM     23  H   UNL     1       4.679  -4.498  -3.131  0.00  0.00    +0.149 HD
BRANCH  22  24
ATOM     24  C   UNL     1       4.423  -6.521  -2.233  0.00  0.00    +0.100 C 
ATOM     25  C   UNL     1       5.168  -6.589  -0.897  0.00  0.00    +0.033 C 
BRANCH  24  26
ATOM     26  C   UNL     1       5.323  -7.018  -3.335  0.00  0.00    -0.027 A 
ATOM     27  C   UNL     1       6.284  -6.182  -3.873  0.00  0.00    +0.006 A 
ATOM     28  C   UNL     1       7.112  -6.639  -4.881  0.00  0.00    +0.004 A 
ATOM     29  C   UNL     1       6.974  -7.930  -5.357  0.00  0.00    -0.048 A 
ATOM     30  C   UNL     1       6.010  -8.764  -4.822  0.00  0.00    -0.047 A 
ATOM     31  C   UNL     1       5.184  -8.308  -3.811  0.00  0.00    +0.009 A 
ATOM     32  C   UNL     1       5.859 -10.171  -5.341  0.00  0.00    +0.044 C 
ATOM     33  C   UNL     1       7.874  -8.427  -6.459  0.00  0.00    +0.044 C 
ENDBRANCH  24  26
ENDBRANCH  22  24
ENDBRANCH  19  20
ENDBRANCH   1  19
TORSDOF 7
