REMARK  Name = ZINC08825981
REMARK  10 active torsions:
REMARK  status: ('A' for Active; 'I' for Inactive)
REMARK    1  A    between atoms: C_1  and  C_2
REMARK    2  A    between atoms: C_3  and  C_13
REMARK    3  A    between atoms: C_4  and  C_12
REMARK    4  A    between atoms: C_9  and  C_10
REMARK    5  A    between atoms: C_13  and  C_14
REMARK    6  A    between atoms: C_14  and  C_15
REMARK    7  A    between atoms: N_23  and  C_24
REMARK    8  A    between atoms: C_29  and  C_30
REMARK    9  A    between atoms: C_30  and  C_31
REMARK   10  A    between atoms: C_30  and  C_32
REMARK                            x       y       z     vdW  Elec       q    Type
REMARK                         _______ _______ _______ _____ _____    ______ ____
ROOT
ATOM      1  C   UNL     1       3.134  -0.936  -1.280  0.00  0.00    +0.222 C 
ATOM      2  O   UNL     1       2.995  -2.139  -1.221  0.00  0.00    -0.275 OA
ATOM      3  N   UNL     1       2.054  -0.137  -1.398  0.00  0.00    -0.251 N 
ATOM      4  C   UNL     1       0.703  -0.706  -1.455  0.00  0.00    +0.116 C 
ATOM      5  C   UNL     1      -0.161  -0.127  -0.337  0.00  0.00    +0.030 C 
ATOM      6  C   UNL     1      -0.362   1.375  -0.548  0.00  0.00    +0.079 C 
ATOM      7  S   UNL     1       1.233   2.216  -0.344  0.00  0.00    -0.090 S 
ATOM      8  C   UNL     1       2.195   1.245  -1.468  0.00  0.00    +0.163 C 
ATOM      9  N   UNL     1       3.008   1.806  -2.332  0.00  0.00    -0.226 NA
ENDROOT
BRANCH   9  10
ATOM     10  C   UNL     1       3.221   3.158  -2.294  0.00  0.00    +0.070 A 
ATOM     11  C   UNL     1       3.573   3.779  -1.093  0.00  0.00    +0.028 A 
ATOM     12  C   UNL     1       3.787   5.141  -1.062  0.00  0.00    +0.002 A 
ATOM     13  C   UNL     1       3.652   5.892  -2.216  0.00  0.00    +0.000 A 
ATOM     14  C   UNL     1       3.304   5.284  -3.409  0.00  0.00    +0.006 A 
ATOM     15  C   UNL     1       3.093   3.921  -3.456  0.00  0.00    -0.019 A 
BRANCH  15  16
ATOM     16  C   UNL     1       2.719   3.259  -4.757  0.00  0.00    +0.015 C 
ATOM     17  C   UNL     1       1.411   3.857  -5.277  0.00  0.00    +0.012 C 
ATOM     18  C   UNL     1       3.829   3.491  -5.784  0.00  0.00    +0.012 C 
ENDBRANCH  15  16
ENDBRANCH   9  10
BRANCH   1  19
ATOM     19  C   UNL     1       4.514  -0.333  -1.223  0.00  0.00    +0.101 C 
BRANCH  19  20
ATOM     20  C   UNL     1       5.552  -1.448  -1.090  0.00  0.00    +0.046 C 
BRANCH  20  23
ATOM     21  C   UNL     1       6.973  -0.817  -3.553  0.00  0.00    +0.045 C 
ATOM     22  C   UNL     1       7.611  -0.544  -2.215  0.00  0.00    -0.023 A 
ATOM     23  C   UNL     1       6.932  -0.846  -1.033  0.00  0.00    -0.024 A 
ATOM     24  C   UNL     1       7.515  -0.602   0.168  0.00  0.00    +0.019 A 
ATOM     25  N   UNL     1       8.755  -0.061   0.250  0.00  0.00    -0.325 N 
ATOM     26  H   UNL     1       9.148   0.102   1.122  0.00  0.00    +0.169 HD
ATOM     27  C   UNL     1       9.451   0.253  -0.859  0.00  0.00    +0.267 A 
ATOM     28  O   UNL     1      10.565   0.738  -0.765  0.00  0.00    -0.266 OA
ATOM     29  C   UNL     1       8.883   0.016  -2.138  0.00  0.00    +0.119 A 
ATOM     30  C   UNL     1       6.770  -0.939   1.434  0.00  0.00    +0.063 C 
BRANCH  29  31
ATOM     31  C   UNL     1       9.608   0.343  -3.329  0.00  0.00    +0.105 C 
ATOM     32  N   UNL     1      10.183   0.603  -4.274  0.00  0.00    -0.191 NA
ENDBRANCH  29  31
ENDBRANCH  20  23
ENDBRANCH  19  20
ENDBRANCH   1  19
TORSDOF 6
