REMARK  Name = ZINC58913261
REMARK  9 active torsions:
REMARK  status: ('A' for Active; 'I' for Inactive)
REMARK    1  A    between atoms: C_1  and  C_2
REMARK    2  A    between atoms: C_5  and  N_9
REMARK    3  A    between atoms: C_6  and  C_8
REMARK    4  A    between atoms: C_10  and  C_31
REMARK    5  A    between atoms: C_12  and  C_15
REMARK    6  A    between atoms: C_13  and  C_14
REMARK    7  A    between atoms: N_16  and  N_17
REMARK    8  A    between atoms: C_18  and  C_20
REMARK    9  A    between atoms: N_22  and  C_23
REMARK                            x       y       z     vdW  Elec       q    Type
REMARK                         _______ _______ _______ _____ _____    ______ ____
ROOT
ATOM      1  C   UNL     1       1.698  -7.423  -0.049  0.00  0.00    +0.140 C 
ATOM      2  N   UNL     1       2.987  -7.262  -0.050  0.00  0.00    -0.187 NA
ENDROOT
BRANCH   1   6
ATOM      3  N   UNL     1       0.060  -4.171  -0.056  0.00  0.00    -0.317 N 
ATOM      4  C   UNL     1      -1.048  -4.969  -0.053  0.00  0.00    +0.022 A 
ATOM      5  C   UNL     1      -0.658  -6.257  -0.051  0.00  0.00    +0.032 A 
ATOM      6  C   UNL     1       0.808  -6.250  -0.051  0.00  0.00    +0.016 A 
ATOM      7  C   UNL     1       1.185  -4.936  -0.060  0.00  0.00    +0.030 A 
ATOM      8  C   UNL     1       2.602  -4.423  -0.070  0.00  0.00    +0.064 C 
ATOM      9  C   UNL     1      -2.476  -4.486  -0.053  0.00  0.00    +0.064 C 
BRANCH   3  14
ATOM     10  C   UNL     1      -0.017   1.504  -0.068  0.00  0.00    +0.044 C 
ATOM     11  C   UNL     1       0.003  -0.003  -0.065  0.00  0.00    -0.050 A 
ATOM     12  C   UNL     1       0.006  -0.696  -1.262  0.00  0.00    +0.005 A 
ATOM     13  C   UNL     1       0.025  -2.076  -1.262  0.00  0.00    +0.026 A 
ATOM     14  C   UNL     1       0.041  -2.769  -0.059  0.00  0.00    +0.049 A 
ATOM     15  C   UNL     1       0.038  -2.071   1.141  0.00  0.00    -0.026 A 
ATOM     16  C   UNL     1       0.025  -0.690   1.135  0.00  0.00    +0.008 A 
ATOM     17  C   UNL     1       0.055  -2.820   2.449  0.00  0.00    +0.046 C 
ENDBRANCH   3  14
ENDBRANCH   1   6
BRANCH   2  18
ATOM     18  N   UNL     1       3.833  -8.378  -0.048  0.00  0.00    -0.199 N 
ATOM     19  C   UNL     1       5.171  -8.211  -0.048  0.00  0.00    +0.318 C 
ATOM     20  O   UNL     1       5.642  -7.091  -0.050  0.00  0.00    -0.263 OA
ATOM     21  H   UNL     1       3.457  -9.272  -0.046  0.00  0.00    +0.178 HD
BRANCH  19  22
ATOM     22  C   UNL     1       6.071  -9.399  -0.046  0.00  0.00    +0.305 C 
ATOM     23  O   UNL     1       5.599 -10.517  -0.043  0.00  0.00    -0.265 OA
ATOM     24  N   UNL     1       7.408  -9.231  -0.046  0.00  0.00    -0.278 N 
ATOM     25  H   UNL     1       7.785  -8.340  -0.115  0.00  0.00    +0.155 HD
BRANCH  24  26
ATOM     26  C   UNL     1       8.252 -10.341   0.054  0.00  0.00    +0.035 A 
ATOM     27  C   UNL     1       9.447 -10.246   0.756  0.00  0.00    +0.025 A 
ATOM     28  C   UNL     1      10.278 -11.344   0.853  0.00  0.00    +0.023 A 
ATOM     29  C   UNL     1       9.924 -12.538   0.251  0.00  0.00    +0.059 A 
ATOM     30  C   UNL     1       8.734 -12.636  -0.450  0.00  0.00    +0.061 A 
ATOM     31  C   UNL     1       7.894 -11.542  -0.545  0.00  0.00    +0.044 A 
ATOM     32 CL   UNL     1       8.293 -14.136  -1.206  0.00  0.00    -0.082 Cl
ATOM     33 CL   UNL     1      10.972 -13.916   0.375  0.00  0.00    -0.082 Cl
ENDBRANCH  24  26
ENDBRANCH  19  22
ENDBRANCH   2  18
TORSDOF 5
