REMARK  Name = ZINC18529743
REMARK  8 active torsions:
REMARK  status: ('A' for Active; 'I' for Inactive)
REMARK    1  A    between atoms: C_1  and  C_2
REMARK    2  A    between atoms: C_5  and  C_8
REMARK    3  A    between atoms: C_10  and  C_13
REMARK    4  A    between atoms: C_13  and  O_15
REMARK    5  A    between atoms: O_15  and  C_16
REMARK    6  A    between atoms: C_16  and  C_18
REMARK    7  A    between atoms: C_16  and  C_19
REMARK    8  A    between atoms: C_30  and  C_32
REMARK                            x       y       z     vdW  Elec       q    Type
REMARK                         _______ _______ _______ _____ _____    ______ ____
ROOT
ATOM      1  C   UNL     1       2.572  -0.073   0.495  0.00  0.00    +0.261 C 
ATOM      2  O   UNL     1       1.679  -0.504   1.194  0.00  0.00    -0.271 OA
ATOM      3  N   UNL     1       2.402   1.079  -0.182  0.00  0.00    -0.258 N 
ATOM      4  C   UNL     1       3.505   1.682  -0.945  0.00  0.00    +0.209 C 
ATOM      5  C   UNL     1       3.503   3.172  -0.718  0.00  0.00    +0.235 C 
ATOM      6  O   UNL     1       4.546   3.789  -0.777  0.00  0.00    -0.274 OA
ATOM      7  N   UNL     1       2.357   3.827  -0.449  0.00  0.00    -0.283 N 
ATOM      8  C   UNL     1       1.149   3.132  -0.327  0.00  0.00    +0.056 A 
ATOM      9  C   UNL     1       1.165   1.743  -0.182  0.00  0.00    +0.058 A 
ATOM     10  C   UNL     1      -0.021   1.044  -0.048  0.00  0.00    +0.026 A 
ATOM     11  C   UNL     1      -1.225   1.726  -0.068  0.00  0.00    +0.014 A 
ATOM     12  C   UNL     1      -1.244   3.101  -0.210  0.00  0.00    +0.057 A 
ATOM     13  C   UNL     1      -0.061   3.806  -0.342  0.00  0.00    +0.037 A 
ATOM     14  H   UNL     1       2.370   4.790  -0.339  0.00  0.00    +0.155 HD
ENDROOT
BRANCH  12  15
ATOM     15  C   UNL     1      -2.560   3.835  -0.227  0.00  0.00    +0.417 C 
ATOM     16  F   UNL     1      -3.029   3.921  -1.543  0.00  0.00    -0.166 F 
ATOM     17  F   UNL     1      -3.490   3.143   0.555  0.00  0.00    -0.166 F 
ATOM     18  F   UNL     1      -2.382   5.123   0.289  0.00  0.00    -0.166 F 
ENDBRANCH  12  15
BRANCH   1  19
ATOM     19  C   UNL     1       3.872  -0.827   0.384  0.00  0.00    +0.259 C 
ATOM     20  C   UNL     1       4.941  -0.127   1.226  0.00  0.00    +0.062 C 
BRANCH  19  21
ATOM     21  O   UNL     1       3.688  -2.184   0.867  0.00  0.00    -0.448 OA
BRANCH  21  22
ATOM     22  C   UNL     1       4.459  -3.141   0.312  0.00  0.00    +0.359 C 
ATOM     23  O   UNL     1       5.263  -2.849  -0.551  0.00  0.00    -0.243 OA
BRANCH  22  26
ATOM     24  C   UNL     1       3.344  -6.127   2.079  0.00  0.00    +0.109 A 
ATOM     25  N   UNL     1       3.458  -4.870   1.696  0.00  0.00    -0.232 NA
ATOM     26  C   UNL     1       4.327  -4.539   0.753  0.00  0.00    +0.155 A 
ATOM     27  C   UNL     1       5.112  -5.531   0.192  0.00  0.00    +0.082 A 
ATOM     28  S   UNL     1       4.560  -6.936   1.051  0.00  0.00    -0.075 S 
BRANCH  24  33
ATOM     29  C   UNL     1      -0.145  -8.410   6.046  0.00  0.00    +0.044 C 
ATOM     30  C   UNL     1       0.769  -7.812   5.007  0.00  0.00    -0.050 A 
ATOM     31  C   UNL     1       1.649  -8.625   4.314  0.00  0.00    +0.004 A 
ATOM     32  C   UNL     1       2.488  -8.084   3.362  0.00  0.00    +0.011 A 
ATOM     33  C   UNL     1       2.448  -6.714   3.099  0.00  0.00    +0.007 A 
ATOM     34  C   UNL     1       1.562  -5.899   3.805  0.00  0.00    +0.011 A 
ATOM     35  C   UNL     1       0.724  -6.454   4.751  0.00  0.00    +0.004 A 
ENDBRANCH  24  33
ENDBRANCH  22  26
ENDBRANCH  21  22
ENDBRANCH  19  21
ENDBRANCH   1  19
TORSDOF 6
