REMARK  Name = ZINC11049973
REMARK  11 active torsions:
REMARK  status: ('A' for Active; 'I' for Inactive)
REMARK    1  A    between atoms: C_1  and  C_2
REMARK    2  A    between atoms: C_2  and  C_3
REMARK    3  A    between atoms: C_6  and  C_9
REMARK    4  A    between atoms: C_9  and  C_11
REMARK    5  A    between atoms: C_9  and  N_55
REMARK    6  A    between atoms: C_11  and  C_12
REMARK    7  A    between atoms: C_11  and  C_13
REMARK    8  A    between atoms: C_14  and  C_16
REMARK    9  A    between atoms: C_14  and  C_17
REMARK   10  A    between atoms: C_14  and  N_55
REMARK   11  A    between atoms: N_19  and  C_20
REMARK                            x       y       z     vdW  Elec       q    Type
REMARK                         _______ _______ _______ _____ _____    ______ ____
ROOT
ATOM      1  C   UNL     1       4.854   4.246  -0.235  0.00  0.00    +0.014 C 
ATOM      2  C   UNL     1       5.597   3.800  -1.496  0.00  0.00    -0.004 C 
ENDROOT
BRANCH   1   3
ATOM      3  C   UNL     1       3.564   3.478  -0.113  0.00  0.00    +0.203 C 
ATOM      4  O   UNL     1       2.505   4.069  -0.100  0.00  0.00    -0.277 OA
ATOM      5  N   UNL     1       3.586   2.134  -0.019  0.00  0.00    -0.287 N 
ATOM      6  H   UNL     1       4.433   1.666   0.047  0.00  0.00    +0.155 HD
BRANCH   5   7
ATOM      7  C   UNL     1       2.385   1.412  -0.018  0.00  0.00    +0.035 A 
ATOM      8  C   UNL     1       2.280   0.241   0.724  0.00  0.00    +0.025 A 
ATOM      9  C   UNL     1       1.101  -0.475   0.729  0.00  0.00    +0.029 A 
ATOM     10  C   UNL     1       0.015  -0.026  -0.008  0.00  0.00    +0.067 A 
ATOM     11  C   UNL     1       0.117   1.151  -0.753  0.00  0.00    +0.069 A 
ATOM     12  C   UNL     1       1.303   1.867  -0.757  0.00  0.00    +0.051 A 
ATOM     13  N   UNL     1      -1.115   1.341  -1.375  0.00  0.00    -0.306 N 
ATOM     14  H   UNL     1      -1.347   2.078  -1.961  0.00  0.00    +0.170 HD
ATOM     15  C   UNL     1      -1.929   0.328  -1.025  0.00  0.00    +0.325 A 
ATOM     16  O   UNL     1      -3.080   0.193  -1.396  0.00  0.00    -0.247 OA
ATOM     17  N   UNL     1      -1.277  -0.513  -0.200  0.00  0.00    -0.306 N 
ATOM     18  H   UNL     1      -1.644  -1.321   0.193  0.00  0.00    +0.170 HD
ENDBRANCH   5   7
ENDBRANCH   1   3
BRANCH   1  19
ATOM     19  N   UNL     1       4.554   5.687  -0.325  0.00  0.00    +0.391 N 
ATOM     20  H   UNL     1       4.350   5.931  -1.301  0.00  0.00    -0.084 HD
ATOM     21  H   UNL     1       3.735   5.899   0.258  0.00  0.00    -0.084 HD
BRANCH  19  22
ATOM     22  C   UNL     1       5.705   6.481   0.145  0.00  0.00    -0.037 C 
BRANCH  22  26
ATOM     23  C   UNL     1       5.570  10.350  -1.662  0.00  0.00    -0.048 A 
ATOM     24  C   UNL     1       6.780   9.698  -1.512  0.00  0.00    +0.004 A 
ATOM     25  C   UNL     1       6.824   8.447  -0.927  0.00  0.00    +0.002 A 
ATOM     26  C   UNL     1       5.657   7.846  -0.492  0.00  0.00    -0.061 A 
ATOM     27  C   UNL     1       4.447   8.495  -0.647  0.00  0.00    +0.002 A 
ATOM     28  C   UNL     1       4.404   9.749  -1.227  0.00  0.00    +0.004 A 
BRANCH  23  30
ATOM     29  C   UNL     1       5.338  11.564  -3.811  0.00  0.00    +0.009 C 
ATOM     30  C   UNL     1       5.523  11.714  -2.300  0.00  0.00    +0.032 C 
ENDBRANCH  23  30
ENDBRANCH  22  26
BRANCH  22  31
ATOM     31  C   UNL     1       5.638   6.626   1.667  0.00  0.00    -0.027 C 
ATOM     32  C   UNL     1       6.828   7.457   2.152  0.00  0.00    +0.006 C 
ATOM     33  C   UNL     1       4.335   7.326   2.056  0.00  0.00    +0.006 C 
ENDBRANCH  22  31
ENDBRANCH  19  22
ENDBRANCH   1  19
TORSDOF 7
