REMARK  Name = ZINC18200838
REMARK  3 active torsions:
REMARK  status: ('A' for Active; 'I' for Inactive)
REMARK    1  A    between atoms: C_6  and  C_7
REMARK    2  A    between atoms: C_18  and  N_22
REMARK    3  A    between atoms: C_19  and  C_20
REMARK                            x       y       z     vdW  Elec       q    Type
REMARK                         _______ _______ _______ _____ _____    ______ ____
ROOT
ATOM      1  C   UNL     1       2.490   1.046  -0.016  0.00  0.00    +0.101 C 
ATOM      2  C   UNL     1       3.247   1.417  -1.259  0.00  0.00    +0.069 A 
ATOM      3  C   UNL     1       2.870   0.878  -2.495  0.00  0.00    +0.259 A 
ATOM      4  O   UNL     1       1.929   0.103  -2.574  0.00  0.00    -0.267 OA
ATOM      5  N   UNL     1       3.565   1.229  -3.597  0.00  0.00    -0.295 N 
ATOM      6  H   UNL     1       3.319   0.864  -4.462  0.00  0.00    +0.172 HD
ATOM      7  C   UNL     1       4.611   2.094  -3.498  0.00  0.00    +0.195 A 
ATOM      8  N   UNL     1       4.971   2.603  -2.339  0.00  0.00    -0.201 NA
ATOM      9  C   UNL     1       4.320   2.288  -1.212  0.00  0.00    +0.137 A 
ATOM     10  N   UNL     1       4.722   2.833  -0.006  0.00  0.00    -0.287 N 
ATOM     11  C   UNL     1       4.320   2.260   1.177  0.00  0.00    +0.101 C 
ATOM     12  C   UNL     1       3.270   1.403   1.216  0.00  0.00    +0.077 C 
ATOM     13  N   UNL     1       5.303   2.441  -4.627  0.00  0.00    -0.329 N 
ATOM     14  H   UNL     1       5.287   3.621   0.005  0.00  0.00    +0.155 HD
ATOM     15  H   UNL     1       6.050   3.057  -4.568  0.00  0.00    +0.145 HD
ATOM     16  H   UNL     1       5.046   2.071  -5.486  0.00  0.00    +0.145 HD
ENDROOT
BRANCH   1  22
ATOM     17  C   UNL     1      -0.013   1.076   0.008  0.00  0.00    +0.007 A 
ATOM     18  C   UNL     1      -1.219   1.750   0.017  0.00  0.00    +0.038 A 
ATOM     19  C   UNL     1      -1.237   3.135   0.030  0.00  0.00    +0.123 A 
ATOM     20  C   UNL     1      -0.047   3.842   0.023  0.00  0.00    +0.038 A 
ATOM     21  C   UNL     1       1.158   3.165   0.009  0.00  0.00    +0.007 A 
ATOM     22  C   UNL     1       1.175   1.783   0.000  0.00  0.00    -0.034 A 
ATOM     23  F   UNL     1      -2.416   3.795   0.045  0.00  0.00    -0.205 F 
ENDBRANCH   1  22
BRANCH  11  24
ATOM     24  N   UNL     1       4.993   2.559   2.336  0.00  0.00    -0.346 N 
ATOM     25  H   UNL     1       5.746   3.171   2.316  0.00  0.00    +0.144 HD
ATOM     26  H   UNL     1       4.716   2.159   3.175  0.00  0.00    +0.144 HD
ENDBRANCH  11  24
BRANCH  12  27
ATOM     27  C   UNL     1       2.894   0.823   2.470  0.00  0.00    +0.099 C 
ATOM     28  N   UNL     1       2.595   0.362   3.464  0.00  0.00    -0.191 NA
ENDBRANCH  12  27
TORSDOF 3
