REMARK  Name = ZINC10066686
REMARK  11 active torsions:
REMARK  status: ('A' for Active; 'I' for Inactive)
REMARK    1  A    between atoms: C_1  and  C_2
REMARK    2  A    between atoms: C_2  and  N_57
REMARK    3  A    between atoms: C_3  and  C_4
REMARK    4  A    between atoms: C_3  and  N_57
REMARK    5  A    between atoms: C_5  and  C_6
REMARK    6  A    between atoms: C_5  and  N_57
REMARK    7  A    between atoms: C_6  and  N_7
REMARK    8  A    between atoms: C_11  and  O_17
REMARK    9  A    between atoms: O_17  and  C_18
REMARK   10  A    between atoms: C_19  and  C_21
REMARK   11  A    between atoms: C_25  and  N_30
REMARK                            x       y       z     vdW  Elec       q    Type
REMARK                         _______ _______ _______ _____ _____    ______ ____
ROOT
ATOM      1  N   UNL     1       2.767  -4.301   0.049  0.00  0.00    -0.248 N 
ATOM      2  C   UNL     1       2.144  -3.073   0.189  0.00  0.00    +0.168 A 
ATOM      3  N   UNL     1       0.872  -2.812   0.375  0.00  0.00    -0.221 NA
ATOM      4  C   UNL     1       0.399  -1.552   0.496  0.00  0.00    +0.122 A 
ATOM      5  C   UNL     1      -0.941  -1.135   0.699  0.00  0.00    +0.146 A 
ATOM      6  C   UNL     1      -1.252   0.201   0.801  0.00  0.00    +0.048 A 
ATOM      7  C   UNL     1      -0.274   1.180   0.711  0.00  0.00    +0.005 A 
ATOM      8  C   UNL     1       1.043   0.807   0.513  0.00  0.00    +0.017 A 
ATOM      9  C   UNL     1       1.364  -0.525   0.410  0.00  0.00    +0.044 A 
ATOM     10  S   UNL     1       2.868  -1.439   0.163  0.00  0.00    -0.052 S 
ATOM     11  C   UNL     1       2.041  -5.435   0.099  0.00  0.00    +0.259 C 
ATOM     12  O   UNL     1       0.848  -5.383   0.330  0.00  0.00    -0.269 OA
ENDROOT
BRANCH  11  13
ATOM     13  C   UNL     1       2.690  -6.734  -0.126  0.00  0.00    +0.076 A 
ATOM     14  C   UNL     1       2.113  -7.960  -0.249  0.00  0.00    +0.029 A 
ATOM     15  C   UNL     1       2.915  -9.094  -0.468  0.00  0.00    -0.008 A 
ATOM     16  C   UNL     1       2.505 -10.443  -0.627  0.00  0.00    +0.041 A 
ATOM     17  C   UNL     1       3.418 -11.428  -0.827  0.00  0.00    +0.127 A 
ATOM     18  C   UNL     1       4.780 -11.158  -0.884  0.00  0.00    +0.034 A 
ATOM     19  C   UNL     1       5.223  -9.860  -0.734  0.00  0.00    +0.018 A 
ATOM     20  C   UNL     1       4.308  -8.849  -0.531  0.00  0.00    +0.020 A 
ATOM     21  S   UNL     1       4.429  -7.093  -0.296  0.00  0.00    -0.084 S 
BRANCH  17  22
ATOM     22  N   UNL     1       2.950 -12.823  -0.987  0.00  0.00    +0.056 N 
ATOM     23  O   UNL     1       1.760 -13.076  -0.939  0.00  0.00    -0.126 OA
ATOM     24  O   UNL     1       3.757 -13.718  -1.167  0.00  0.00    -0.126 OA
ENDBRANCH  17  22
ENDBRANCH  11  13
BRANCH   5  25
ATOM     25  O   UNL     1      -1.929  -2.065   0.793  0.00  0.00    -0.493 OA
ATOM     26  C   UNL     1      -3.258  -1.581   0.997  0.00  0.00    +0.277 C 
ENDBRANCH   5  25
BRANCH   1  27
ATOM     27  C   UNL     1       4.217  -4.368  -0.153  0.00  0.00    +0.097 C 
BRANCH  27  28
ATOM     28  C   UNL     1       4.907  -4.630   1.187  0.00  0.00    -0.059 C 
BRANCH  28  29
ATOM     29  N   UNL     1       6.365  -4.716   0.964  0.00  0.00    +0.380 N 
ATOM     30  H   UNL     1       6.548  -5.390   0.210  0.00  0.00    -0.082 HD
BRANCH  29  32
ATOM     31  C   UNL     1       6.513  -2.331   1.596  0.00  0.00    -0.017 C 
ATOM     32  C   UNL     1       6.894  -3.395   0.565  0.00  0.00    -0.082 C 
ENDBRANCH  29  32
BRANCH  29  33
ATOM     33  C   UNL     1       7.039  -5.179   2.195  0.00  0.00    -0.082 C 
ATOM     34  C   UNL     1       8.528  -5.375   1.902  0.00  0.00    -0.017 C 
ENDBRANCH  29  33
ENDBRANCH  28  29
ENDBRANCH  27  28
ENDBRANCH   1  27
TORSDOF 8
