REMARK  Name = ZINC13942693
REMARK  4 active torsions:
REMARK  status: ('A' for Active; 'I' for Inactive)
REMARK    1  A    between atoms: C_7  and  C_18
REMARK    2  A    between atoms: N_9  and  C_10
REMARK    3  A    between atoms: C_10  and  C_11
REMARK    4  A    between atoms: C_28  and  C_30
REMARK                            x       y       z     vdW  Elec       q    Type
REMARK                         _______ _______ _______ _____ _____    ______ ____
ROOT
ATOM      1  C   UNL     1       0.734  -3.216  -0.023  0.00  0.00    +0.026 C 
ATOM      2  C   UNL     1       1.247  -4.495  -0.140  0.00  0.00    +0.081 C 
ATOM      3  C   UNL     1       0.363  -5.686  -0.258  0.00  0.00    +0.152 C 
ATOM      4  N   UNL     1      -0.798  -5.662  -0.861  0.00  0.00    -0.283 NA
ATOM      5  N   UNL     1       0.899  -6.844   0.345  0.00  0.00    -0.152 N 
ATOM      6  C   UNL     1       2.267  -6.903   0.503  0.00  0.00    +0.181 C 
ATOM      7  N   UNL     1       3.141  -5.963   0.245  0.00  0.00    -0.152 NA
ATOM      8  C   UNL     1       2.706  -4.751  -0.161  0.00  0.00    +0.273 C 
ATOM      9  O   UNL     1       3.489  -3.891  -0.531  0.00  0.00    -0.268 OA
ATOM     10  S   UNL     1       2.495  -8.538   1.151  0.00  0.00    -0.038 S 
ATOM     11  C   UNL     1       0.769  -8.989   1.262  0.00  0.00    +0.103 C 
ATOM     12  N   UNL     1       0.176  -7.933   0.783  0.00  0.00    -0.169 NA
ATOM     13  H   UNL     1      -1.336  -6.468  -0.910  0.00  0.00    +0.188 HD
ENDROOT
BRANCH   1  20
ATOM     14  C   UNL     1       0.720   1.243  -1.346  0.00  0.00    +0.001 A 
ATOM     15  C   UNL     1       1.792   1.942  -0.809  0.00  0.00    +0.002 A 
ATOM     16  C   UNL     1       2.703   1.310   0.008  0.00  0.00    +0.026 A 
ATOM     17  C   UNL     1       2.553  -0.042   0.302  0.00  0.00    +0.050 A 
ATOM     18  C   UNL     1       1.468  -0.746  -0.241  0.00  0.00    +0.007 A 
ATOM     19  C   UNL     1       0.554  -0.096  -1.066  0.00  0.00    +0.010 A 
ATOM     20  C   UNL     1       1.596  -2.131   0.255  0.00  0.00    +0.001 A 
ATOM     21  C   UNL     1       2.729  -2.153   1.045  0.00  0.00    +0.095 A 
ATOM     22  N   UNL     1       3.285  -0.926   1.069  0.00  0.00    -0.342 N 
BRANCH  22  23
ATOM     23  C   UNL     1       4.502  -0.577   1.808  0.00  0.00    +0.157 C 
BRANCH  23  24
ATOM     24  C   UNL     1       4.127  -0.008   3.152  0.00  0.00    -0.028 A 
ATOM     25  C   UNL     1       3.922   1.351   3.295  0.00  0.00    +0.007 A 
ATOM     26  C   UNL     1       3.578   1.874   4.527  0.00  0.00    +0.020 A 
ATOM     27  C   UNL     1       3.439   1.036   5.619  0.00  0.00    +0.041 A 
ATOM     28  C   UNL     1       3.644  -0.325   5.476  0.00  0.00    +0.020 A 
ATOM     29  C   UNL     1       3.983  -0.847   4.242  0.00  0.00    +0.007 A 
ATOM     30 CL   UNL     1       3.008   1.691   7.168  0.00  0.00    -0.084 Cl
ENDBRANCH  23  24
ENDBRANCH  22  23
ENDBRANCH   1  20
BRANCH  11  31
ATOM     31  C   UNL     1       0.157 -10.266   1.778  0.00  0.00    +0.046 C 
ATOM     32  C   UNL     1      -1.217 -10.468   1.135  0.00  0.00    +0.010 C 
ATOM     33  C   UNL     1      -1.839 -11.764   1.658  0.00  0.00    +0.001 C 
ATOM     34  C   UNL     1      -1.995 -11.678   3.178  0.00  0.00    +0.000 C 
ATOM     35  C   UNL     1      -0.621 -11.475   3.821  0.00  0.00    +0.001 C 
ATOM     36  C   UNL     1       0.001 -10.179   3.297  0.00  0.00    +0.010 C 
ENDBRANCH  11  31
TORSDOF 4
