REMARK  Name = ZINC06245655
REMARK  6 active torsions:
REMARK  status: ('A' for Active; 'I' for Inactive)
REMARK    1  A    between atoms: C_1  and  C_2
REMARK    2  A    between atoms: C_5  and  C_8
REMARK    3  A    between atoms: C_19  and  C_21
REMARK    4  A    between atoms: C_24  and  N_27
REMARK    5  A    between atoms: N_27  and  C_28
REMARK    6  A    between atoms: N_27  and  C_29
REMARK                            x       y       z     vdW  Elec       q    Type
REMARK                         _______ _______ _______ _____ _____    ______ ____
ROOT
ATOM      1  C   UNL     1       0.059  -4.275  -0.021  0.00  0.00    +0.159 C 
ATOM      2  C   UNL     1      -1.360  -4.767   0.157  0.00  0.00    +0.027 C 
ATOM      3  C   UNL     1      -1.627  -5.565   1.210  0.00  0.00    +0.083 C 
ATOM      4  C   UNL     1      -3.027  -6.032   1.378  0.00  0.00    +0.044 A 
ATOM      5  C   UNL     1      -3.342  -7.091   2.219  0.00  0.00    +0.033 A 
ATOM      6  C   UNL     1      -4.659  -7.495   2.344  0.00  0.00    +0.042 A 
ATOM      7  C   UNL     1      -5.657  -6.846   1.635  0.00  0.00    +0.023 A 
ATOM      8  C   UNL     1      -5.350  -5.791   0.796  0.00  0.00    +0.048 A 
ATOM      9  C   UNL     1      -4.036  -5.376   0.662  0.00  0.00    +0.131 A 
ATOM     10  O   UNL     1      -3.708  -4.338  -0.149  0.00  0.00    -0.479 OA
ATOM     11  C   UNL     1      -2.443  -4.389  -0.811  0.00  0.00    +0.234 C 
ATOM     12 CL   UNL     1      -5.062  -8.817   3.393  0.00  0.00    -0.084 Cl
ATOM     13  N   UNL     1      -0.660  -5.930   2.087  0.00  0.00    -0.213 NA
ATOM     14  C   UNL     1       0.594  -5.550   2.006  0.00  0.00    +0.237 C 
ATOM     15  N   UNL     1       1.024  -4.727   0.989  0.00  0.00    -0.208 N 
ATOM     16  N   UNL     1       2.388  -4.515   1.199  0.00  0.00    -0.251 N 
ATOM     17  C   UNL     1       2.719  -5.214   2.320  0.00  0.00    +0.203 C 
ATOM     18  N   UNL     1       1.669  -5.815   2.781  0.00  0.00    -0.205 NA
ATOM     19  H   UNL     1       2.983  -3.978   0.653  0.00  0.00    +0.171 HD
ENDROOT
BRANCH   1  24
ATOM     20  C   UNL     1      -0.018   1.503   0.010  0.00  0.00    +0.044 C 
ATOM     21  C   UNL     1       0.002  -0.004   0.002  0.00  0.00    -0.050 A 
ATOM     22  C   UNL     1       0.006  -0.689  -1.199  0.00  0.00    +0.004 A 
ATOM     23  C   UNL     1       0.025  -2.071  -1.206  0.00  0.00    +0.006 A 
ATOM     24  C   UNL     1       0.040  -2.768  -0.013  0.00  0.00    -0.021 A 
ATOM     25  C   UNL     1       0.037  -2.084   1.188  0.00  0.00    +0.006 A 
ATOM     26  C   UNL     1       0.023  -0.702   1.195  0.00  0.00    +0.004 A 
ENDBRANCH   1  24
BRANCH  11  27
ATOM     27  C   UNL     1      -2.501  -5.411  -1.917  0.00  0.00    -0.003 A 
ATOM     28  C   UNL     1      -3.241  -6.567  -1.750  0.00  0.00    +0.009 A 
ATOM     29  C   UNL     1      -3.296  -7.506  -2.762  0.00  0.00    +0.023 A 
ATOM     30  C   UNL     1      -2.608  -7.287  -3.948  0.00  0.00    +0.029 A 
ATOM     31  C   UNL     1      -1.866  -6.124  -4.113  0.00  0.00    +0.023 A 
ATOM     32  C   UNL     1      -1.820  -5.187  -3.099  0.00  0.00    +0.009 A 
BRANCH  30  33
ATOM     33  N   UNL     1      -2.662  -8.234  -4.973  0.00  0.00    -0.336 N 
ATOM     34  C   UNL     1      -3.444  -9.460  -4.798  0.00  0.00    +0.129 C 
ATOM     35  C   UNL     1      -1.935  -8.002  -6.224  0.00  0.00    +0.129 C 
ENDBRANCH  30  33
ENDBRANCH  11  27
TORSDOF 3
