REMARK  Name = ZINC02533511
REMARK  11 active torsions:
REMARK  status: ('A' for Active; 'I' for Inactive)
REMARK    1  A    between atoms: C_1  and  C_2
REMARK    2  A    between atoms: C_2  and  O_3
REMARK    3  A    between atoms: O_3  and  C_4
REMARK    4  A    between atoms: C_4  and  C_5
REMARK    5  A    between atoms: C_5  and  C_6
REMARK    6  A    between atoms: C_6  and  N_7
REMARK    7  A    between atoms: N_18  and  C_21
REMARK    8  A    between atoms: C_21  and  C_22
REMARK    9  A    between atoms: N_24  and  C_25
REMARK   10  A    between atoms: C_28  and  C_32
REMARK   11  A    between atoms: C_30  and  C_31
REMARK                            x       y       z     vdW  Elec       q    Type
REMARK                         _______ _______ _______ _____ _____    ______ ____
ROOT
ATOM      1  N   UNL     1       2.277  -4.127  -3.938  0.00  0.00    -0.255 N 
ATOM      2  C   UNL     1       1.579  -4.296  -5.049  0.00  0.00    +0.259 C 
ATOM      3  O   UNL     1       0.373  -4.150  -5.077  0.00  0.00    -0.269 OA
ATOM      4  C   UNL     1       2.354  -4.674  -6.263  0.00  0.00    +0.089 C 
ATOM      5  C   UNL     1       1.913  -4.915  -7.550  0.00  0.00    +0.065 C 
ATOM      6  C   UNL     1       2.726  -5.295  -8.723  0.00  0.00    +0.010 A 
ATOM      7  C   UNL     1       4.089  -5.517  -8.908  0.00  0.00    +0.010 A 
ATOM      8  C   UNL     1       4.562  -5.869 -10.155  0.00  0.00    +0.001 A 
ATOM      9  C   UNL     1       3.684  -6.000 -11.219  0.00  0.00    +0.002 A 
ATOM     10  C   UNL     1       2.332  -5.782 -11.047  0.00  0.00    +0.024 A 
ATOM     11  C   UNL     1       1.835  -5.428  -9.798  0.00  0.00    +0.045 A 
ATOM     12  N   UNL     1       0.544  -5.156  -9.360  0.00  0.00    -0.258 N 
ATOM     13  C   UNL     1       0.524  -4.856  -8.050  0.00  0.00    +0.253 C 
ATOM     14  O   UNL     1      -0.463  -4.580  -7.394  0.00  0.00    -0.270 OA
ATOM     15  S   UNL     1       4.012  -4.729  -5.597  0.00  0.00    -0.060 S 
ATOM     16  C   UNL     1       3.616  -4.284  -3.914  0.00  0.00    +0.121 C 
ATOM     17  S   UNL     1       4.681  -4.103  -2.586  0.00  0.00    -0.027 S 
ENDROOT
BRANCH   1  18
ATOM     18  C   UNL     1       1.579  -3.754  -2.706  0.00  0.00    +0.117 C 
BRANCH  18  19
ATOM     19  C   UNL     1       1.506  -2.229  -2.602  0.00  0.00    +0.047 C 
BRANCH  19  20
ATOM     20  C   UNL     1       0.777  -1.840  -1.315  0.00  0.00    +0.161 C 
BRANCH  20  21
ATOM     21  O   UNL     1       0.709  -0.416  -1.218  0.00  0.00    -0.380 OA
BRANCH  21  23
ATOM     22  C   UNL     1       0.029   1.585  -0.046  0.00  0.00    +0.034 C 
ATOM     23  C   UNL     1       0.043   0.056  -0.045  0.00  0.00    +0.156 C 
ENDBRANCH  21  23
ENDBRANCH  20  21
ENDBRANCH  19  20
ENDBRANCH  18  19
ENDBRANCH   1  18
BRANCH  12  24
ATOM     24  C   UNL     1      -0.644  -5.199 -10.216  0.00  0.00    +0.210 C 
BRANCH  24  25
ATOM     25  C   UNL     1      -1.232  -6.586 -10.190  0.00  0.00    +0.235 C 
ATOM     26  O   UNL     1      -0.710  -7.454  -9.523  0.00  0.00    -0.274 OA
ATOM     27  N   UNL     1      -2.338  -6.862 -10.909  0.00  0.00    -0.284 N 
ATOM     28  H   UNL     1      -2.802  -6.151 -11.378  0.00  0.00    +0.155 HD
BRANCH  27  29
ATOM     29  C   UNL     1      -2.818  -8.175 -10.977  0.00  0.00    +0.036 A 
ATOM     30  C   UNL     1      -1.953  -9.243 -10.779  0.00  0.00    +0.024 A 
ATOM     31  C   UNL     1      -2.429 -10.538 -10.848  0.00  0.00    +0.005 A 
ATOM     32  C   UNL     1      -3.766 -10.771 -11.114  0.00  0.00    -0.050 A 
ATOM     33  C   UNL     1      -4.630  -9.709 -11.313  0.00  0.00    +0.008 A 
ATOM     34  C   UNL     1      -4.161  -8.412 -11.239  0.00  0.00    -0.029 A 
ATOM     35  C   UNL     1      -5.104  -7.256 -11.448  0.00  0.00    +0.045 C 
ATOM     36  C   UNL     1      -4.283 -12.184 -11.189  0.00  0.00    +0.044 C 
ENDBRANCH  27  29
ENDBRANCH  24  25
ENDBRANCH  12  24
TORSDOF 8
