REMARK  Name = ZINC10045124
REMARK  13 active torsions:
REMARK  status: ('A' for Active; 'I' for Inactive)
REMARK    1  A    between atoms: C_1  and  C_2
REMARK    2  A    between atoms: C_5  and  C_8
REMARK    3  A    between atoms: C_11  and  C_13
REMARK    4  A    between atoms: C_13  and  C_14
REMARK    5  A    between atoms: C_14  and  C_15
REMARK    6  A    between atoms: C_15  and  O_17
REMARK    7  A    between atoms: O_17  and  C_18
REMARK    8  A    between atoms: C_18  and  C_20
REMARK    9  A    between atoms: C_18  and  C_21
REMARK   10  A    between atoms: N_23  and  C_24
REMARK   11  A    between atoms: C_26  and  N_32
REMARK   12  A    between atoms: C_29  and  O_30
REMARK   13  A    between atoms: O_30  and  C_31
REMARK                            x       y       z     vdW  Elec       q    Type
REMARK                         _______ _______ _______ _____ _____    ______ ____
ROOT
ATOM      1  O   UNL     1      -2.492  -9.738  -3.166  0.00  0.00    -0.452 OA
ENDROOT
BRANCH   1   2
ATOM      2  C   UNL     1      -1.338  -9.171  -2.780  0.00  0.00    +0.308 C 
ATOM      3  O   UNL     1      -0.284  -9.642  -3.138  0.00  0.00    -0.251 OA
BRANCH   2   4
ATOM      4  C   UNL     1      -1.356  -7.948  -1.900  0.00  0.00    +0.130 C 
BRANCH   4   5
ATOM      5  C   UNL     1       0.081  -7.508  -1.609  0.00  0.00    +0.105 C 
BRANCH   5   9
ATOM      6  C   UNL     1       0.028  -4.212  -0.075  0.00  0.00    +0.153 A 
ATOM      7  C   UNL     1       0.049  -5.023   1.014  0.00  0.00    +0.132 A 
ATOM      8  N   UNL     1       0.069  -6.290   0.574  0.00  0.00    -0.333 N 
ATOM      9  C   UNL     1       0.062  -6.284  -0.730  0.00  0.00    +0.175 A 
ATOM     10  O   UNL     1       0.032  -5.016  -1.161  0.00  0.00    -0.442 OA
ATOM     11  H   UNL     1       0.086  -7.081   1.135  0.00  0.00    +0.168 HD
BRANCH   6  16
ATOM     12  C   UNL     1      -0.081   1.541  -0.067  0.00  0.00    +0.044 C 
ATOM     13  C   UNL     1      -0.052   0.035  -0.069  0.00  0.00    -0.050 A 
ATOM     14  C   UNL     1      -0.050  -0.652  -1.270  0.00  0.00    +0.004 A 
ATOM     15  C   UNL     1      -0.024  -2.032  -1.279  0.00  0.00    +0.012 A 
ATOM     16  C   UNL     1       0.001  -2.734  -0.073  0.00  0.00    +0.019 A 
ATOM     17  C   UNL     1      -0.001  -2.035   1.135  0.00  0.00    +0.012 A 
ATOM     18  C   UNL     1      -0.021  -0.655   1.130  0.00  0.00    +0.004 A 
ENDBRANCH   6  16
ENDBRANCH   5   9
ENDBRANCH   4   5
ENDBRANCH   2   4
ENDBRANCH   1   2
BRANCH   1  19
ATOM     19  C   UNL     1      -2.400 -10.895  -3.999  0.00  0.00    +0.259 C 
ATOM     20  C   UNL     1      -2.389 -10.465  -5.468  0.00  0.00    +0.062 C 
BRANCH  19  21
ATOM     21  C   UNL     1      -3.585 -11.791  -3.747  0.00  0.00    +0.258 C 
ATOM     22  O   UNL     1      -4.471 -11.429  -3.001  0.00  0.00    -0.271 OA
ATOM     23  N   UNL     1      -3.660 -12.994  -4.350  0.00  0.00    -0.279 N 
ATOM     24  H   UNL     1      -2.985 -13.256  -4.995  0.00  0.00    +0.155 HD
BRANCH  23  25
ATOM     25  C   UNL     1      -4.714 -13.866  -4.044  0.00  0.00    +0.078 A 
ATOM     26  C   UNL     1      -5.974 -13.361  -3.759  0.00  0.00    +0.059 A 
ATOM     27  C   UNL     1      -7.011 -14.223  -3.458  0.00  0.00    +0.128 A 
ATOM     28  C   UNL     1      -6.796 -15.589  -3.439  0.00  0.00    +0.036 A 
ATOM     29  C   UNL     1      -5.543 -16.099  -3.721  0.00  0.00    +0.050 A 
ATOM     30  C   UNL     1      -4.499 -15.242  -4.031  0.00  0.00    +0.141 A 
BRANCH  27  31
ATOM     31  N   UNL     1      -8.355 -13.683  -3.154  0.00  0.00    +0.056 N 
ATOM     32  O   UNL     1      -8.545 -12.489  -3.169  0.00  0.00    -0.126 OA
ATOM     33  O   UNL     1      -9.264 -14.436  -2.890  0.00  0.00    -0.126 OA
ENDBRANCH  27  31
BRANCH  30  34
ATOM     34  O   UNL     1      -3.267 -15.743  -4.314  0.00  0.00    -0.493 OA
ATOM     35  C   UNL     1      -3.122 -17.164  -4.282  0.00  0.00    +0.277 C 
ENDBRANCH  30  34
ENDBRANCH  23  25
ENDBRANCH  19  21
ENDBRANCH   1  19
TORSDOF 10
