REMARK  Name = ZINC13065246
REMARK  16 active torsions:
REMARK  status: ('A' for Active; 'I' for Inactive)
REMARK    1  A    between atoms: C_1  and  C_2
REMARK    2  A    between atoms: C_2  and  C_3
REMARK    3  A    between atoms: C_3  and  C_5
REMARK    4  A    between atoms: C_3  and  N_71
REMARK    5  A    between atoms: N_9  and  C_10
REMARK    6  A    between atoms: C_10  and  C_11
REMARK    7  A    between atoms: C_11  and  O_13
REMARK    8  A    between atoms: O_13  and  C_14
REMARK    9  A    between atoms: C_14  and  C_15
REMARK   10  A    between atoms: C_16  and  C_17
REMARK   11  A    between atoms: C_16  and  N_71
REMARK   12  A    between atoms: C_17  and  C_18
REMARK   13  A    between atoms: C_24  and  C_25
REMARK   14  A    between atoms: C_24  and  N_71
REMARK   15  A    between atoms: C_28  and  C_38
REMARK   16  A    between atoms: C_31  and  C_37
REMARK                            x       y       z     vdW  Elec       q    Type
REMARK                         _______ _______ _______ _____ _____    ______ ____
ROOT
ATOM      1  N   UNL     1      -1.718  -0.491  -0.295  0.00  0.00    +0.389 N 
ATOM      2  H   UNL     1      -1.644  -0.298  -1.301  0.00  0.00    -0.080 HD
ENDROOT
BRANCH   1   3
ATOM      3  C   UNL     1      -1.841  -1.950  -0.095  0.00  0.00    +0.003 C 
BRANCH   3   4
ATOM      4  C   UNL     1      -2.118  -2.264   1.353  0.00  0.00    +0.139 A 
ATOM      5  N   UNL     1      -2.891  -1.587   2.166  0.00  0.00    -0.115 NA
ATOM      6  N   UNL     1      -2.869  -2.170   3.314  0.00  0.00    -0.023 NA
ATOM      7  N   UNL     1      -2.101  -3.201   3.255  0.00  0.00    -0.043 NA
ATOM      8  N   UNL     1      -1.623  -3.296   2.060  0.00  0.00    -0.220 N 
BRANCH   8   9
ATOM      9  C   UNL     1      -0.711  -4.331   1.568  0.00  0.00    +0.267 C 
BRANCH   9  10
ATOM     10  C   UNL     1       0.714  -3.890   1.784  0.00  0.00    +0.329 C 
ATOM     11  O   UNL     1       0.943  -2.820   2.297  0.00  0.00    -0.249 OA
BRANCH  10  12
ATOM     12  O   UNL     1       1.727  -4.685   1.407  0.00  0.00    -0.464 OA
BRANCH  12  13
ATOM     13  C   UNL     1       3.073  -4.195   1.646  0.00  0.00    +0.229 C 
ATOM     14  C   UNL     1       4.087  -5.230   1.153  0.00  0.00    +0.048 C 
ENDBRANCH  12  13
ENDBRANCH  10  12
ENDBRANCH   9  10
ENDBRANCH   8   9
ENDBRANCH   3   4
BRANCH   3  16
ATOM     15  C   UNL     1      -2.758  -2.069  -2.416  0.00  0.00    +0.002 C 
ATOM     16  C   UNL     1      -2.991  -2.473  -0.959  0.00  0.00    -0.011 C 
ENDBRANCH   3  16
ENDBRANCH   1   3
BRANCH   1  17
ATOM     17  C   UNL     1      -0.503   0.011   0.381  0.00  0.00    -0.073 C 
BRANCH  17  18
ATOM     18  C   UNL     1       0.709  -0.295  -0.501  0.00  0.00    +0.016 C 
BRANCH  18  19
ATOM     19  C   UNL     1       1.937   0.345   0.094  0.00  0.00    -0.049 A 
ATOM     20  C   UNL     1       2.199   1.683  -0.137  0.00  0.00    +0.003 A 
ATOM     21  C   UNL     1       3.322   2.272   0.413  0.00  0.00    +0.000 A 
ATOM     22  C   UNL     1       4.189   1.521   1.185  0.00  0.00    +0.000 A 
ATOM     23  C   UNL     1       3.930   0.182   1.411  0.00  0.00    +0.000 A 
ATOM     24  C   UNL     1       2.804  -0.406   0.866  0.00  0.00    +0.003 A 
ENDBRANCH  18  19
ENDBRANCH  17  18
ENDBRANCH   1  17
BRANCH   1  25
ATOM     25  C   UNL     1      -2.914   0.194   0.239  0.00  0.00    -0.037 C 
BRANCH  25  26
ATOM     26  C   UNL     1      -3.020   1.552  -0.407  0.00  0.00    +0.001 A 
ATOM     27  C   UNL     1      -3.766   1.710  -1.528  0.00  0.00    +0.017 A 
ATOM     28  C   UNL     1      -3.853   3.042  -2.128  0.00  0.00    +0.002 A 
ATOM     29  C   UNL     1      -4.612   3.268  -3.281  0.00  0.00    -0.041 A 
ATOM     30  C   UNL     1      -4.669   4.523  -3.819  0.00  0.00    +0.004 A 
ATOM     31  C   UNL     1      -3.981   5.576  -3.231  0.00  0.00    +0.005 A 
ATOM     32  C   UNL     1      -3.227   5.376  -2.095  0.00  0.00    -0.026 A 
ATOM     33  C   UNL     1      -3.154   4.107  -1.529  0.00  0.00    +0.052 A 
ATOM     34  N   UNL     1      -2.408   3.879  -0.392  0.00  0.00    -0.322 N 
ATOM     35  H   UNL     1      -1.927   4.614   0.019  0.00  0.00    +0.169 HD
ATOM     36  C   UNL     1      -2.338   2.653   0.154  0.00  0.00    +0.251 A 
ATOM     37  O   UNL     1      -1.669   2.488   1.159  0.00  0.00    -0.268 OA
ATOM     38  C   UNL     1      -2.485   6.528  -1.468  0.00  0.00    +0.046 C 
ATOM     39  C   UNL     1      -5.364   2.133  -3.927  0.00  0.00    +0.044 C 
ENDBRANCH  25  26
ENDBRANCH   1  25
TORSDOF 12
