REMARK  Name = ZINC59567604
REMARK  4 active torsions:
REMARK  status: ('A' for Active; 'I' for Inactive)
REMARK    1  A    between atoms: C_17  and  C_18
REMARK    2  A    between atoms: C_21  and  O_24
REMARK    3  A    between atoms: C_26  and  C_28
REMARK    4  A    between atoms: C_32  and  N_34
REMARK                            x       y       z     vdW  Elec       q    Type
REMARK                         _______ _______ _______ _____ _____    ______ ____
ROOT
ATOM      1  C   UNL     1       0.402   1.766  -1.951  0.00  0.00    +0.000 A 
ATOM      2  C   UNL     1       1.551   2.431  -1.562  0.00  0.00    +0.001 A 
ATOM      3  C   UNL     1       2.730   1.733  -1.385  0.00  0.00    +0.010 A 
ATOM      4  C   UNL     1       2.758   0.361  -1.605  0.00  0.00    +0.004 A 
ATOM      5  C   UNL     1       1.593  -0.309  -1.975  0.00  0.00    -0.038 A 
ATOM      6  C   UNL     1       0.423   0.398  -2.156  0.00  0.00    +0.004 A 
ATOM      7  C   UNL     1       1.617  -1.805  -2.151  0.00  0.00    +0.040 C 
ATOM      8  C   UNL     1       2.959  -2.244  -2.732  0.00  0.00    +0.040 C 
ATOM      9  C   UNL     1       4.099  -1.649  -1.954  0.00  0.00    -0.016 C 
ATOM     10  C   UNL     1       4.012  -0.414  -1.433  0.00  0.00    +0.076 C 
ATOM     11  N   UNL     1       5.062   0.121  -0.754  0.00  0.00    -0.223 NA
ATOM     12  C   UNL     1       6.190  -0.489  -0.548  0.00  0.00    +0.178 A 
ATOM     13  N   UNL     1       6.469  -1.767  -0.991  0.00  0.00    -0.275 N 
ATOM     14  C   UNL     1       7.669  -2.293  -0.716  0.00  0.00    +0.268 A 
ATOM     15  O   UNL     1       7.961  -3.416  -1.083  0.00  0.00    -0.266 OA
ATOM     16  C   UNL     1       8.624  -1.473   0.043  0.00  0.00    +0.081 A 
ATOM     17  C   UNL     1       9.887  -1.769   0.442  0.00  0.00    +0.028 C 
ATOM     18  S   UNL     1       7.675   0.019   0.296  0.00  0.00    -0.046 S 
ATOM     19  C   UNL     1       5.372  -2.434  -1.747  0.00  0.00    +0.151 C 
ENDROOT
BRANCH  17  20
ATOM     20  C   UNL     1      10.409  -3.132   0.278  0.00  0.00    -0.024 A 
ATOM     21  C   UNL     1      11.736  -3.333  -0.123  0.00  0.00    +0.011 A 
ATOM     22  C   UNL     1      12.219  -4.613  -0.276  0.00  0.00    +0.046 A 
ATOM     23  C   UNL     1      11.394  -5.704  -0.033  0.00  0.00    +0.117 A 
ATOM     24  C   UNL     1      10.076  -5.511   0.366  0.00  0.00    +0.046 A 
ATOM     25  C   UNL     1       9.584  -4.235   0.527  0.00  0.00    +0.011 A 
BRANCH  23  26
ATOM     26  O   UNL     1      11.876  -6.964  -0.184  0.00  0.00    -0.507 OA
ATOM     27  H   UNL     1      12.271  -7.334   0.617  0.00  0.00    +0.292 HD
ENDBRANCH  23  26
ENDBRANCH  17  20
BRANCH  19  28
ATOM     28  C   UNL     1       5.908  -2.813  -3.103  0.00  0.00    -0.018 A 
ATOM     29  C   UNL     1       6.621  -1.891  -3.847  0.00  0.00    +0.006 A 
ATOM     30  C   UNL     1       7.113  -2.239  -5.091  0.00  0.00    +0.003 A 
ATOM     31  C   UNL     1       6.892  -3.509  -5.591  0.00  0.00    +0.033 A 
ATOM     32  C   UNL     1       6.180  -4.431  -4.848  0.00  0.00    +0.127 A 
ATOM     33  C   UNL     1       5.692  -4.084  -3.601  0.00  0.00    +0.038 A 
BRANCH  32  34
ATOM     34  N   UNL     1       5.943  -5.790  -5.384  0.00  0.00    +0.056 N 
ATOM     35  O   UNL     1       6.373  -6.094  -6.472  0.00  0.00    -0.126 OA
ATOM     36  O   UNL     1       5.320  -6.596  -4.733  0.00  0.00    -0.126 OA
ENDBRANCH  32  34
ENDBRANCH  19  28
TORSDOF 4
