REMARK  Name = ZINC40823277
REMARK  9 active torsions:
REMARK  status: ('A' for Active; 'I' for Inactive)
REMARK    1  A    between atoms: C_1  and  C_2
REMARK    2  A    between atoms: C_6  and  C_7
REMARK    3  A    between atoms: N_9  and  C_10
REMARK    4  A    between atoms: C_15  and  O_16
REMARK    5  A    between atoms: O_16  and  C_17
REMARK    6  A    between atoms: N_22  and  N_23
REMARK    7  A    between atoms: C_24  and  C_26
REMARK    8  A    between atoms: C_26  and  C_27
REMARK    9  A    between atoms: C_27  and  C_28
REMARK                            x       y       z     vdW  Elec       q    Type
REMARK                         _______ _______ _______ _____ _____    ______ ____
ROOT
ATOM      1  C   UNL     1      -0.043   1.504   0.012  0.00  0.00    +0.048 C 
ATOM      2  C   UNL     1      -0.024  -0.003   0.003  0.00  0.00    +0.009 A 
ATOM      3  C   UNL     1      -0.028  -0.837  -1.123  0.00  0.00    +0.043 A 
ATOM      4  C   UNL     1      -0.008  -2.146  -0.665  0.00  0.00    +0.115 A 
ATOM      5  O   UNL     1       0.011  -2.112   0.664  0.00  0.00    -0.454 OA
ATOM      6  C   UNL     1       0.005  -0.829   1.091  0.00  0.00    +0.193 A 
ATOM      7  C   UNL     1      -0.012  -3.336  -1.590  0.00  0.00    +0.075 C 
ATOM      8  C   UNL     1      -0.544  -2.911  -2.961  0.00  0.00    +0.014 C 
ATOM      9  C   UNL     1       0.226  -1.696  -3.488  0.00  0.00    +0.058 C 
ATOM     10  C   UNL     1      -0.046  -0.518  -2.564  0.00  0.00    +0.074 C 
ATOM     11  N   UNL     1      -0.278   0.685  -3.012  0.00  0.00    -0.150 NA
ENDROOT
BRANCH   6  12
ATOM     12  C   UNL     1       0.025  -0.395   2.493  0.00  0.00    +0.284 C 
ATOM     13  O   UNL     1       0.015   0.792   2.762  0.00  0.00    -0.266 OA
ATOM     14  N   UNL     1       0.054  -1.310   3.481  0.00  0.00    -0.276 N 
ATOM     15  H   UNL     1      -0.003  -2.255   3.269  0.00  0.00    +0.155 HD
BRANCH  14  16
ATOM     16  C   UNL     1       0.168  -0.898   4.814  0.00  0.00    +0.076 A 
ATOM     17  C   UNL     1      -0.435   0.280   5.232  0.00  0.00    +0.027 A 
ATOM     18  C   UNL     1      -0.322   0.685   6.548  0.00  0.00    +0.002 A 
ATOM     19  C   UNL     1       0.390  -0.081   7.452  0.00  0.00    +0.004 A 
ATOM     20  C   UNL     1       0.994  -1.256   7.044  0.00  0.00    +0.047 A 
ATOM     21  C   UNL     1       0.881  -1.672   5.727  0.00  0.00    +0.141 A 
BRANCH  21  22
ATOM     22  O   UNL     1       1.469  -2.830   5.325  0.00  0.00    -0.493 OA
ATOM     23  C   UNL     1       2.184  -3.572   6.316  0.00  0.00    +0.277 C 
ENDBRANCH  21  22
ENDBRANCH  14  16
ENDBRANCH   6  12
BRANCH  11  24
ATOM     24  N   UNL     1      -0.282   0.929  -4.391  0.00  0.00    -0.105 NA
ATOM     25  C   UNL     1      -0.514   2.130  -4.839  0.00  0.00    +0.340 C 
ATOM     26  O   UNL     1      -0.749   3.139  -3.973  0.00  0.00    -0.262 OA
BRANCH  25  27
ATOM     27  C   UNL     1      -0.519   2.393  -6.323  0.00  0.00    +0.398 C 
ATOM     28  F   UNL     1       0.384   3.421  -6.617  0.00  0.00    -0.188 F 
ATOM     29  F   UNL     1      -0.141   1.231  -7.004  0.00  0.00    -0.188 F 
BRANCH  27  30
ATOM     30  C   UNL     1      -1.925   2.808  -6.762  0.00  0.00    +0.412 C 
ATOM     31  F   UNL     1      -2.827   1.781  -6.468  0.00  0.00    -0.189 F 
ATOM     32  F   UNL     1      -2.302   3.970  -6.081  0.00  0.00    -0.189 F 
BRANCH  30  33
ATOM     33  C   UNL     1      -1.930   3.075  -8.269  0.00  0.00    +0.461 C 
ATOM     34  F   UNL     1      -1.552   1.913  -8.950  0.00  0.00    -0.165 F 
ATOM     35  F   UNL     1      -3.215   3.454  -8.670  0.00  0.00    -0.165 F 
ATOM     36  F   UNL     1      -1.027   4.103  -8.563  0.00  0.00    -0.165 F 
ENDBRANCH  30  33
ENDBRANCH  27  30
ENDBRANCH  25  27
ENDBRANCH  11  24
TORSDOF 7
