REMARK  Name = ZINC31037674
REMARK  12 active torsions:
REMARK  status: ('A' for Active; 'I' for Inactive)
REMARK    1  A    between atoms: C_1  and  C_2
REMARK    2  A    between atoms: C_5  and  C_8
REMARK    3  A    between atoms: C_8  and  C_10
REMARK    4  A    between atoms: C_8  and  N_15
REMARK    5  A    between atoms: C_16  and  C_18
REMARK    6  A    between atoms: C_18  and  N_19
REMARK    7  A    between atoms: N_19  and  C_20
REMARK    8  A    between atoms: N_19  and  C_21
REMARK    9  A    between atoms: C_21  and  C_22
REMARK   10  A    between atoms: N_24  and  C_25
REMARK   11  A    between atoms: C_30  and  S_31
REMARK   12  A    between atoms: S_31  and  C_32
REMARK                            x       y       z     vdW  Elec       q    Type
REMARK                         _______ _______ _______ _____ _____    ______ ____
ROOT
ATOM      1  N   UNL     1      -2.350  -2.752   0.767  0.00  0.00    -0.306 N 
ATOM      2  C   UNL     1      -1.239  -2.035   0.509  0.00  0.00    +0.197 C 
ATOM      3  O   UNL     1      -0.159  -2.586   0.461  0.00  0.00    -0.278 OA
ATOM      4  H   UNL     1      -3.329  -2.253   0.811  0.00  0.00    +0.150 HD
ENDROOT
BRANCH   1   5
ATOM      5  C   UNL     1      -2.254  -4.197   0.991  0.00  0.00    +0.140 C 
BRANCH   5  10
ATOM      6  C   UNL     1      -6.729  -5.952   4.198  0.00  0.00    +0.044 C 
ATOM      7  C   UNL     1      -5.562  -5.494   3.362  0.00  0.00    -0.050 A 
ATOM      8  C   UNL     1      -4.303  -6.019   3.586  0.00  0.00    +0.004 A 
ATOM      9  C   UNL     1      -3.233  -5.599   2.819  0.00  0.00    +0.006 A 
ATOM     10  C   UNL     1      -3.421  -4.655   1.827  0.00  0.00    -0.022 A 
ATOM     11  C   UNL     1      -4.679  -4.126   1.607  0.00  0.00    +0.006 A 
ATOM     12  C   UNL     1      -5.751  -4.549   2.371  0.00  0.00    +0.004 A 
ENDBRANCH   5  10
BRANCH   5  13
ATOM     13  C   UNL     1      -2.275  -4.913  -0.335  0.00  0.00    +0.014 A 
ATOM     14  C   UNL     1      -1.548  -5.983  -0.739  0.00  0.00    +0.013 A 
ATOM     15  C   UNL     1      -1.739  -6.480  -2.015  0.00  0.00    +0.008 A 
ATOM     16  C   UNL     1      -2.639  -5.876  -2.828  0.00  0.00    +0.045 A 
ATOM     17  S   UNL     1      -3.258  -4.566  -1.784  0.00  0.00    -0.099 S 
ENDBRANCH   5  13
ENDBRANCH   1   5
BRANCH   2  18
ATOM     18  C   UNL     1      -1.338  -0.549   0.279  0.00  0.00    +0.019 C 
BRANCH  18  19
ATOM     19  N   UNL     1       0.002  -0.004   0.020  0.00  0.00    +0.389 N 
ATOM     20  C   UNL     1       0.543  -0.518  -1.245  0.00  0.00    -0.095 C 
ATOM     21  H   UNL     1       0.665  -0.336   0.831  0.00  0.00    -0.081 HD
BRANCH  19  22
ATOM     22  C   UNL     1      -0.018   1.465   0.026  0.00  0.00    +0.019 C 
BRANCH  22  23
ATOM     23  C   UNL     1       1.396   1.986   0.003  0.00  0.00    +0.201 C 
ATOM     24  O   UNL     1       2.328   1.211  -0.016  0.00  0.00    -0.278 OA
ATOM     25  N   UNL     1       1.624   3.315   0.004  0.00  0.00    -0.286 N 
ATOM     26  H   UNL     1       0.781   4.018  -0.070  0.00  0.00    +0.155 HD
BRANCH  25  27
ATOM     27  C   UNL     1       2.935   3.800   0.100  0.00  0.00    +0.047 A 
ATOM     28  C   UNL     1       3.922   3.026   0.692  0.00  0.00    +0.024 A 
ATOM     29  C   UNL     1       5.216   3.504   0.780  0.00  0.00    +0.002 A 
ATOM     30  C   UNL     1       5.529   4.759   0.290  0.00  0.00    +0.001 A 
ATOM     31  C   UNL     1       4.551   5.540  -0.296  0.00  0.00    +0.016 A 
ATOM     32  C   UNL     1       3.251   5.066  -0.394  0.00  0.00    +0.029 A 
BRANCH  32  33
ATOM     33  S   UNL     1       2.002   6.060  -1.140  0.00  0.00    -0.127 S 
ATOM     34  C   UNL     1       2.874   7.578  -1.614  0.00  0.00    +0.090 C 
ENDBRANCH  32  33
ENDBRANCH  25  27
ENDBRANCH  22  23
ENDBRANCH  19  22
ENDBRANCH  18  19
ENDBRANCH   2  18
TORSDOF 9
