REMARK  Name = ZINC64245491
REMARK  6 active torsions:
REMARK  status: ('A' for Active; 'I' for Inactive)
REMARK    1  A    between atoms: C_1  and  C_2
REMARK    2  A    between atoms: C_2  and  C_3
REMARK    3  A    between atoms: C_2  and  C_4
REMARK    4  A    between atoms: C_2  and  C_5
REMARK    5  A    between atoms: C_11  and  N_13
REMARK    6  A    between atoms: C_14  and  C_16
REMARK                            x       y       z     vdW  Elec       q    Type
REMARK                         _______ _______ _______ _____ _____    ______ ____
ROOT
ATOM      1  N   UNL     1       2.556  -1.339  -0.231  0.00  0.00    -0.308 N 
ATOM      2  C   UNL     1       3.772  -0.912   0.165  0.00  0.00    +0.244 C 
ATOM      3  O   UNL     1       4.339  -0.035  -0.456  0.00  0.00    -0.270 OA
ATOM      4  H   UNL     1       2.103  -2.039   0.265  0.00  0.00    +0.149 HD
ENDROOT
BRANCH   2   5
ATOM      5  C   UNL     1       4.416  -1.512   1.355  0.00  0.00    +0.039 A 
ATOM      6  C   UNL     1       3.727  -2.570   2.090  0.00  0.00    +0.015 A 
ATOM      7  C   UNL     1       4.270  -3.149   3.181  0.00  0.00    +0.026 A 
ATOM      8  C   UNL     1       5.542  -2.743   3.654  0.00  0.00    +0.055 A 
ATOM      9  N   UNL     1       6.073  -3.310   4.720  0.00  0.00    -0.276 N 
ATOM     10  C   UNL     1       7.283  -2.916   5.160  0.00  0.00    +0.304 C 
ATOM     11  O   UNL     1       7.776  -3.436   6.141  0.00  0.00    -0.265 OA
ATOM     12  C   UNL     1       8.016  -1.835   4.432  0.00  0.00    +0.304 C 
ATOM     13  O   UNL     1       9.108  -1.470   4.817  0.00  0.00    -0.265 OA
ATOM     14  N   UNL     1       7.453  -1.268   3.341  0.00  0.00    -0.276 N 
ATOM     15  C   UNL     1       6.271  -1.670   2.931  0.00  0.00    +0.056 A 
ATOM     16  C   UNL     1       5.647  -1.072   1.747  0.00  0.00    +0.038 A 
ATOM     17  H   UNL     1       5.591  -4.011   5.188  0.00  0.00    +0.155 HD
ATOM     18  H   UNL     1       7.921  -0.566   2.862  0.00  0.00    +0.155 HD
ENDBRANCH   2   5
BRANCH   1  24
ATOM     19  C   UNL     1       0.399  -0.763  -1.229  0.00  0.00    +0.015 C 
ATOM     20  C   UNL     1      -0.078  -2.207  -1.064  0.00  0.00    +0.006 C 
ATOM     21  C   UNL     1       0.298  -3.014  -2.309  0.00  0.00    +0.000 C 
ATOM     22  C   UNL     1       1.817  -2.997  -2.488  0.00  0.00    +0.002 C 
ATOM     23  C   UNL     1       2.295  -1.552  -2.653  0.00  0.00    +0.022 C 
ATOM     24  C   UNL     1       1.919  -0.746  -1.409  0.00  0.00    +0.077 C 
BRANCH  19  26
ATOM     25  C   UNL     1       0.640   1.441  -0.077  0.00  0.00    +0.011 C 
ATOM     26  C   UNL     1       0.023   0.044   0.015  0.00  0.00    -0.033 C 
ATOM     27  C   UNL     1       0.553  -0.666   1.262  0.00  0.00    +0.011 C 
ATOM     28  C   UNL     1      -1.500   0.164   0.104  0.00  0.00    +0.011 C 
ENDBRANCH  19  26
ENDBRANCH   1  24
TORSDOF 3
