REMARK  Name = ZINC65413909
REMARK  9 active torsions:
REMARK  status: ('A' for Active; 'I' for Inactive)
REMARK    1  A    between atoms: C_1  and  C_2
REMARK    2  A    between atoms: C_4  and  C_21
REMARK    3  A    between atoms: C_7  and  N_8
REMARK    4  A    between atoms: N_11  and  C_12
REMARK    5  A    between atoms: C_12  and  C_13
REMARK    6  A    between atoms: C_12  and  C_14
REMARK    7  A    between atoms: C_16  and  C_20
REMARK    8  A    between atoms: C_18  and  C_19
REMARK    9  A    between atoms: C_26  and  C_29
REMARK                            x       y       z     vdW  Elec       q    Type
REMARK                         _______ _______ _______ _____ _____    ______ ____
ROOT
ATOM      1  C   UNL     1      -0.841   1.253   0.229  0.00  0.00    +0.045 C 
ATOM      2  C   UNL     1      -0.385  -0.183   0.192  0.00  0.00    -0.028 A 
ATOM      3  C   UNL     1      -0.378  -0.872  -1.000  0.00  0.00    +0.018 A 
ATOM      4  C   UNL     1       0.045  -2.203  -1.034  0.00  0.00    +0.037 A 
ATOM      5  C   UNL     1       0.460  -2.831   0.144  0.00  0.00    +0.015 A 
ATOM      6  C   UNL     1       0.451  -2.136   1.333  0.00  0.00    +0.024 A 
ATOM      7  C   UNL     1       0.035  -0.809   1.361  0.00  0.00    +0.038 A 
ENDROOT
BRANCH   4   8
ATOM      8  C   UNL     1       0.053  -2.945  -2.309  0.00  0.00    +0.247 C 
ATOM      9  O   UNL     1       0.438  -2.401  -3.326  0.00  0.00    -0.270 OA
ATOM     10  N   UNL     1      -0.366  -4.225  -2.347  0.00  0.00    -0.298 N 
ATOM     11  C   UNL     1      -0.445  -4.949  -3.623  0.00  0.00    +0.108 C 
ATOM     12  C   UNL     1      -1.856  -5.527  -3.776  0.00  0.00    +0.022 C 
ATOM     13  C   UNL     1      -2.190  -6.378  -2.548  0.00  0.00    -0.011 C 
ATOM     14  C   UNL     1      -2.160  -5.501  -1.294  0.00  0.00    +0.022 C 
ATOM     15  C   UNL     1      -0.748  -4.925  -1.113  0.00  0.00    +0.108 C 
ATOM     16  C   UNL     1      -3.585  -6.985  -2.713  0.00  0.00    +0.007 C 
ENDBRANCH   4   8
BRANCH   7  17
ATOM     17  N   UNL     1       0.032  -0.106   2.566  0.00  0.00    -0.269 N 
ATOM     18  C   UNL     1      -0.102  -0.769   3.732  0.00  0.00    +0.304 C 
ATOM     19  O   UNL     1      -0.143  -1.984   3.739  0.00  0.00    -0.252 OA
ATOM     20  N   UNL     1      -0.192  -0.084   4.889  0.00  0.00    -0.292 N 
ATOM     21  H   UNL     1       0.127   0.859   2.564  0.00  0.00    +0.156 HD
ATOM     22  H   UNL     1      -0.159   0.885   4.883  0.00  0.00    +0.151 HD
BRANCH  20  23
ATOM     23  C   UNL     1      -0.338  -0.804   6.157  0.00  0.00    +0.105 C 
ATOM     24  C   UNL     1      -1.816  -1.117   6.398  0.00  0.00    +0.033 C 
BRANCH  23  25
ATOM     25  C   UNL     1       0.185   0.050   7.283  0.00  0.00    +0.013 A 
ATOM     26  C   UNL     1       0.271   1.461   7.301  0.00  0.00    +0.050 A 
ATOM     27  C   UNL     1       0.793   1.805   8.492  0.00  0.00    +0.103 A 
ATOM     28  O   UNL     1       1.026   0.683   9.193  0.00  0.00    -0.465 OA
ATOM     29  C   UNL     1       0.655  -0.384   8.466  0.00  0.00    +0.107 A 
ATOM     30  C   UNL     1       0.752  -1.823   8.902  0.00  0.00    +0.086 C 
ATOM     31  C   UNL     1       1.069   3.210   8.960  0.00  0.00    +0.086 C 
ENDBRANCH  23  25
ENDBRANCH  20  23
ENDBRANCH   7  17
TORSDOF 4
