REMARK  Name = ZINC39469325
REMARK  7 active torsions:
REMARK  status: ('A' for Active; 'I' for Inactive)
REMARK    1  A    between atoms: C_1  and  C_2
REMARK    2  A    between atoms: C_2  and  O_3
REMARK    3  A    between atoms: O_3  and  P_4
REMARK    4  A    between atoms: C_12  and  C_29
REMARK    5  A    between atoms: C_13  and  C_22
REMARK    6  A    between atoms: C_22  and  C_23
REMARK    7  A    between atoms: C_29  and  C_30
REMARK                            x       y       z     vdW  Elec       q    Type
REMARK                         _______ _______ _______ _____ _____    ______ ____
ROOT
ATOM      1  P   UNL     1      -2.323  -1.974  -0.071  0.00  0.00    +0.394 P 
ATOM      2  O   UNL     1      -1.394  -2.641  -1.010  0.00  0.00    -0.241 OA
ATOM      3  N   UNL     1      -2.082  -2.524   1.466  0.00  0.00    -0.268 NA
ATOM      4  N   UNL     1      -2.612  -3.752   1.800  0.00  0.00    +0.399 N 
ATOM      5  C   UNL     1      -2.349  -3.931   3.237  0.00  0.00    -0.046 C 
ATOM      6  C   UNL     1      -2.880  -5.271   3.729  0.00  0.00    +0.005 C 
ATOM      7  C   UNL     1      -2.209  -6.405   3.002  0.00  0.00    -0.021 C 
ATOM      8  C   UNL     1      -2.810  -7.591   2.943  0.00  0.00    -0.044 C 
ATOM      9  C   UNL     1      -4.116  -7.777   3.600  0.00  0.00    -0.043 C 
ATOM     10  C   UNL     1      -4.878  -6.720   3.864  0.00  0.00    -0.019 C 
ATOM     11  C   UNL     1      -4.389  -5.345   3.479  0.00  0.00    +0.016 C 
ATOM     12  C   UNL     1      -4.649  -5.116   1.990  0.00  0.00    -0.003 C 
ATOM     13  C   UNL     1      -4.053  -3.778   1.539  0.00  0.00    -0.020 C 
ATOM     14  C   UNL     1      -4.355  -3.631   0.042  0.00  0.00    +0.159 C 
ATOM     15  O   UNL     1      -3.862  -2.363  -0.427  0.00  0.00    -0.299 OA
ATOM     16  H   UNL     1      -1.583  -2.001   2.114  0.00  0.00    +0.113 HD
ATOM     17  H   UNL     1      -2.156  -4.476   1.265  0.00  0.00    -0.055 HD
ENDROOT
BRANCH   1  18
ATOM     18  O   UNL     1      -2.123  -0.377  -0.130  0.00  0.00    -0.298 OA
BRANCH  18  20
ATOM     19  C   UNL     1      -1.008   1.765  -0.223  0.00  0.00    +0.035 C 
ATOM     20  C   UNL     1      -0.837   0.245  -0.173  0.00  0.00    +0.168 C 
ENDBRANCH  18  20
ENDBRANCH   1  18
BRANCH   9  21
ATOM     21  C   UNL     1      -4.585  -9.159   3.972  0.00  0.00    +0.070 C 
BRANCH  21  22
ATOM     22  C   UNL     1      -4.040  -9.528   5.327  0.00  0.00    -0.043 A 
ATOM     23  C   UNL     1      -2.797 -10.123   5.434  0.00  0.00    +0.004 A 
ATOM     24  C   UNL     1      -2.297 -10.461   6.677  0.00  0.00    +0.000 A 
ATOM     25  C   UNL     1      -3.039 -10.204   7.814  0.00  0.00    +0.000 A 
ATOM     26  C   UNL     1      -4.282  -9.608   7.708  0.00  0.00    +0.000 A 
ATOM     27  C   UNL     1      -4.781  -9.266   6.465  0.00  0.00    +0.004 A 
ENDBRANCH  21  22
ENDBRANCH   9  21
BRANCH   8  28
ATOM     28  C   UNL     1      -2.161  -8.736   2.209  0.00  0.00    +0.070 C 
BRANCH  28  29
ATOM     29  C   UNL     1      -2.674  -8.781   0.793  0.00  0.00    -0.043 A 
ATOM     30  C   UNL     1      -3.723  -9.620   0.464  0.00  0.00    +0.004 A 
ATOM     31  C   UNL     1      -4.194  -9.661  -0.835  0.00  0.00    +0.000 A 
ATOM     32  C   UNL     1      -3.617  -8.863  -1.805  0.00  0.00    +0.000 A 
ATOM     33  C   UNL     1      -2.569  -8.023  -1.476  0.00  0.00    +0.000 A 
ATOM     34  C   UNL     1      -2.101  -7.979  -0.176  0.00  0.00    +0.004 A 
ENDBRANCH  28  29
ENDBRANCH   8  28
TORSDOF 6
