REMARK  Name = ZINC33723010
REMARK  11 active torsions:
REMARK  status: ('A' for Active; 'I' for Inactive)
REMARK    1  A    between atoms: C_1  and  C_2
REMARK    2  A    between atoms: C_7  and  C_8
REMARK    3  A    between atoms: C_18  and  C_20
REMARK    4  A    between atoms: C_20  and  N_21
REMARK    5  A    between atoms: N_21  and  C_22
REMARK    6  A    between atoms: N_21  and  S_26
REMARK    7  A    between atoms: C_22  and  C_23
REMARK    8  A    between atoms: S_26  and  C_29
REMARK    9  A    between atoms: C_30  and  C_37
REMARK   10  A    between atoms: C_32  and  C_36
REMARK   11  A    between atoms: C_34  and  C_35
REMARK                            x       y       z     vdW  Elec       q    Type
REMARK                         _______ _______ _______ _____ _____    ______ ____
ROOT
ATOM      1  C   UNL     1       1.357   0.253   0.777  0.00  0.00    +0.138 C 
ATOM      2  C   UNL     1       1.894   1.640   1.123  0.00  0.00    -0.012 A 
ATOM      3  C   UNL     1       1.116   2.795   1.070  0.00  0.00    +0.013 A 
ATOM      4  C   UNL     1       1.659   3.992   1.392  0.00  0.00    +0.046 A 
ATOM      5  S   UNL     1       3.336   3.536   1.806  0.00  0.00    -0.101 S 
ATOM      6  C   UNL     1       3.189   1.793   1.512  0.00  0.00    -0.003 A 
ATOM      7  C   UNL     1       4.236   0.737   1.655  0.00  0.00    +0.062 C 
ATOM      8  C   UNL     1       3.548  -0.637   1.686  0.00  0.00    +0.114 C 
ATOM      9  N   UNL     1       2.505  -0.655   0.649  0.00  0.00    -0.289 N 
ATOM     10  C   UNL     1       2.601  -1.492  -0.403  0.00  0.00    +0.232 C 
ATOM     11  O   UNL     1       1.770  -1.454  -1.285  0.00  0.00    -0.274 OA
ENDROOT
BRANCH   1  18
ATOM     12  C   UNL     1      -1.282  -0.909   0.585  0.00  0.00    +0.044 C 
ATOM     13  C   UNL     1      -0.660  -0.248  -0.618  0.00  0.00    -0.045 A 
ATOM     14  C   UNL     1      -1.352  -0.197  -1.814  0.00  0.00    +0.004 A 
ATOM     15  C   UNL     1      -0.782   0.410  -2.917  0.00  0.00    +0.000 A 
ATOM     16  C   UNL     1       0.480   0.966  -2.825  0.00  0.00    +0.000 A 
ATOM     17  C   UNL     1       1.171   0.919  -1.628  0.00  0.00    +0.006 A 
ATOM     18  C   UNL     1       0.602   0.308  -0.526  0.00  0.00    -0.020 A 
ENDBRANCH   1  18
BRANCH  10  19
ATOM     19  C   UNL     1       3.742  -2.473  -0.483  0.00  0.00    +0.205 C 
BRANCH  19  20
ATOM     20  N   UNL     1       3.622  -3.262  -1.712  0.00  0.00    -0.168 NA
BRANCH  20  21
ATOM     21  S   UNL     1       2.873  -4.739  -1.678  0.00  0.00    +0.062 S 
ATOM     22  O   UNL     1       3.260  -5.418  -2.865  0.00  0.00    -0.153 OA
ATOM     23  O   UNL     1       3.100  -5.279  -0.383  0.00  0.00    -0.153 OA
BRANCH  21  24
ATOM     24  C   UNL     1       1.140  -4.448  -1.806  0.00  0.00    +0.111 A 
ATOM     25  C   UNL     1       0.516  -4.525  -3.037  0.00  0.00    -0.024 A 
ATOM     26  C   UNL     1      -0.845  -4.301  -3.137  0.00  0.00    +0.008 A 
ATOM     27  C   UNL     1      -1.579  -3.991  -2.008  0.00  0.00    -0.050 A 
ATOM     28  C   UNL     1      -0.954  -3.908  -0.778  0.00  0.00    +0.008 A 
ATOM     29  C   UNL     1       0.406  -4.137  -0.677  0.00  0.00    -0.024 A 
ATOM     30  C   UNL     1       1.088  -4.047   0.664  0.00  0.00    +0.046 C 
ATOM     31  C   UNL     1      -3.061  -3.742  -2.118  0.00  0.00    +0.044 C 
ATOM     32  C   UNL     1       1.317  -4.858  -4.269  0.00  0.00    +0.046 C 
ENDBRANCH  21  24
ENDBRANCH  20  21
BRANCH  20  33
ATOM     33  C   UNL     1       4.163  -2.744  -2.971  0.00  0.00    +0.113 C 
BRANCH  33  34
ATOM     34  C   UNL     1       5.673  -2.986  -3.014  0.00  0.00    +0.005 C 
ATOM     35  C   UNL     1       6.585  -1.757  -3.049  0.00  0.00    +0.005 C 
ATOM     36  C   UNL     1       6.411  -2.618  -4.303  0.00  0.00    +0.005 C 
ENDBRANCH  33  34
ENDBRANCH  20  33
ENDBRANCH  19  20
ENDBRANCH  10  19
TORSDOF 7
