REMARK  Name = ZINC35844989
REMARK  15 active torsions:
REMARK  status: ('A' for Active; 'I' for Inactive)
REMARK    1  A    between atoms: C_1  and  C_2
REMARK    2  A    between atoms: C_5  and  C_7
REMARK    3  A    between atoms: C_7  and  N_8
REMARK    4  A    between atoms: N_8  and  C_9
REMARK    5  A    between atoms: C_9  and  C_10
REMARK    6  A    between atoms: C_10  and  C_11
REMARK    7  A    between atoms: C_17  and  C_19
REMARK    8  A    between atoms: C_19  and  N_20
REMARK    9  A    between atoms: N_20  and  C_21
REMARK   10  A    between atoms: N_20  and  C_26
REMARK   11  A    between atoms: C_21  and  C_22
REMARK   12  A    between atoms: C_22  and  C_23
REMARK   13  A    between atoms: C_23  and  C_24
REMARK   14  A    between atoms: C_23  and  C_25
REMARK   15  A    between atoms: C_26  and  C_27
REMARK                            x       y       z     vdW  Elec       q    Type
REMARK                         _______ _______ _______ _____ _____    ______ ____
ROOT
ATOM      1  N   UNL     1       1.935  -3.541  -2.493  0.00  0.00    -0.295 N 
ATOM      2  C   UNL     1       1.085  -4.550  -2.766  0.00  0.00    +0.199 C 
ATOM      3  O   UNL     1       1.202  -5.179  -3.797  0.00  0.00    -0.278 OA
ENDROOT
BRANCH   1   4
ATOM      4  C   UNL     1       1.794  -2.781  -1.248  0.00  0.00    +0.181 C 
BRANCH   4   9
ATOM      5  C   UNL     1       0.169   1.855  -2.389  0.00  0.00    +0.086 C 
ATOM      6  C   UNL     1       0.168   0.407  -1.972  0.00  0.00    +0.102 A 
ATOM      7  C   UNL     1      -0.916  -0.314  -1.636  0.00  0.00    +0.045 A 
ATOM      8  C   UNL     1      -0.461  -1.614  -1.316  0.00  0.00    +0.046 A 
ATOM      9  C   UNL     1       0.875  -1.609  -1.477  0.00  0.00    +0.122 A 
ATOM     10  O   UNL     1       1.250  -0.384  -1.880  0.00  0.00    -0.463 OA
ENDBRANCH   4   9
ENDBRANCH   1   4
BRANCH   1  11
ATOM     11  C   UNL     1       3.001  -3.204  -3.440  0.00  0.00    +0.113 C 
BRANCH  11  12
ATOM     12  C   UNL     1       4.256  -4.012  -3.105  0.00  0.00    +0.054 C 
BRANCH  12  13
ATOM     13  C   UNL     1       5.352  -3.665  -4.079  0.00  0.00    -0.046 A 
ATOM     14  C   UNL     1       5.481  -4.378  -5.256  0.00  0.00    +0.004 A 
ATOM     15  C   UNL     1       6.487  -4.060  -6.150  0.00  0.00    +0.000 A 
ATOM     16  C   UNL     1       7.362  -3.029  -5.867  0.00  0.00    +0.000 A 
ATOM     17  C   UNL     1       7.232  -2.315  -4.691  0.00  0.00    +0.000 A 
ATOM     18  C   UNL     1       6.224  -2.630  -3.799  0.00  0.00    +0.004 A 
ENDBRANCH  12  13
ENDBRANCH  11  12
ENDBRANCH   1  11
BRANCH   2  19
ATOM     19  C   UNL     1      -0.011  -4.897  -1.792  0.00  0.00    +0.019 C 
BRANCH  19  20
ATOM     20  N   UNL     1      -0.795  -6.023  -2.317  0.00  0.00    +0.388 N 
ATOM     21  H   UNL     1      -1.134  -5.796  -3.240  0.00  0.00    -0.081 HD
BRANCH  20  22
ATOM     22  C   UNL     1       0.054  -7.220  -2.389  0.00  0.00    -0.077 C 
BRANCH  22  23
ATOM     23  C   UNL     1      -0.709  -8.345  -3.089  0.00  0.00    -0.016 C 
BRANCH  23  24
ATOM     24  C   UNL     1       0.151  -9.611  -3.105  0.00  0.00    -0.019 C 
ATOM     25  C   UNL     1       0.365 -10.099  -1.671  0.00  0.00    +0.007 C 
ATOM     26  C   UNL     1      -0.559 -10.699  -3.913  0.00  0.00    +0.007 C 
ENDBRANCH  23  24
ENDBRANCH  22  23
ENDBRANCH  20  22
BRANCH  20  27
ATOM     27  C   UNL     1      -1.934  -6.284  -1.427  0.00  0.00    -0.042 C 
BRANCH  27  28
ATOM     28  C   UNL     1      -2.874  -5.106  -1.456  0.00  0.00    -0.064 A 
ATOM     29  C   UNL     1      -2.785  -4.127  -0.483  0.00  0.00    +0.003 A 
ATOM     30  C   UNL     1      -3.646  -3.047  -0.509  0.00  0.00    +0.015 A 
ATOM     31  C   UNL     1      -4.597  -2.944  -1.508  0.00  0.00    +0.018 A 
ATOM     32  C   UNL     1      -4.685  -3.923  -2.481  0.00  0.00    +0.015 A 
ATOM     33  C   UNL     1      -3.820  -5.001  -2.457  0.00  0.00    +0.003 A 
ATOM     34 BR   UNL     1      -5.776  -1.466  -1.544  0.00  0.00    -0.050 Br
ENDBRANCH  27  28
ENDBRANCH  20  27
ENDBRANCH  19  20
ENDBRANCH   2  19
TORSDOF 12
