REMARK  Name = ZINC64626299
REMARK  10 active torsions:
REMARK  status: ('A' for Active; 'I' for Inactive)
REMARK    1  A    between atoms: C_1  and  C_2
REMARK    2  A    between atoms: C_4  and  C_21
REMARK    3  A    between atoms: C_7  and  C_10
REMARK    4  A    between atoms: C_15  and  N_16
REMARK    5  A    between atoms: N_16  and  S_17
REMARK    6  A    between atoms: S_17  and  C_20
REMARK    7  A    between atoms: C_21  and  N_22
REMARK    8  A    between atoms: N_22  and  C_23
REMARK    9  A    between atoms: N_22  and  C_24
REMARK   10  A    between atoms: C_24  and  C_25
REMARK                            x       y       z     vdW  Elec       q    Type
REMARK                         _______ _______ _______ _____ _____    ______ ____
ROOT
ATOM      1  C   UNL     1       0.108   1.053  -0.302  0.00  0.00    +0.039 C 
ATOM      2  C   UNL     1      -0.002  -0.448  -0.023  0.00  0.00    +0.133 C 
ATOM      3  C   UNL     1      -1.482  -0.855   0.117  0.00  0.00    +0.068 C 
ATOM      4  N   UNL     1      -1.591  -1.409   1.490  0.00  0.00    -0.284 NA
ATOM      5  C   UNL     1      -0.198  -1.809   1.817  0.00  0.00    +0.220 C 
ATOM      6  O   UNL     1       0.617  -0.764   1.239  0.00  0.00    -0.353 OA
ATOM      7  H   UNL     1      -1.928  -0.712   2.136  0.00  0.00    +0.125 HD
ENDROOT
BRANCH   5   8
ATOM      8  C   UNL     1      -0.002  -1.869   3.310  0.00  0.00    +0.020 A 
ATOM      9  C   UNL     1      -0.921  -1.273   4.152  0.00  0.00    +0.009 A 
ATOM     10  C   UNL     1      -0.742  -1.328   5.522  0.00  0.00    +0.001 A 
ATOM     11  C   UNL     1       0.356  -1.979   6.054  0.00  0.00    +0.002 A 
ATOM     12  C   UNL     1       1.278  -2.577   5.218  0.00  0.00    +0.027 A 
ATOM     13  C   UNL     1       1.099  -2.529   3.841  0.00  0.00    +0.081 A 
BRANCH  13  14
ATOM     14  N   UNL     1       2.026  -3.138   2.993  0.00  0.00    -0.102 NA
BRANCH  14  15
ATOM     15  S   UNL     1       3.338  -3.924   3.628  0.00  0.00    +0.059 S 
ATOM     16  O   UNL     1       4.088  -2.909   4.281  0.00  0.00    -0.154 OA
ATOM     17  O   UNL     1       2.789  -5.007   4.366  0.00  0.00    -0.154 OA
ATOM     18  C   UNL     1       4.250  -4.546   2.189  0.00  0.00    +0.220 C 
ENDBRANCH  14  15
ENDBRANCH  13  14
ENDBRANCH   5   8
BRANCH   3  19
ATOM     19  C   UNL     1      -2.389   0.367  -0.040  0.00  0.00    -0.057 C 
BRANCH  19  20
ATOM     20  N   UNL     1      -3.782  -0.021   0.215  0.00  0.00    +0.381 N 
ATOM     21  C   UNL     1      -4.224  -0.969  -0.818  0.00  0.00    -0.096 C 
ATOM     22  H   UNL     1      -3.849  -0.458   1.122  0.00  0.00    -0.082 HD
BRANCH  20  23
ATOM     23  C   UNL     1      -4.637   1.173   0.181  0.00  0.00    -0.045 C 
BRANCH  23  24
ATOM     24  C   UNL     1      -4.279   2.080   1.330  0.00  0.00    -0.058 C 
ATOM     25  C   UNL     1      -3.440   3.140   1.298  0.00  0.00    -0.003 A 
ATOM     26  C   UNL     1      -2.639   3.742   0.226  0.00  0.00    +0.010 A 
ATOM     27  C   UNL     1      -1.877   4.824   0.504  0.00  0.00    +0.001 A 
ATOM     28  C   UNL     1      -1.832   5.383   1.789  0.00  0.00    +0.002 A 
ATOM     29  C   UNL     1      -2.540   4.886   2.825  0.00  0.00    +0.026 A 
ATOM     30  C   UNL     1      -3.376   3.749   2.646  0.00  0.00    +0.043 A 
ATOM     31  N   UNL     1      -4.146   3.091   3.478  0.00  0.00    -0.380 N 
ATOM     32  C   UNL     1      -4.790   1.992   2.751  0.00  0.00    +0.142 C 
ATOM     33  H   UNL     1      -4.271   3.299   4.418  0.00  0.00    +0.160 HD
ENDBRANCH  23  24
ENDBRANCH  20  23
ENDBRANCH  19  20
ENDBRANCH   3  19
TORSDOF 7
