REMARK  Name = ZINC03342998
REMARK  10 active torsions:
REMARK  status: ('A' for Active; 'I' for Inactive)
REMARK    1  A    between atoms: C_1  and  C_2
REMARK    2  A    between atoms: C_3  and  C_35
REMARK    3  A    between atoms: C_11  and  C_13
REMARK    4  A    between atoms: C_13  and  C_15
REMARK    5  A    between atoms: C_13  and  S_16
REMARK    6  A    between atoms: S_16  and  C_17
REMARK    7  A    between atoms: C_20  and  C_29
REMARK    8  A    between atoms: N_21  and  C_22
REMARK    9  A    between atoms: C_22  and  C_23
REMARK   10  A    between atoms: C_29  and  N_64
REMARK                            x       y       z     vdW  Elec       q    Type
REMARK                         _______ _______ _______ _____ _____    ______ ____
ROOT
ATOM      1  C   UNL     1       2.610  -0.267  -2.180  0.00  0.00    +0.193 A 
ATOM      2  N   UNL     1       3.174  -0.065  -3.348  0.00  0.00    -0.123 NA
ATOM      3  N   UNL     1       3.799   1.058  -3.343  0.00  0.00    -0.135 NA
ATOM      4  C   UNL     1       3.668   1.637  -2.184  0.00  0.00    +0.118 A 
ATOM      5  N   UNL     1       2.903   0.816  -1.402  0.00  0.00    -0.303 N 
ENDROOT
BRANCH   1   6
ATOM      6  S   UNL     1       1.652  -1.668  -1.707  0.00  0.00    -0.075 S 
BRANCH   6   7
ATOM      7  C   UNL     1       1.720  -2.628  -3.240  0.00  0.00    +0.117 C 
ATOM      8  C   UNL     1       0.997  -1.865  -4.352  0.00  0.00    +0.027 C 
BRANCH   7  19
ATOM      9  C   UNL     1      -1.752  -8.124  -1.601  0.00  0.00    +0.045 C 
ATOM     10  C   UNL     1      -0.689  -7.747  -2.601  0.00  0.00    -0.026 A 
ATOM     11  C   UNL     1      -0.212  -8.660  -3.462  0.00  0.00    -0.008 A 
ATOM     12  S   UNL     1       0.992  -7.746  -4.407  0.00  0.00    -0.073 S 
ATOM     13  C   UNL     1       0.819  -6.166  -3.619  0.00  0.00    +0.116 A 
ATOM     14  C   UNL     1      -0.169  -6.393  -2.643  0.00  0.00    +0.075 A 
ATOM     15  C   UNL     1      -0.516  -5.260  -1.838  0.00  0.00    +0.260 A 
ATOM     16  O   UNL     1      -1.362  -5.356  -0.966  0.00  0.00    -0.267 OA
ATOM     17  N   UNL     1       0.107  -4.087  -2.060  0.00  0.00    -0.309 N 
ATOM     18  H   UNL     1      -0.124  -3.316  -1.519  0.00  0.00    +0.170 HD
ATOM     19  C   UNL     1       1.051  -3.961  -3.028  0.00  0.00    +0.124 A 
ATOM     20  N   UNL     1       1.386  -4.974  -3.781  0.00  0.00    -0.225 NA
ATOM     21  C   UNL     1      -0.600 -10.110  -3.597  0.00  0.00    +0.052 C 
ENDBRANCH   7  19
ENDBRANCH   6   7
ENDBRANCH   1   6
BRANCH   5  22
ATOM     22  C   UNL     1       2.490   1.048  -0.016  0.00  0.00    +0.160 C 
BRANCH  22  23
ATOM     23  C   UNL     1       1.175   1.783   0.000  0.00  0.00    -0.028 A 
ATOM     24  C   UNL     1      -0.013   1.076   0.008  0.00  0.00    +0.005 A 
ATOM     25  C   UNL     1      -1.219   1.751   0.017  0.00  0.00    +0.000 A 
ATOM     26  C   UNL     1      -1.238   3.133   0.029  0.00  0.00    +0.000 A 
ATOM     27  C   UNL     1      -0.050   3.840   0.022  0.00  0.00    +0.000 A 
ATOM     28  C   UNL     1       1.156   3.165   0.008  0.00  0.00    +0.005 A 
ENDBRANCH  22  23
ENDBRANCH   5  22
BRANCH   4  29
ATOM     29  C   UNL     1       4.253   2.966  -1.778  0.00  0.00    -0.001 C 
BRANCH  29  35
ATOM     30  C   UNL     1       5.502   2.009   0.061  0.00  0.00    -0.078 C 
ATOM     31  C   UNL     1       6.912   1.686   0.560  0.00  0.00    -0.019 C 
ATOM     32  C   UNL     1       7.685   2.990   0.771  0.00  0.00    -0.004 C 
ATOM     33  C   UNL     1       7.717   3.774  -0.544  0.00  0.00    -0.019 C 
ATOM     34  C   UNL     1       6.284   4.037  -1.011  0.00  0.00    -0.078 C 
ATOM     35  N   UNL     1       5.602   2.742  -1.219  0.00  0.00    +0.384 N 
ATOM     36  H   UNL     1       6.149   2.180  -1.882  0.00  0.00    -0.081 HD
ENDBRANCH  29  35
ENDBRANCH   4  29
TORSDOF 7
