REMARK  Name = ZINC15304870
REMARK  6 active torsions:
REMARK  status: ('A' for Active; 'I' for Inactive)
REMARK    1  A    between atoms: C_1  and  O_2
REMARK    2  A    between atoms: O_2  and  C_3
REMARK    3  A    between atoms: C_5  and  C_19
REMARK    4  A    between atoms: C_8  and  O_9
REMARK    5  A    between atoms: O_9  and  C_10
REMARK    6  A    between atoms: C_10  and  C_12
REMARK                            x       y       z     vdW  Elec       q    Type
REMARK                         _______ _______ _______ _____ _____    ______ ____
ROOT
ATOM      1  C   UNL     1      -2.495   0.946   0.025  0.00  0.00    +0.135 C 
ATOM      2  C   UNL     1      -3.054   0.904   1.427  0.00  0.00    +0.023 C 
ATOM      3  C   UNL     1      -3.974   1.816   1.849  0.00  0.00    -0.029 C 
ATOM      4  C   UNL     1      -4.370   1.872   3.303  0.00  0.00    +0.036 C 
ATOM      5  C   UNL     1      -3.303   1.228   4.190  0.00  0.00    +0.012 C 
ATOM      6  C   UNL     1      -3.062  -0.204   3.701  0.00  0.00    +0.080 C 
ATOM      7  C   UNL     1      -2.608  -0.130   2.268  0.00  0.00    +0.162 C 
ATOM      8  O   UNL     1      -1.851  -0.975   1.836  0.00  0.00    -0.292 OA
ATOM      9  C   UNL     1      -4.527   2.749   0.938  0.00  0.00    +0.007 A 
ATOM     10  C   UNL     1      -5.467   3.796   1.337  0.00  0.00    -0.009 A 
ATOM     11  C   UNL     1      -6.176   3.788   2.538  0.00  0.00    +0.009 A 
ATOM     12  C   UNL     1      -6.914   4.877   2.911  0.00  0.00    +0.001 A 
ATOM     13  C   UNL     1      -7.024   5.986   2.080  0.00  0.00    +0.001 A 
ATOM     14  C   UNL     1      -6.431   5.988   0.854  0.00  0.00    +0.008 A 
ATOM     15  C   UNL     1      -5.700   4.867   0.432  0.00  0.00    -0.017 A 
ATOM     16  C   UNL     1      -5.227   4.779  -0.891  0.00  0.00    +0.010 A 
ATOM     17  C   UNL     1      -4.515   3.701  -1.302  0.00  0.00    +0.024 A 
ATOM     18  C   UNL     1      -4.179   2.673  -0.420  0.00  0.00    +0.036 A 
ATOM     19  N   UNL     1      -3.453   1.585  -0.878  0.00  0.00    -0.332 N 
ATOM     20  H   UNL     1      -3.580   1.252  -1.783  0.00  0.00    +0.147 HD
ENDROOT
BRANCH   1  23
ATOM     21  C   UNL     1       1.192   1.778   0.031  0.00  0.00    +0.163 A 
ATOM     22  C   UNL     1       0.005   1.061   0.040  0.00  0.00    +0.055 A 
ATOM     23  C   UNL     1      -1.205   1.728   0.022  0.00  0.00    -0.019 A 
ATOM     24  C   UNL     1      -1.237   3.110   0.006  0.00  0.00    +0.009 A 
ATOM     25  C   UNL     1      -0.058   3.831  -0.003  0.00  0.00    +0.050 A 
ATOM     26  C   UNL     1       1.160   3.169   0.009  0.00  0.00    +0.173 A 
BRANCH  21  28
ATOM     27  C   UNL     1       2.339  -0.305   0.066  0.00  0.00    +0.277 C 
ATOM     28  O   UNL     1       2.383   1.123   0.043  0.00  0.00    -0.491 OA
ENDBRANCH  21  28
BRANCH  26  29
ATOM     29  O   UNL     1       2.321   3.877  -0.000  0.00  0.00    -0.419 OA
BRANCH  29  30
ATOM     30  C   UNL     1       2.941   4.019  -1.188  0.00  0.00    +0.345 C 
ATOM     31  O   UNL     1       2.412   3.611  -2.202  0.00  0.00    -0.245 OA
BRANCH  30  32
ATOM     32  C   UNL     1       4.264   4.671  -1.256  0.00  0.00    +0.059 A 
ATOM     33  C   UNL     1       4.873   5.146  -0.092  0.00  0.00    +0.016 A 
ATOM     34  C   UNL     1       6.111   5.748  -0.162  0.00  0.00    +0.021 A 
ATOM     35  C   UNL     1       6.747   5.893  -1.384  0.00  0.00    +0.041 A 
ATOM     36  C   UNL     1       6.146   5.429  -2.543  0.00  0.00    +0.021 A 
ATOM     37  C   UNL     1       4.910   4.819  -2.486  0.00  0.00    +0.016 A 
ATOM     38 CL   UNL     1       8.303   6.658  -1.465  0.00  0.00    -0.084 Cl
ENDBRANCH  30  32
ENDBRANCH  29  30
ENDBRANCH  26  29
ENDBRANCH   1  23
TORSDOF 5
