REMARK  Name = ZINC15830404
REMARK  9 active torsions:
REMARK  status: ('A' for Active; 'I' for Inactive)
REMARK    1  A    between atoms: C_1  and  C_2
REMARK    2  A    between atoms: C_2  and  C_3
REMARK    3  A    between atoms: C_2  and  N_4
REMARK    4  A    between atoms: C_11  and  C_25
REMARK    5  A    between atoms: C_14  and  C_16
REMARK    6  A    between atoms: C_18  and  O_23
REMARK    7  A    between atoms: C_21  and  O_22
REMARK    8  A    between atoms: O_23  and  C_24
REMARK    9  A    between atoms: C_30  and  O_31
REMARK                            x       y       z     vdW  Elec       q    Type
REMARK                         _______ _______ _______ _____ _____    ______ ____
ROOT
ATOM      1  N   UNL     1       0.690  -0.478  -1.207  0.00  0.00    +0.381 N 
ATOM      2  C   UNL     1       2.063   0.039  -1.220  0.00  0.00    -0.075 C 
ATOM      3  C   UNL     1       2.760  -0.386  -2.515  0.00  0.00    +0.027 C 
ATOM      4  C   UNL     1       2.790  -1.916  -2.592  0.00  0.00    +0.109 C 
ATOM      5  C   UNL     1       1.354  -2.445  -2.507  0.00  0.00    +0.027 C 
ATOM      6  C   UNL     1       0.709  -1.945  -1.213  0.00  0.00    -0.075 C 
ATOM      7  N   UNL     1       3.381  -2.324  -3.874  0.00  0.00    -0.286 NA
ATOM      8  C   UNL     1       4.815  -1.992  -3.900  0.00  0.00    +0.095 C 
ATOM      9  C   UNL     1       5.531  -2.884  -2.881  0.00  0.00    +0.079 C 
ATOM     10  C   UNL     1       4.774  -2.870  -1.583  0.00  0.00    +0.051 C 
ATOM     11  N   UNL     1       3.570  -2.445  -1.479  0.00  0.00    -0.266 NA
ATOM     12  H   UNL     1       3.234  -3.308  -4.043  0.00  0.00    +0.125 HD
ATOM     13  H   UNL     1       0.199  -0.145  -2.023  0.00  0.00    -0.081 HD
ENDROOT
BRANCH  10  14
ATOM     14  C   UNL     1       5.448  -3.369  -0.371  0.00  0.00    +0.041 A 
ATOM     15  C   UNL     1       6.763  -3.835  -0.441  0.00  0.00    +0.059 A 
ATOM     16  C   UNL     1       7.390  -4.301   0.700  0.00  0.00    +0.121 A 
ATOM     17  C   UNL     1       6.716  -4.307   1.914  0.00  0.00    +0.049 A 
ATOM     18  C   UNL     1       5.416  -3.847   1.993  0.00  0.00    +0.049 A 
ATOM     19  C   UNL     1       4.776  -3.371   0.859  0.00  0.00    +0.126 A 
BRANCH  19  20
ATOM     20  O   UNL     1       3.500  -2.915   0.938  0.00  0.00    -0.506 OA
ATOM     21  H   UNL     1       2.829  -3.596   0.794  0.00  0.00    +0.292 HD
ENDBRANCH  19  20
BRANCH  16  22
ATOM     22  O   UNL     1       8.670  -4.756   0.632  0.00  0.00    -0.495 OA
ATOM     23  C   UNL     1       9.257  -5.223   1.849  0.00  0.00    +0.277 C 
ENDBRANCH  16  22
ENDBRANCH  10  14
BRANCH   8  24
ATOM     24  C   UNL     1       5.371  -2.244  -5.278  0.00  0.00    +0.011 A 
ATOM     25  C   UNL     1       4.699  -3.077  -6.152  0.00  0.00    +0.009 A 
ATOM     26  C   UNL     1       5.209  -3.309  -7.416  0.00  0.00    +0.001 A 
ATOM     27  C   UNL     1       6.391  -2.709  -7.809  0.00  0.00    +0.004 A 
ATOM     28  C   UNL     1       7.066  -1.876  -6.938  0.00  0.00    +0.046 A 
ATOM     29  C   UNL     1       6.554  -1.637  -5.671  0.00  0.00    +0.122 A 
BRANCH  29  30
ATOM     30  O   UNL     1       7.214  -0.812  -4.815  0.00  0.00    -0.506 OA
ATOM     31  H   UNL     1       7.862  -1.263  -4.256  0.00  0.00    +0.292 HD
ENDBRANCH  29  30
ENDBRANCH   8  24
BRANCH   1  33
ATOM     32  C   UNL     1      -0.019   1.526   0.010  0.00  0.00    -0.014 C 
ATOM     33  C   UNL     1       0.002  -0.004   0.002  0.00  0.00    -0.075 C 
ATOM     34  C   UNL     1      -1.433  -0.534   0.013  0.00  0.00    -0.014 C 
ENDBRANCH   1  33
TORSDOF 6
