REMARK  Name = ZINC19592416
REMARK  8 active torsions:
REMARK  status: ('A' for Active; 'I' for Inactive)
REMARK    1  A    between atoms: C_1  and  O_2
REMARK    2  A    between atoms: O_2  and  C_3
REMARK    3  A    between atoms: C_3  and  C_5
REMARK    4  A    between atoms: C_5  and  C_32
REMARK    5  A    between atoms: C_10  and  C_13
REMARK    6  A    between atoms: N_22  and  C_25
REMARK    7  A    between atoms: C_32  and  C_33
REMARK    8  A    between atoms: C_36  and  O_39
REMARK                            x       y       z     vdW  Elec       q    Type
REMARK                         _______ _______ _______ _____ _____    ______ ____
ROOT
ATOM      1  C   UNL     1       0.679  -2.115   1.088  0.00  0.00    +0.133 C 
ATOM      2  C   UNL     1       0.715  -2.596   2.535  0.00  0.00    +0.121 C 
ATOM      3  C   UNL     1      -0.802  -2.329   2.869  0.00  0.00    +0.111 C 
ATOM      4  C   UNL     1      -1.513  -2.934   1.736  0.00  0.00    +0.098 C 
ATOM      5  N   UNL     1      -0.590  -2.718   0.562  0.00  0.00    -0.293 NA
ATOM      6  C   UNL     1      -0.799  -2.350   4.312  0.00  0.00    +0.232 C 
ATOM      7  O   UNL     1      -1.681  -2.741   5.046  0.00  0.00    -0.274 OA
ATOM      8  N   UNL     1       0.419  -1.829   4.672  0.00  0.00    -0.207 N 
ATOM      9  C   UNL     1       1.305  -1.748   3.617  0.00  0.00    +0.232 C 
ATOM     10  O   UNL     1       2.341  -1.119   3.567  0.00  0.00    -0.274 OA
ATOM     11  H   UNL     1      -1.012  -2.122  -0.134  0.00  0.00    +0.124 HD
ENDROOT
BRANCH   4  12
ATOM     12  C   UNL     1      -1.750  -4.401   1.986  0.00  0.00    -0.027 A 
ATOM     13  C   UNL     1      -0.730  -5.311   1.779  0.00  0.00    +0.005 A 
ATOM     14  C   UNL     1      -0.947  -6.657   2.009  0.00  0.00    +0.003 A 
ATOM     15  C   UNL     1      -2.183  -7.094   2.445  0.00  0.00    +0.038 A 
ATOM     16  C   UNL     1      -3.205  -6.184   2.653  0.00  0.00    +0.124 A 
ATOM     17  C   UNL     1      -2.985  -4.835   2.428  0.00  0.00    +0.043 A 
ATOM     18  F   UNL     1      -4.414  -6.610   3.079  0.00  0.00    -0.205 F 
ENDBRANCH   4  12
BRANCH   8  19
ATOM     19  C   UNL     1       0.739  -1.432   5.979  0.00  0.00    +0.079 A 
ATOM     20  C   UNL     1       1.305  -2.339   6.863  0.00  0.00    +0.027 A 
ATOM     21  C   UNL     1       1.619  -1.945   8.149  0.00  0.00    +0.002 A 
ATOM     22  C   UNL     1       1.369  -0.647   8.557  0.00  0.00    +0.003 A 
ATOM     23  C   UNL     1       0.805   0.260   7.680  0.00  0.00    +0.040 A 
ATOM     24  C   UNL     1       0.494  -0.126   6.389  0.00  0.00    +0.145 A 
ATOM     25  F   UNL     1      -0.052   0.762   5.530  0.00  0.00    -0.204 F 
ENDBRANCH   8  19
BRANCH   1  26
ATOM     26  C   UNL     1       0.618  -0.611   1.029  0.00  0.00    +0.328 C 
ATOM     27  O   UNL     1       1.124   0.049   1.905  0.00  0.00    -0.249 OA
BRANCH  26  29
ATOM     28  C   UNL     1      -0.017   1.425   0.010  0.00  0.00    +0.280 C 
ATOM     29  O   UNL     1       0.002  -0.004   0.002  0.00  0.00    -0.467 OA
ENDBRANCH  26  29
ENDBRANCH   1  26
BRANCH   1  30
ATOM     30  C   UNL     1       1.889  -2.637   0.311  0.00  0.00    +0.069 C 
BRANCH  30  31
ATOM     31  C   UNL     1       1.790  -2.195  -1.127  0.00  0.00    -0.045 A 
ATOM     32  C   UNL     1       1.138  -2.991  -2.050  0.00  0.00    +0.007 A 
ATOM     33  C   UNL     1       1.047  -2.588  -3.369  0.00  0.00    +0.045 A 
ATOM     34  C   UNL     1       1.611  -1.384  -3.765  0.00  0.00    +0.117 A 
ATOM     35  C   UNL     1       2.265  -0.588  -2.837  0.00  0.00    +0.045 A 
ATOM     36  C   UNL     1       2.348  -0.992  -1.519  0.00  0.00    +0.007 A 
BRANCH  34  37
ATOM     37  O   UNL     1       1.523  -0.986  -5.062  0.00  0.00    -0.507 OA
ATOM     38  H   UNL     1       0.738  -0.457  -5.258  0.00  0.00    +0.292 HD
ENDBRANCH  34  37
ENDBRANCH  30  31
ENDBRANCH   1  30
TORSDOF 7
