REMARK  Name = ZINC35777099
REMARK  16 active torsions:
REMARK  status: ('A' for Active; 'I' for Inactive)
REMARK    1  A    between atoms: C_1  and  C_2
REMARK    2  A    between atoms: C_3  and  C_21
REMARK    3  A    between atoms: C_4  and  O_14
REMARK    4  A    between atoms: N_5  and  C_7
REMARK    5  A    between atoms: O_14  and  C_15
REMARK    6  A    between atoms: C_21  and  N_22
REMARK    7  A    between atoms: N_22  and  C_23
REMARK    8  A    between atoms: N_22  and  C_31
REMARK    9  A    between atoms: C_23  and  C_24
REMARK   10  A    between atoms: C_24  and  C_26
REMARK   11  A    between atoms: C_24  and  O_30
REMARK   12  A    between atoms: C_26  and  C_27
REMARK   13  A    between atoms: C_27  and  C_28
REMARK   14  A    between atoms: C_31  and  C_32
REMARK   15  A    between atoms: C_32  and  C_33
REMARK   16  A    between atoms: C_32  and  C_34
REMARK                            x       y       z     vdW  Elec       q    Type
REMARK                         _______ _______ _______ _____ _____    ______ ____
ROOT
ATOM      1  C   UNL     1       1.212   0.210   0.996  0.00  0.00    +0.068 C 
ATOM      2  C   UNL     1       0.808  -1.152   0.493  0.00  0.00    +0.065 A 
ATOM      3  C   UNL     1       0.345  -1.444  -0.794  0.00  0.00    +0.021 A 
ATOM      4  C   UNL     1       0.087  -2.778  -0.852  0.00  0.00    +0.225 A 
ATOM      5  N   UNL     1       0.382  -3.305   0.367  0.00  0.00    -0.200 N 
ATOM      6  N   UNL     1       0.836  -2.262   1.185  0.00  0.00    -0.168 NA
ENDROOT
BRANCH   5   7
ATOM      7  C   UNL     1       0.258  -4.651   0.737  0.00  0.00    +0.070 A 
ATOM      8  C   UNL     1      -0.856  -5.381   0.344  0.00  0.00    +0.028 A 
ATOM      9  C   UNL     1      -0.976  -6.707   0.709  0.00  0.00    +0.003 A 
ATOM     10  C   UNL     1       0.012  -7.309   1.467  0.00  0.00    +0.020 A 
ATOM     11  C   UNL     1       1.124  -6.585   1.860  0.00  0.00    +0.043 A 
ATOM     12  C   UNL     1       1.251  -5.259   1.492  0.00  0.00    +0.048 A 
ATOM     13 CL   UNL     1       2.362  -7.345   2.811  0.00  0.00    -0.083 Cl
ENDBRANCH   5   7
BRANCH   4  14
ATOM     14  O   UNL     1      -0.379  -3.459  -1.929  0.00  0.00    -0.438 OA
BRANCH  14  15
ATOM     15  C   UNL     1      -1.723  -3.507  -2.122  0.00  0.00    +0.130 A 
ATOM     16  C   UNL     1      -2.569  -2.777  -1.299  0.00  0.00    +0.046 A 
ATOM     17  C   UNL     1      -3.935  -2.827  -1.497  0.00  0.00    +0.004 A 
ATOM     18  C   UNL     1      -4.460  -3.603  -2.514  0.00  0.00    +0.000 A 
ATOM     19  C   UNL     1      -3.619  -4.332  -3.335  0.00  0.00    +0.004 A 
ATOM     20  C   UNL     1      -2.251  -4.281  -3.145  0.00  0.00    +0.046 A 
ENDBRANCH  14  15
ENDBRANCH   4  14
BRANCH   3  21
ATOM     21  C   UNL     1       0.163  -0.456  -1.917  0.00  0.00    -0.036 C 
BRANCH  21  22
ATOM     22  N   UNL     1       1.431  -0.300  -2.642  0.00  0.00    +0.384 N 
ATOM     23  H   UNL     1       2.153  -0.013  -1.999  0.00  0.00    -0.081 HD
BRANCH  22  24
ATOM     24  C   UNL     1       1.804  -1.581  -3.257  0.00  0.00    -0.047 C 
BRANCH  24  25
ATOM     25  C   UNL     1       3.208  -1.470  -3.854  0.00  0.00    +0.098 C 
BRANCH  25  26
ATOM     26  O   UNL     1       3.177  -0.601  -4.987  0.00  0.00    -0.394 OA
ATOM     27  H   UNL     1       2.589  -0.898  -5.695  0.00  0.00    +0.210 HD
ENDBRANCH  25  26
BRANCH  25  28
ATOM     28  C   UNL     1       3.688  -2.857  -4.288  0.00  0.00    +0.033 C 
BRANCH  28  29
ATOM     29  C   UNL     1       5.138  -2.767  -4.769  0.00  0.00    +0.029 C 
BRANCH  29  30
ATOM     30  C   UNL     1       5.611  -4.133  -5.196  0.00  0.00    -0.034 C 
ATOM     31  C   UNL     1       6.101  -4.309  -6.398  0.00  0.00    +0.004 C 
ENDBRANCH  29  30
ENDBRANCH  28  29
ENDBRANCH  25  28
ENDBRANCH  24  25
ENDBRANCH  22  24
BRANCH  22  32
ATOM     32  C   UNL     1       1.274   0.719  -3.688  0.00  0.00    -0.075 C 
BRANCH  32  33
ATOM     33  C   UNL     1       0.915   2.060  -3.045  0.00  0.00    -0.034 C 
ATOM     34  C   UNL     1       2.058   2.510  -2.132  0.00  0.00    +0.005 C 
ATOM     35  C   UNL     1       0.693   3.107  -4.138  0.00  0.00    +0.005 C 
ENDBRANCH  32  33
ENDBRANCH  22  32
ENDBRANCH  21  22
ENDBRANCH   3  21
TORSDOF 13
