REMARK  Name = ZINC09113503
REMARK  9 active torsions:
REMARK  status: ('A' for Active; 'I' for Inactive)
REMARK    1  A    between atoms: C_1  and  C_2
REMARK    2  A    between atoms: C_5  and  C_7
REMARK    3  A    between atoms: C_12  and  C_17
REMARK    4  A    between atoms: C_21  and  O_23
REMARK    5  A    between atoms: O_23  and  C_24
REMARK    6  A    between atoms: C_26  and  C_36
REMARK    7  A    between atoms: C_27  and  C_28
REMARK    8  A    between atoms: C_28  and  O_30
REMARK    9  A    between atoms: O_30  and  C_31
REMARK                            x       y       z     vdW  Elec       q    Type
REMARK                         _______ _______ _______ _____ _____    ______ ____
ROOT
ATOM      1  C   UNL     1      -0.696   2.210   3.644  0.00  0.00    +0.128 C 
ATOM      2  C   UNL     1      -2.197   2.099   3.545  0.00  0.00    +0.027 C 
ATOM      3  C   UNL     1      -2.798   1.933   2.347  0.00  0.00    +0.016 C 
ATOM      4  C   UNL     1      -4.298   1.819   2.240  0.00  0.00    +0.059 C 
ATOM      5  C   UNL     1      -4.957   2.627   3.360  0.00  0.00    +0.032 C 
ATOM      6  C   UNL     1      -4.451   2.095   4.705  0.00  0.00    +0.088 C 
ATOM      7  C   UNL     1      -2.949   2.176   4.730  0.00  0.00    +0.162 C 
ATOM      8  O   UNL     1      -2.376   2.310   5.793  0.00  0.00    -0.292 OA
ATOM      9  N   UNL     1      -2.052   1.867   1.199  0.00  0.00    -0.321 N 
ATOM     10  C   UNL     1      -0.722   1.556   1.252  0.00  0.00    +0.016 C 
ATOM     11  C   UNL     1      -0.034   1.702   2.398  0.00  0.00    +0.068 C 
ATOM     12  C   UNL     1      -0.021   1.052   0.017  0.00  0.00    +0.061 C 
ATOM     13  H   UNL     1      -2.523   2.064   0.225  0.00  0.00    +0.152 HD
ENDROOT
BRANCH   1  18
ATOM     14  C   UNL     1      -0.178   7.165   2.854  0.00  0.00    +0.086 C 
ATOM     15  C   UNL     1      -0.094   5.809   3.507  0.00  0.00    +0.102 A 
ATOM     16  C   UNL     1       0.471   5.543   4.698  0.00  0.00    +0.044 A 
ATOM     17  C   UNL     1       0.321   4.156   4.922  0.00  0.00    +0.046 A 
ATOM     18  C   UNL     1      -0.319   3.655   3.850  0.00  0.00    +0.117 A 
ATOM     19  O   UNL     1      -0.571   4.661   2.998  0.00  0.00    -0.464 OA
ENDBRANCH   1  18
BRANCH   5  20
ATOM     20  C   UNL     1      -6.454   2.471   3.284  0.00  0.00    -0.040 A 
ATOM     21  C   UNL     1      -7.025   1.217   3.400  0.00  0.00    +0.004 A 
ATOM     22  C   UNL     1      -8.398   1.071   3.330  0.00  0.00    +0.004 A 
ATOM     23  C   UNL     1      -9.203   2.178   3.146  0.00  0.00    +0.045 A 
ATOM     24  C   UNL     1      -8.633   3.438   3.030  0.00  0.00    +0.120 A 
ATOM     25  C   UNL     1      -7.255   3.582   3.104  0.00  0.00    +0.049 A 
BRANCH  24  26
ATOM     26  O   UNL     1      -9.423   4.528   2.849  0.00  0.00    -0.495 OA
ATOM     27  C   UNL     1     -10.833   4.305   2.788  0.00  0.00    +0.277 C 
ENDBRANCH  24  26
ENDBRANCH   5  20
BRANCH  11  28
ATOM     28  C   UNL     1       1.341   1.370   2.428  0.00  0.00    +0.338 C 
ATOM     29  O   UNL     1       1.914   1.058   1.401  0.00  0.00    -0.245 OA
BRANCH  28  30
ATOM     30  O   UNL     1       2.016   1.398   3.596  0.00  0.00    -0.458 OA
BRANCH  30  31
ATOM     31  C   UNL     1       3.401   1.051   3.553  0.00  0.00    +0.177 C 
ATOM     32  C   UNL     1       3.577  -0.458   3.820  0.00  0.00    +0.044 C 
ATOM     33  C   UNL     1       4.876  -0.546   4.661  0.00  0.00    +0.004 C 
ATOM     34  C   UNL     1       4.776   0.700   5.576  0.00  0.00    +0.004 C 
ATOM     35  C   UNL     1       4.164   1.788   4.669  0.00  0.00    +0.044 C 
ENDBRANCH  30  31
ENDBRANCH  28  30
ENDBRANCH  11  28
TORSDOF 6
