REMARK  Name = ZINC36309893
REMARK  14 active torsions:
REMARK  status: ('A' for Active; 'I' for Inactive)
REMARK    1  A    between atoms: C_1  and  C_2
REMARK    2  A    between atoms: C_7  and  O_8
REMARK    3  A    between atoms: O_8  and  C_9
REMARK    4  A    between atoms: C_9  and  C_10
REMARK    5  A    between atoms: C_10  and  C_12
REMARK    6  A    between atoms: C_10  and  O_39
REMARK    7  A    between atoms: C_12  and  N_13
REMARK    8  A    between atoms: N_13  and  C_14
REMARK    9  A    between atoms: N_13  and  C_17
REMARK   10  A    between atoms: C_14  and  C_15
REMARK   11  A    between atoms: C_17  and  C_18
REMARK   12  A    between atoms: C_28  and  C_30
REMARK   13  A    between atoms: C_30  and  O_31
REMARK   14  A    between atoms: O_31  and  C_32
REMARK                            x       y       z     vdW  Elec       q    Type
REMARK                         _______ _______ _______ _____ _____    ______ ____
ROOT
ATOM      1  C   UNL     1       0.636   0.523   9.600  0.00  0.00    +0.200 C 
ATOM      2  O   UNL     1       0.521   1.717   9.421  0.00  0.00    -0.278 OA
ATOM      3  N   UNL     1       0.895   0.048  10.834  0.00  0.00    -0.292 N 
ATOM      4  C   UNL     1       1.043  -1.397  11.062  0.00  0.00    +0.113 C 
ATOM      5  C   UNL     1       2.488  -1.671  11.505  0.00  0.00    +0.061 C 
ATOM      6  C   UNL     1       2.890  -0.629  12.498  0.00  0.00    -0.004 A 
ATOM      7  C   UNL     1       2.288   0.565  12.747  0.00  0.00    -0.014 A 
ATOM      8  C   UNL     1       2.870   1.367  13.727  0.00  0.00    +0.013 A 
ATOM      9  C   UNL     1       3.975   0.942  14.381  0.00  0.00    +0.046 A 
ATOM     10  S   UNL     1       4.258  -0.653  13.626  0.00  0.00    -0.101 S 
ATOM     11  C   UNL     1       1.040   0.968  11.971  0.00  0.00    +0.144 C 
ENDROOT
BRANCH   1  12
ATOM     12  C   UNL     1       0.489  -0.430   8.442  0.00  0.00    +0.019 C 
BRANCH  12  13
ATOM     13  N   UNL     1       0.211   0.330   7.215  0.00  0.00    +0.389 N 
ATOM     14  H   UNL     1      -0.592   0.923   7.362  0.00  0.00    -0.081 HD
BRANCH  13  15
ATOM     15  C   UNL     1      -0.063  -0.603   6.114  0.00  0.00    -0.043 C 
BRANCH  15  16
ATOM     16  C   UNL     1      -1.386  -1.326   6.375  0.00  0.00    +0.135 C 
BRANCH  16  17
ATOM     17  O   UNL     1      -1.236  -2.206   7.490  0.00  0.00    -0.390 OA
ATOM     18  H   UNL     1      -0.559  -2.886   7.367  0.00  0.00    +0.210 HD
ENDBRANCH  16  17
BRANCH  16  19
ATOM     19  C   UNL     1      -1.779  -2.134   5.137  0.00  0.00    +0.258 C 
BRANCH  19  20
ATOM     20  O   UNL     1      -3.069  -2.715   5.337  0.00  0.00    -0.489 OA
BRANCH  20  27
ATOM     21  C   UNL     1      -5.618  -3.873   5.712  0.00  0.00    +0.047 C 
ATOM     22  C   UNL     1      -4.816  -4.064   4.450  0.00  0.00    -0.009 A 
ATOM     23  C   UNL     1      -5.325  -4.826   3.416  0.00  0.00    +0.007 A 
ATOM     24  C   UNL     1      -4.590  -5.002   2.259  0.00  0.00    +0.000 A 
ATOM     25  C   UNL     1      -3.344  -4.416   2.132  0.00  0.00    +0.004 A 
ATOM     26  C   UNL     1      -2.831  -3.653   3.163  0.00  0.00    +0.046 A 
ATOM     27  C   UNL     1      -3.569  -3.470   4.324  0.00  0.00    +0.124 A 
ENDBRANCH  20  27
ENDBRANCH  19  20
ENDBRANCH  16  19
ENDBRANCH  15  16
ENDBRANCH  13  15
BRANCH  13  28
ATOM     28  C   UNL     1       1.377   1.157   6.877  0.00  0.00    -0.051 C 
BRANCH  28  29
ATOM     29  C   UNL     1       1.043   2.039   5.702  0.00  0.00    -0.053 C 
ATOM     30  C   UNL     1       1.206   3.336   5.788  0.00  0.00    +0.002 C 
ENDBRANCH  28  29
ENDBRANCH  13  28
ENDBRANCH  12  13
ENDBRANCH   1  12
BRANCH  11  31
ATOM     31  C   UNL     1      -0.186   0.866  12.880  0.00  0.00    +0.256 C 
BRANCH  31  32
ATOM     32  O   UNL     1      -0.241  -0.440  13.460  0.00  0.00    -0.490 OA
BRANCH  32  33
ATOM     33  C   UNL     1      -1.278  -0.698  14.300  0.00  0.00    +0.121 A 
ATOM     34  C   UNL     1      -2.225   0.283  14.556  0.00  0.00    +0.048 A 
ATOM     35  C   UNL     1      -3.278   0.019  15.411  0.00  0.00    +0.042 A 
ATOM     36  C   UNL     1      -3.389  -1.224  16.011  0.00  0.00    +0.124 A 
ATOM     37  C   UNL     1      -2.444  -2.204  15.756  0.00  0.00    +0.042 A 
ATOM     38  C   UNL     1      -1.394  -1.945  14.897  0.00  0.00    +0.048 A 
ATOM     39  F   UNL     1      -4.419  -1.481  16.846  0.00  0.00    -0.205 F 
ENDBRANCH  32  33
ENDBRANCH  31  32
ENDBRANCH  11  31
TORSDOF 13
