REMARK  Name = ZINC63216499
REMARK  4 active torsions:
REMARK  status: ('A' for Active; 'I' for Inactive)
REMARK    1  A    between atoms: C_4  and  N_10
REMARK    2  A    between atoms: CA_5  and  C_7
REMARK    3  A    between atoms: N_10  and  S_11
REMARK    4  A    between atoms: S_11  and  C_14
REMARK                            x       y       z     vdW  Elec       q    Type
REMARK                         _______ _______ _______ _____ _____    ______ ____
ROOT
ATOM      1  N   UNL     1       3.578  -0.591  -0.037  0.00  0.00    -0.080 NA
ENDROOT
BRANCH   1   5
ATOM      2  C   UNL     1      -0.016   1.312   0.009  0.00  0.00    +0.131 A 
ATOM      3  C   UNL     1       1.173   2.030   0.002  0.00  0.00    +0.132 A 
ATOM      4  N   UNL     1       2.333   1.400  -0.013  0.00  0.00    -0.234 NA
ATOM      5  C   UNL     1       2.367   0.072  -0.021  0.00  0.00    +0.195 A 
ATOM      6  CA  UNL     1       1.164  -0.654  -0.013  0.00  0.00    +0.195 A 
ATOM      7  N   UNL     1       0.002  -0.004   0.002  0.00  0.00    -0.244 NA
BRANCH   6   8
ATOM      8  C   UNL     1       1.188  -2.128  -0.021  0.00  0.00    +0.408 C 
ATOM      9  O   UNL     1       2.257  -2.722  -0.035  0.00  0.00    -0.239 OA
ATOM     10  OXT UNL     1       0.139  -2.757  -0.014  0.00  0.00    -0.239 OA
ENDBRANCH   6   8
ENDBRANCH   1   5
BRANCH   1  11
ATOM     11  S   UNL     1       4.994   0.269  -0.047  0.00  0.00    +0.068 S 
ATOM     12  O   UNL     1       4.978   0.979  -1.277  0.00  0.00    -0.153 OA
ATOM     13  O   UNL     1       5.003   0.966   1.192  0.00  0.00    -0.153 OA
BRANCH  11  14
ATOM     14  C   UNL     1       6.302  -0.987  -0.067  0.00  0.00    +0.176 C 
ATOM     15  C   UNL     1       6.134  -1.932   1.135  0.00  0.00    +0.052 C 
ATOM     16  C   UNL     1       7.407  -2.795   1.310  0.00  0.00    +0.168 C 
ATOM     17  S   UNL     1       8.725  -1.717   0.613  0.00  0.00    -0.029 S 
ATOM     18  O   UNL     1       9.293  -2.356  -0.522  0.00  0.00    -0.174 OA
ATOM     19  O   UNL     1       9.572  -1.282   1.668  0.00  0.00    -0.174 OA
ATOM     20  C   UNL     1       7.692  -0.299   0.049  0.00  0.00    +0.194 C 
ENDBRANCH  11  14
ENDBRANCH   1  11
TORSDOF 4
