REMARK  Name = ZINC38784673
REMARK  12 active torsions:
REMARK  status: ('A' for Active; 'I' for Inactive)
REMARK    1  A    between atoms: C_1  and  C_2
REMARK    2  A    between atoms: C_2  and  O_3
REMARK    3  A    between atoms: O_3  and  C_4
REMARK    4  A    between atoms: C_4  and  C_6
REMARK    5  A    between atoms: C_11  and  N_12
REMARK    6  A    between atoms: C_13  and  C_15
REMARK    7  A    between atoms: C_15  and  S_16
REMARK    8  A    between atoms: S_16  and  C_17
REMARK    9  A    between atoms: C_25  and  C_33
REMARK   10  A    between atoms: C_33  and  C_34
REMARK   11  A    between atoms: C_33  and  C_35
REMARK   12  A    between atoms: C_33  and  C_36
REMARK                            x       y       z     vdW  Elec       q    Type
REMARK                         _______ _______ _______ _____ _____    ______ ____
ROOT
ATOM      1  C   UNL     1      -0.225  -9.691   0.549  0.00  0.00    +0.182 C 
ATOM      2  N   UNL     1      -0.640  -9.116  -0.567  0.00  0.00    -0.151 NA
ATOM      3  C   UNL     1      -1.166  -9.804  -1.579  0.00  0.00    +0.272 C 
ATOM      4  O   UNL     1      -1.539  -9.241  -2.595  0.00  0.00    -0.268 OA
ATOM      5  C   UNL     1      -1.286 -11.292  -1.433  0.00  0.00    +0.071 C 
ATOM      6  C   UNL     1      -1.763 -12.169  -2.331  0.00  0.00    -0.042 C 
ATOM      7  C   UNL     1      -2.227 -11.780  -3.732  0.00  0.00    +0.033 C 
ATOM      8  C   UNL     1      -2.007 -13.013  -4.618  0.00  0.00    +0.008 C 
ATOM      9  C   UNL     1      -0.744 -13.745  -4.183  0.00  0.00    -0.004 C 
ATOM     10  C   UNL     1      -0.907 -14.436  -2.837  0.00  0.00    +0.023 C 
ATOM     11  C   UNL     1      -1.809 -13.631  -1.906  0.00  0.00    +0.080 C 
ATOM     12  S   UNL     1      -1.055 -13.567  -0.234  0.00  0.00    -0.097 S 
ATOM     13  C   UNL     1      -0.792 -11.814  -0.141  0.00  0.00    +0.112 C 
ATOM     14  N   UNL     1      -0.293 -11.007   0.759  0.00  0.00    -0.217 NA
ENDROOT
BRANCH   9  15
ATOM     15  C   UNL     1      -0.394 -14.796  -5.238  0.00  0.00    -0.035 C 
ATOM     16  C   UNL     1      -0.156 -14.108  -6.584  0.00  0.00    +0.011 C 
ATOM     17  C   UNL     1       0.875 -15.540  -4.815  0.00  0.00    +0.011 C 
ATOM     18  C   UNL     1      -1.548 -15.791  -5.371  0.00  0.00    +0.011 C 
ENDBRANCH   9  15
BRANCH   1  19
ATOM     19  S   UNL     1       0.455  -8.673   1.815  0.00  0.00    -0.079 S 
BRANCH  19  20
ATOM     20  C   UNL     1       0.357  -6.996   1.129  0.00  0.00    +0.173 C 
BRANCH  20  22
ATOM     21  N   UNL     1       0.945  -4.698   1.831  0.00  0.00    -0.284 N 
ATOM     22  C   UNL     1       0.915  -6.013   2.126  0.00  0.00    +0.227 C 
ATOM     23  O   UNL     1       1.336  -6.404   3.194  0.00  0.00    -0.275 OA
ATOM     24  H   UNL     1       0.539  -4.376   1.011  0.00  0.00    +0.155 HD
BRANCH  21  30
ATOM     25  C   UNL     1       1.042  -2.508   2.863  0.00  0.00    +0.080 A 
ATOM     26  C   UNL     1       1.664  -1.621   3.745  0.00  0.00    +0.017 A 
ATOM     27  C   UNL     1       2.781  -2.019   4.447  0.00  0.00    +0.001 A 
ATOM     28  C   UNL     1       3.291  -3.297   4.283  0.00  0.00    +0.002 A 
ATOM     29  C   UNL     1       2.688  -4.184   3.415  0.00  0.00    +0.024 A 
ATOM     30  C   UNL     1       1.559  -3.803   2.703  0.00  0.00    +0.047 A 
BRANCH  25  31
ATOM     31  C   UNL     1      -0.153  -2.088   2.109  0.00  0.00    +0.341 C 
ATOM     32  O   UNL     1      -0.641  -2.831   1.281  0.00  0.00    -0.245 OA
BRANCH  31  33
ATOM     33  O   UNL     1      -0.705  -0.880   2.339  0.00  0.00    -0.461 OA
BRANCH  33  35
ATOM     34  C   UNL     1      -2.342   0.859   1.970  0.00  0.00    +0.048 C 
ATOM     35  C   UNL     1      -1.861  -0.538   1.573  0.00  0.00    +0.229 C 
ENDBRANCH  33  35
ENDBRANCH  31  33
ENDBRANCH  25  31
ENDBRANCH  21  30
ENDBRANCH  20  22
ENDBRANCH  19  20
ENDBRANCH   1  19
TORSDOF 8
