REMARK  Name = ZINC18195890
REMARK  9 active torsions:
REMARK  status: ('A' for Active; 'I' for Inactive)
REMARK    1  A    between atoms: C_1  and  C_2
REMARK    2  A    between atoms: C_2  and  C_30
REMARK    3  A    between atoms: C_6  and  C_16
REMARK    4  A    between atoms: C_13  and  O_14
REMARK    5  A    between atoms: C_18  and  O_25
REMARK    6  A    between atoms: C_19  and  O_24
REMARK    7  A    between atoms: C_20  and  O_22
REMARK    8  A    between atoms: O_22  and  C_23
REMARK    9  A    between atoms: O_25  and  C_26
REMARK                            x       y       z     vdW  Elec       q    Type
REMARK                         _______ _______ _______ _____ _____    ______ ____
ROOT
ATOM      1  C   UNL     1       1.994   0.297   2.150  0.00  0.00    +0.011 C 
ATOM      2  C   UNL     1       2.374   0.067   0.686  0.00  0.00    -0.023 C 
ATOM      3  C   UNL     1       2.472   1.411  -0.039  0.00  0.00    +0.058 C 
ATOM      4  C   UNL     1       1.133   2.111   0.003  0.00  0.00    +0.017 C 
ATOM      5  C   UNL     1      -0.017   1.402   0.010  0.00  0.00    +0.024 C 
ATOM      6  C   UNL     1      -1.378   2.064   0.020  0.00  0.00    +0.093 C 
ATOM      7  C   UNL     1      -1.230   3.515   0.383  0.00  0.00    +0.067 A 
ATOM      8  C   UNL     1      -0.018   4.153   0.376  0.00  0.00    +0.126 A 
ATOM      9  N   UNL     1      -0.226   5.434   0.737  0.00  0.00    -0.260 N 
ATOM     10  H   UNL     1       0.474   6.144   0.819  0.00  0.00    +0.190 HD
ATOM     11  N   UNL     1      -1.600   5.593   0.977  0.00  0.00    -0.134 NA
ATOM     12  C   UNL     1      -2.197   4.441   0.764  0.00  0.00    +0.237 A 
ATOM     13  N   UNL     1       1.151   3.482   0.037  0.00  0.00    -0.303 N 
ATOM     14  C   UNL     1       0.002  -0.004   0.002  0.00  0.00    +0.162 C 
ATOM     15  O   UNL     1      -1.050  -0.612  -0.001  0.00  0.00    -0.292 OA
ATOM     16  C   UNL     1       1.294  -0.773  -0.003  0.00  0.00    +0.086 C 
ATOM     17  C   UNL     1       3.719  -0.659   0.610  0.00  0.00    +0.011 C 
ATOM     18  H   UNL     1       1.962   3.973  -0.171  0.00  0.00    +0.153 HD
ENDROOT
BRANCH   6  19
ATOM     19  C   UNL     1      -2.003   1.948  -1.347  0.00  0.00    -0.028 A 
ATOM     20  C   UNL     1      -1.372   2.506  -2.443  0.00  0.00    +0.054 A 
ATOM     21  C   UNL     1      -1.941   2.396  -3.703  0.00  0.00    +0.165 A 
ATOM     22  C   UNL     1      -3.153   1.734  -3.861  0.00  0.00    +0.201 A 
ATOM     23  C   UNL     1      -3.787   1.179  -2.755  0.00  0.00    +0.165 A 
ATOM     24  C   UNL     1      -3.208   1.288  -1.500  0.00  0.00    +0.054 A 
BRANCH  23  25
ATOM     25  O   UNL     1      -4.972   0.530  -2.905  0.00  0.00    -0.491 OA
ATOM     26  C   UNL     1      -5.566  -0.015  -1.725  0.00  0.00    +0.277 C 
ENDBRANCH  23  25
BRANCH  22  27
ATOM     27  O   UNL     1      -3.717   1.629  -5.094  0.00  0.00    -0.501 OA
ATOM     28  H   UNL     1      -4.312   2.358  -5.318  0.00  0.00    +0.292 HD
ENDBRANCH  22  27
BRANCH  21  29
ATOM     29  O   UNL     1      -1.317   2.940  -4.781  0.00  0.00    -0.491 OA
ATOM     30  C   UNL     1      -0.074   3.605  -4.545  0.00  0.00    +0.277 C 
ENDBRANCH  21  29
ENDBRANCH   6  19
BRANCH  12  31
ATOM     31  O   UNL     1      -3.528   4.197   0.892  0.00  0.00    -0.491 OA
ATOM     32  H   UNL     1      -3.995   5.034   1.178  0.00  0.00    +0.294 HD
ENDBRANCH  12  31
TORSDOF 5
