REMARK  Name = ZINC17130885
REMARK  6 active torsions:
REMARK  status: ('A' for Active; 'I' for Inactive)
REMARK    1  A    between atoms: C_1  and  O_2
REMARK    2  A    between atoms: O_2  and  C_3
REMARK    3  A    between atoms: N_11  and  C_12
REMARK    4  A    between atoms: C_13  and  C_21
REMARK    5  A    between atoms: C_24  and  C_26
REMARK    6  A    between atoms: N_28  and  C_29
REMARK                            x       y       z     vdW  Elec       q    Type
REMARK                         _______ _______ _______ _____ _____    ______ ____
ROOT
ATOM      1  C   UNL     1       0.661  -0.780   1.250  0.00  0.00    +0.163 A 
ATOM      2  C   UNL     1       0.744  -0.169   2.489  0.00  0.00    +0.049 A 
ATOM      3  C   UNL     1       0.742  -0.926   3.651  0.00  0.00    +0.004 A 
ATOM      4  C   UNL     1       0.661  -2.299   3.590  0.00  0.00    +0.012 A 
ATOM      5  C   UNL     1       0.580  -2.934   2.344  0.00  0.00    +0.022 A 
ATOM      6  C   UNL     1       0.571  -2.166   1.165  0.00  0.00    +0.179 A 
ATOM      7  O   UNL     1       0.477  -2.780  -0.040  0.00  0.00    -0.435 OA
ATOM      8  C   UNL     1       0.952  -4.048  -0.124  0.00  0.00    +0.212 A 
ATOM      9  N   UNL     1       1.638  -4.449  -1.178  0.00  0.00    -0.319 N 
ATOM     10  C   UNL     1       0.679  -4.965   0.998  0.00  0.00    +0.098 A 
ATOM     11  C   UNL     1       0.500  -4.394   2.250  0.00  0.00    +0.030 A 
ATOM     12  H   UNL     1       2.070  -5.317  -1.174  0.00  0.00    +0.169 HD
ENDROOT
BRANCH   9  13
ATOM     13  C   UNL     1       1.738  -3.652  -2.260  0.00  0.00    +0.093 A 
ATOM     14  C   UNL     1       2.406  -3.889  -3.468  0.00  0.00    +0.071 A 
ATOM     15  C   UNL     1       2.353  -2.848  -4.480  0.00  0.00    -0.023 A 
ATOM     16  C   UNL     1       1.658  -1.734  -4.159  0.00  0.00    -0.004 A 
ATOM     17  S   UNL     1       1.047  -2.028  -2.522  0.00  0.00    -0.075 S 
ATOM     18  C   UNL     1       1.448  -0.519  -5.011  0.00  0.00    +0.043 C 
ATOM     19  C   UNL     1       2.452  -0.562  -6.172  0.00  0.00    +0.005 C 
ATOM     20  C   UNL     1       2.418  -1.959  -6.800  0.00  0.00    +0.005 C 
ATOM     21  C   UNL     1       3.035  -2.975  -5.839  0.00  0.00    +0.037 C 
BRANCH  14  22
ATOM     22  C   UNL     1       3.130  -5.138  -3.702  0.00  0.00    +0.244 C 
ATOM     23  O   UNL     1       2.556  -6.090  -4.199  0.00  0.00    -0.270 OA
ATOM     24  N   UNL     1       4.432  -5.235  -3.368  0.00  0.00    -0.325 N 
ATOM     25  H   UNL     1       4.889  -4.477  -2.972  0.00  0.00    +0.145 HD
ATOM     26  H   UNL     1       4.912  -6.064  -3.523  0.00  0.00    +0.145 HD
ENDBRANCH  14  22
ENDBRANCH   9  13
BRANCH  10  27
ATOM     27  C   UNL     1       0.613  -6.423   0.801  0.00  0.00    +0.253 C 
ATOM     28  O   UNL     1       0.492  -7.162   1.759  0.00  0.00    -0.270 OA
ATOM     29  N   UNL     1       0.685  -6.939  -0.443  0.00  0.00    -0.279 N 
ATOM     30  H   UNL     1       0.829  -6.353  -1.202  0.00  0.00    +0.155 HD
BRANCH  29  31
ATOM     31  C   UNL     1       0.551  -8.318  -0.637  0.00  0.00    +0.069 A 
ATOM     32  C   UNL     1       0.777  -9.194   0.416  0.00  0.00    +0.026 A 
ATOM     33  C   UNL     1       0.645 -10.555   0.222  0.00  0.00    +0.002 A 
ATOM     34  C   UNL     1       0.288 -11.047  -1.021  0.00  0.00    +0.003 A 
ATOM     35  C   UNL     1       0.062 -10.179  -2.073  0.00  0.00    +0.040 A 
ATOM     36  C   UNL     1       0.187  -8.814  -1.884  0.00  0.00    +0.144 A 
ATOM     37  F   UNL     1      -0.040  -7.965  -2.910  0.00  0.00    -0.204 F 
ENDBRANCH  29  31
ENDBRANCH  10  27
BRANCH   1  39
ATOM     38  C   UNL     1       0.758   1.389   0.280  0.00  0.00    +0.277 C 
ATOM     39  O   UNL     1       0.662  -0.027   0.117  0.00  0.00    -0.491 OA
ENDBRANCH   1  39
TORSDOF 5
