REMARK  Name = ZINC10027535
REMARK  8 active torsions:
REMARK  status: ('A' for Active; 'I' for Inactive)
REMARK    1  A    between atoms: C_1  and  C_2
REMARK    2  A    between atoms: C_3  and  C_35
REMARK    3  A    between atoms: C_7  and  N_11
REMARK    4  A    between atoms: C_14  and  C_17
REMARK    5  A    between atoms: N_19  and  C_20
REMARK    6  A    between atoms: C_20  and  C_21
REMARK    7  A    between atoms: C_21  and  C_23
REMARK    8  A    between atoms: C_21  and  N_67
REMARK                            x       y       z     vdW  Elec       q    Type
REMARK                         _______ _______ _______ _____ _____    ______ ____
ROOT
ATOM      1  C   UNL     1       6.218  -0.092   0.575  0.00  0.00    +0.216 C 
ATOM      2  O   UNL     1       6.975   0.372   1.400  0.00  0.00    -0.276 OA
ATOM      3  N   UNL     1       4.916  -0.267   0.879  0.00  0.00    -0.316 N 
ATOM      4  H   UNL     1       4.310  -0.639   0.219  0.00  0.00    +0.149 HD
ENDROOT
BRANCH   1   8
ATOM      5  N   UNL     1       8.516  -2.062  -2.412  0.00  0.00    -0.315 N 
ATOM      6  C   UNL     1       8.758  -0.624  -2.239  0.00  0.00    +0.107 C 
ATOM      7  C   UNL     1       8.231  -0.177  -0.873  0.00  0.00    +0.031 C 
ATOM      8  C   UNL     1       6.731  -0.475  -0.789  0.00  0.00    +0.078 C 
ATOM      9  C   UNL     1       6.502  -1.971  -1.021  0.00  0.00    +0.031 C 
ATOM     10  C   UNL     1       7.080  -2.365  -2.382  0.00  0.00    +0.107 C 
BRANCH   5  17
ATOM     11  C   UNL     1      10.062  -4.037  -1.013  0.00  0.00    +0.045 C 
ATOM     12  C   UNL     1      10.539  -4.347  -2.408  0.00  0.00    -0.028 A 
ATOM     13  C   UNL     1      11.434  -5.324  -2.617  0.00  0.00    -0.008 A 
ATOM     14  S   UNL     1      11.670  -5.301  -4.384  0.00  0.00    -0.074 S 
ATOM     15  C   UNL     1      10.561  -3.979  -4.794  0.00  0.00    +0.114 A 
ATOM     16  C   UNL     1      10.040  -3.588  -3.541  0.00  0.00    +0.051 A 
ATOM     17  C   UNL     1       9.097  -2.525  -3.579  0.00  0.00    +0.133 A 
ATOM     18  N   UNL     1       8.785  -1.980  -4.744  0.00  0.00    -0.220 NA
ATOM     19  C   UNL     1       9.318  -2.395  -5.880  0.00  0.00    +0.224 A 
ATOM     20  N   UNL     1      10.194  -3.380  -5.909  0.00  0.00    -0.228 NA
ATOM     21  C   UNL     1      12.084  -6.227  -1.601  0.00  0.00    +0.052 C 
ENDBRANCH   5  17
ENDBRANCH   1   8
BRANCH   3  22
ATOM     22  C   UNL     1       4.417   0.104   2.205  0.00  0.00    +0.093 C 
BRANCH  22  23
ATOM     23  C   UNL     1       2.893  -0.026   2.232  0.00  0.00    -0.020 C 
BRANCH  23  24
ATOM     24  C   UNL     1       2.388   0.258   3.623  0.00  0.00    -0.059 A 
ATOM     25  C   UNL     1       2.001   1.539   3.969  0.00  0.00    +0.005 A 
ATOM     26  C   UNL     1       1.532   1.799   5.243  0.00  0.00    +0.038 A 
ATOM     27  C   UNL     1       1.463   0.779   6.176  0.00  0.00    +0.123 A 
ATOM     28  C   UNL     1       1.856  -0.503   5.830  0.00  0.00    +0.038 A 
ATOM     29  C   UNL     1       2.318  -0.762   4.554  0.00  0.00    +0.005 A 
ATOM     30  F   UNL     1       1.011   1.034   7.424  0.00  0.00    -0.205 F 
ENDBRANCH  23  24
BRANCH  23  36
ATOM     31  C   UNL     1       3.142   2.135   1.167  0.00  0.00    -0.049 C 
ATOM     32  C   UNL     1       2.462   3.133   0.227  0.00  0.00    +0.141 C 
ATOM     33  O   UNL     1       2.227   2.505  -1.037  0.00  0.00    -0.383 OA
ATOM     34  C   UNL     1       1.411   1.333  -0.954  0.00  0.00    +0.141 C 
ATOM     35  C   UNL     1       2.081   0.317  -0.025  0.00  0.00    -0.049 C 
ATOM     36  N   UNL     1       2.278   0.944   1.300  0.00  0.00    +0.388 N 
ATOM     37  H   UNL     1       1.366   1.232   1.672  0.00  0.00    -0.081 HD
ENDBRANCH  23  36
ENDBRANCH  22  23
ENDBRANCH   3  22
TORSDOF 6
