REMARK  Name = ZINC20510068
REMARK  11 active torsions:
REMARK  status: ('A' for Active; 'I' for Inactive)
REMARK    1  A    between atoms: C_1  and  C_2
REMARK    2  A    between atoms: C_2  and  C_3
REMARK    3  A    between atoms: C_3  and  C_5
REMARK    4  A    between atoms: C_3  and  N_6
REMARK    5  A    between atoms: N_6  and  C_7
REMARK    6  A    between atoms: N_6  and  C_26
REMARK    7  A    between atoms: C_7  and  C_8
REMARK    8  A    between atoms: C_8  and  N_9
REMARK    9  A    between atoms: C_10  and  C_12
REMARK   10  A    between atoms: C_19  and  C_25
REMARK   11  A    between atoms: C_26  and  C_27
REMARK                            x       y       z     vdW  Elec       q    Type
REMARK                         _______ _______ _______ _____ _____    ______ ____
ROOT
ATOM      1  N   UNL     1       0.280  -3.954   2.354  0.00  0.00    -0.312 N 
ATOM      2  C   UNL     1      -0.034  -4.776   3.375  0.00  0.00    +0.266 C 
ATOM      3  O   UNL     1      -0.489  -4.319   4.405  0.00  0.00    -0.268 OA
ATOM      4  H   UNL     1       0.692  -4.368   1.422  0.00  0.00    +0.149 HD
ENDROOT
BRANCH   2   5
ATOM      5  C   UNL     1       0.175  -6.238   3.242  0.00  0.00    +0.175 A 
ATOM      6  C   UNL     1      -0.097  -7.218   4.200  0.00  0.00    +0.069 A 
ATOM      7  C   UNL     1       0.268  -8.401   3.588  0.00  0.00    +0.178 A 
ATOM      8  O   UNL     1       0.711  -8.081   2.383  0.00  0.00    -0.353 OA
ATOM      9  N   UNL     1       0.652  -6.880   2.192  0.00  0.00    -0.073 NA
ATOM     10  C   UNL     1       0.103  -9.663   4.328  0.00  0.00    +0.062 A 
ATOM     11  C   UNL     1       0.665 -10.860   3.913  0.00  0.00    +0.018 A 
ATOM     12  C   UNL     1       0.479 -12.000   4.671  0.00  0.00    -0.050 A 
ATOM     13  C   UNL     1      -0.264 -11.943   5.838  0.00  0.00    +0.007 A 
ATOM     14  C   UNL     1      -0.833 -10.755   6.256  0.00  0.00    +0.046 A 
ATOM     15  C   UNL     1      -0.667  -9.601   5.507  0.00  0.00    +0.132 A 
ATOM     16  O   UNL     1      -1.258  -8.443   5.887  0.00  0.00    -0.486 OA
ATOM     17  C   UNL     1      -0.643  -7.184   5.594  0.00  0.00    +0.270 C 
ATOM     18  C   UNL     1       1.085 -13.307   4.227  0.00  0.00    +0.044 C 
ENDBRANCH   2   5
BRANCH   1  19
ATOM     19  C   UNL     1       0.072  -2.510   2.486  0.00  0.00    +0.086 C 
BRANCH  19  20
ATOM     20  C   UNL     1       0.506  -1.813   1.195  0.00  0.00    -0.059 C 
BRANCH  20  21
ATOM     21  N   UNL     1       0.178  -0.383   1.276  0.00  0.00    +0.387 N 
ATOM     22  H   UNL     1      -0.860  -0.294   1.629  0.00  0.00    -0.081 HD
BRANCH  21  23
ATOM     23  C   UNL     1       1.044   0.302   2.244  0.00  0.00    -0.071 C 
ATOM     24  C   UNL     1       2.402  -0.401   2.300  0.00  0.00    -0.013 C 
BRANCH  23  26
ATOM     25  C   UNL     1      -0.898   1.084   3.607  0.00  0.00    +0.002 C 
ATOM     26  C   UNL     1       0.393   0.263   3.628  0.00  0.00    -0.019 C 
ENDBRANCH  23  26
ENDBRANCH  21  23
BRANCH  21  27
ATOM     27  C   UNL     1       0.261   0.252  -0.046  0.00  0.00    -0.003 C 
BRANCH  27  28
ATOM     28  C   UNL     1      -0.456   1.577  -0.012  0.00  0.00    +0.089 A 
ATOM     29  C   UNL     1       0.107   2.770   0.253  0.00  0.00    +0.042 A 
ATOM     30  C   UNL     1      -0.923   3.735   0.179  0.00  0.00    +0.041 A 
ATOM     31  C   UNL     1      -2.054   3.075  -0.128  0.00  0.00    +0.195 A 
ATOM     32  O   UNL     1      -1.764   1.769  -0.248  0.00  0.00    -0.470 OA
ENDBRANCH  27  28
ENDBRANCH  21  27
ENDBRANCH  20  21
ENDBRANCH  19  20
ENDBRANCH   1  19
TORSDOF 8
