REMARK  Name = ZINC36500536
REMARK  18 active torsions:
REMARK  status: ('A' for Active; 'I' for Inactive)
REMARK    1  A    between atoms: C_1  and  C_2
REMARK    2  A    between atoms: C_2  and  C_4
REMARK    3  A    between atoms: C_2  and  C_10
REMARK    4  A    between atoms: C_10  and  C_12
REMARK    5  A    between atoms: C_10  and  N_23
REMARK    6  A    between atoms: N_14  and  C_15
REMARK    7  A    between atoms: C_15  and  C_16
REMARK    8  A    between atoms: C_15  and  C_17
REMARK    9  A    between atoms: C_15  and  C_18
REMARK   10  A    between atoms: C_18  and  C_19
REMARK   11  A    between atoms: C_19  and  C_20
REMARK   12  A    between atoms: C_19  and  C_21
REMARK   13  A    between atoms: C_19  and  C_22
REMARK   14  A    between atoms: N_23  and  C_24
REMARK   15  A    between atoms: C_24  and  C_25
REMARK   16  A    between atoms: C_30  and  C_32
REMARK   17  A    between atoms: C_33  and  O_39
REMARK   18  A    between atoms: C_37  and  O_38
REMARK                            x       y       z     vdW  Elec       q    Type
REMARK                         _______ _______ _______ _____ _____    ______ ____
ROOT
ATOM      1  C   UNL     1      -0.779  -4.247   0.327  0.00  0.00    +0.170 C 
ENDROOT
BRANCH   1   2
ATOM      2  C   UNL     1      -2.223  -4.570   0.611  0.00  0.00    +0.235 C 
ATOM      3  O   UNL     1      -2.585  -5.726   0.677  0.00  0.00    -0.274 OA
ATOM      4  N   UNL     1      -3.113  -3.574   0.793  0.00  0.00    -0.309 N 
ATOM      5  H   UNL     1      -2.838  -2.651   0.679  0.00  0.00    +0.149 HD
BRANCH   4   6
ATOM      6  C   UNL     1      -4.496  -3.886   1.162  0.00  0.00    +0.030 C 
ATOM      7  C   UNL     1      -5.229  -4.467  -0.049  0.00  0.00    +0.031 C 
ATOM      8  C   UNL     1      -4.502  -4.908   2.300  0.00  0.00    +0.031 C 
BRANCH   6   9
ATOM      9  C   UNL     1      -5.202  -2.608   1.620  0.00  0.00    +0.031 C 
BRANCH   9  10
ATOM     10  C   UNL     1      -4.176  -1.647   2.224  0.00  0.00    -0.036 C 
ATOM     11  C   UNL     1      -3.572  -0.783   1.115  0.00  0.00    +0.010 C 
ATOM     12  C   UNL     1      -4.864  -0.748   3.254  0.00  0.00    +0.010 C 
ATOM     13  C   UNL     1      -3.067  -2.449   2.908  0.00  0.00    +0.010 C 
ENDBRANCH   9  10
ENDBRANCH   6   9
ENDBRANCH   4   6
ENDBRANCH   1   2
BRANCH   1  14
ATOM     14  N   UNL     1       0.002  -5.487   0.297  0.00  0.00    -0.278 N 
ATOM     15  C   UNL     1       1.072  -5.628   1.103  0.00  0.00    +0.255 C 
ATOM     16  O   UNL     1       1.390  -4.727   1.856  0.00  0.00    -0.270 OA
BRANCH  15  17
ATOM     17  C   UNL     1       1.857  -6.874   1.073  0.00  0.00    +0.119 A 
ATOM     18  C   UNL     1       2.948  -7.000   0.201  0.00  0.00    +0.133 A 
ATOM     19  C   UNL     1       3.679  -8.177   0.181  0.00  0.00    +0.046 A 
ATOM     20  C   UNL     1       3.337  -9.224   1.017  0.00  0.00    +0.007 A 
ATOM     21  C   UNL     1       2.264  -9.110   1.880  0.00  0.00    +0.046 A 
ATOM     22  C   UNL     1       1.522  -7.940   1.921  0.00  0.00    +0.133 A 
BRANCH  22  23
ATOM     23  O   UNL     1       0.472  -7.829   2.773  0.00  0.00    -0.506 OA
ATOM     24  H   UNL     1      -0.370  -8.120   2.399  0.00  0.00    +0.292 HD
ENDBRANCH  22  23
BRANCH  18  25
ATOM     25  O   UNL     1       3.285  -5.975  -0.621  0.00  0.00    -0.506 OA
ATOM     26  H   UNL     1       3.919  -5.355  -0.235  0.00  0.00    +0.292 HD
ENDBRANCH  18  25
ENDBRANCH  15  17
BRANCH  14  27
ATOM     27  C   UNL     1      -0.382  -6.572  -0.609  0.00  0.00    +0.183 C 
BRANCH  27  28
ATOM     28  C   UNL     1       0.346  -6.412  -1.919  0.00  0.00    +0.122 A 
ATOM     29  C   UNL     1       1.553  -6.927  -2.217  0.00  0.00    +0.046 A 
ATOM     30  C   UNL     1       1.850  -6.534  -3.542  0.00  0.00    +0.041 A 
ATOM     31  C   UNL     1       0.807  -5.803  -3.975  0.00  0.00    +0.195 A 
ATOM     32  O   UNL     1      -0.103  -5.738  -2.990  0.00  0.00    -0.466 OA
ENDBRANCH  27  28
ENDBRANCH  14  27
ENDBRANCH   1  14
BRANCH   1  34
ATOM     33  C   UNL     1      -1.696  -2.410  -1.096  0.00  0.00    +0.015 C 
ATOM     34  C   UNL     1      -0.671  -3.543  -1.027  0.00  0.00    +0.045 C 
BRANCH  34  35
ATOM     35  C   UNL     1       0.716  -2.976  -1.189  0.00  0.00    -0.042 A 
ATOM     36  C   UNL     1       1.475  -2.677  -0.073  0.00  0.00    +0.004 A 
ATOM     37  C   UNL     1       2.747  -2.157  -0.221  0.00  0.00    +0.000 A 
ATOM     38  C   UNL     1       3.261  -1.937  -1.486  0.00  0.00    +0.000 A 
ATOM     39  C   UNL     1       2.502  -2.237  -2.602  0.00  0.00    +0.000 A 
ATOM     40  C   UNL     1       1.232  -2.761  -2.453  0.00  0.00    +0.004 A 
ENDBRANCH  34  35
ENDBRANCH   1  34
TORSDOF 12
