REMARK  Name = ZINC02724533
REMARK  4 active torsions:
REMARK  status: ('A' for Active; 'I' for Inactive)
REMARK    1  A    between atoms: C_6  and  C_7
REMARK    2  A    between atoms: C_20  and  C_22
REMARK    3  A    between atoms: C_22  and  O_23
REMARK    4  A    between atoms: O_23  and  C_24
REMARK                            x       y       z     vdW  Elec       q    Type
REMARK                         _______ _______ _______ _____ _____    ______ ____
ROOT
ATOM      1  C   UNL     1      -1.293  -0.775   0.010  0.00  0.00    +0.139 C 
ATOM      2  C   UNL     1      -1.682  -1.063  -1.406  0.00  0.00    -0.000 A 
ATOM      3  C   UNL     1      -2.534  -0.136  -2.004  0.00  0.00    +0.027 A 
ATOM      4  C   UNL     1      -2.960  -0.289  -3.305  0.00  0.00    +0.041 A 
ATOM      5  C   UNL     1      -2.534  -1.386  -4.035  0.00  0.00    +0.022 A 
ATOM      6  C   UNL     1      -1.695  -2.305  -3.453  0.00  0.00    +0.025 A 
ATOM      7  C   UNL     1      -1.254  -2.159  -2.126  0.00  0.00    +0.039 A 
ATOM      8  N   UNL     1      -0.422  -3.158  -1.677  0.00  0.00    -0.284 N 
ATOM      9  C   UNL     1       0.014  -3.582  -0.526  0.00  0.00    +0.235 C 
ATOM     10  O   UNL     1       0.450  -4.713  -0.491  0.00  0.00    -0.274 OA
ATOM     11  C   UNL     1       0.033  -2.816   0.757  0.00  0.00    +0.204 C 
ATOM     12  N   UNL     1      -1.122  -1.942   0.833  0.00  0.00    -0.279 N 
ATOM     13  C   UNL     1      -2.086  -2.241   1.726  0.00  0.00    +0.254 C 
ATOM     14  O   UNL     1      -3.066  -1.532   1.821  0.00  0.00    -0.272 OA
ATOM     15 CL   UNL     1      -4.022   0.881  -4.023  0.00  0.00    -0.084 Cl
ATOM     16  H   UNL     1      -0.068  -3.685  -2.409  0.00  0.00    +0.155 HD
ENDROOT
BRANCH   1  22
ATOM     17  C   UNL     1       1.132  -0.559  -0.569  0.00  0.00    +0.008 A 
ATOM     18  C   UNL     1       2.321   0.147  -0.577  0.00  0.00    +0.038 A 
ATOM     19  C   UNL     1       2.379   1.410  -0.013  0.00  0.00    +0.123 A 
ATOM     20  C   UNL     1       1.246   1.965   0.558  0.00  0.00    +0.038 A 
ATOM     21  C   UNL     1       0.059   1.257   0.565  0.00  0.00    +0.008 A 
ATOM     22  C   UNL     1       0.002  -0.004   0.002  0.00  0.00    -0.022 A 
ATOM     23  F   UNL     1       3.540   2.101  -0.020  0.00  0.00    -0.205 F 
ENDBRANCH   1  22
BRANCH  13  24
ATOM     24  C   UNL     1      -1.947  -3.455   2.608  0.00  0.00    +0.324 C 
BRANCH  24  25
ATOM     25  O   UNL     1      -3.087  -3.556   3.463  0.00  0.00    -0.483 OA
BRANCH  25  26
ATOM     26  C   UNL     1      -3.120  -4.605   4.327  0.00  0.00    +0.121 A 
ATOM     27  C   UNL     1      -2.072  -5.514   4.355  0.00  0.00    +0.047 A 
ATOM     28  C   UNL     1      -2.107  -6.579   5.234  0.00  0.00    +0.023 A 
ATOM     29  C   UNL     1      -3.185  -6.739   6.086  0.00  0.00    +0.041 A 
ATOM     30  C   UNL     1      -4.231  -5.834   6.059  0.00  0.00    +0.023 A 
ATOM     31  C   UNL     1      -4.197  -4.764   5.186  0.00  0.00    +0.047 A 
ATOM     32 CL   UNL     1      -3.227  -8.079   7.190  0.00  0.00    -0.084 Cl
ENDBRANCH  25  26
ENDBRANCH  24  25
ENDBRANCH  13  24
TORSDOF 4
