REMARK  Name = ZINC22589802
REMARK  9 active torsions:
REMARK  status: ('A' for Active; 'I' for Inactive)
REMARK    1  A    between atoms: C_1  and  C_2
REMARK    2  A    between atoms: C_7  and  N_8
REMARK    3  A    between atoms: C_12  and  N_13
REMARK    4  A    between atoms: N_13  and  C_14
REMARK    5  A    between atoms: C_14  and  C_15
REMARK    6  A    between atoms: C_15  and  C_25
REMARK    7  A    between atoms: C_17  and  O_24
REMARK    8  A    between atoms: C_20  and  C_22
REMARK    9  A    between atoms: C_20  and  C_23
REMARK                            x       y       z     vdW  Elec       q    Type
REMARK                         _______ _______ _______ _____ _____    ______ ____
ROOT
ATOM      1  N   UNL     1      -0.032  -0.626   2.805  0.00  0.00    -0.217 N 
ATOM      2  C   UNL     1      -1.195  -0.146   3.292  0.00  0.00    +0.263 C 
ATOM      3  O   UNL     1      -2.261  -0.507   2.831  0.00  0.00    -0.269 OA
ATOM      4  C   UNL     1      -1.138   0.828   4.396  0.00  0.00    +0.113 C 
ATOM      5  C   UNL     1      -2.288   1.363   4.946  0.00  0.00    +0.085 C 
ATOM      6  C   UNL     1       0.199   1.206   4.890  0.00  0.00    +0.256 C 
ATOM      7  O   UNL     1       0.326   2.004   5.800  0.00  0.00    -0.270 OA
ATOM      8  N   UNL     1       1.276   0.643   4.306  0.00  0.00    -0.263 N 
ATOM      9  C   UNL     1       1.150  -0.242   3.307  0.00  0.00    +0.150 C 
ATOM     10  S   UNL     1       2.574  -0.910   2.630  0.00  0.00    -0.018 S 
ATOM     11  H   UNL     1       2.163   0.880   4.619  0.00  0.00    +0.157 HD
ENDROOT
BRANCH   1  18
ATOM     12  C   UNL     1       0.035   0.360   0.136  0.00  0.00    +0.045 C 
ATOM     13  C   UNL     1      -0.030  -1.115   0.438  0.00  0.00    -0.029 A 
ATOM     14  C   UNL     1      -0.053  -2.031  -0.595  0.00  0.00    +0.005 A 
ATOM     15  C   UNL     1      -0.112  -3.385  -0.319  0.00  0.00    +0.000 A 
ATOM     16  C   UNL     1      -0.148  -3.825   0.992  0.00  0.00    +0.002 A 
ATOM     17  C   UNL     1      -0.125  -2.913   2.029  0.00  0.00    +0.024 A 
ATOM     18  C   UNL     1      -0.060  -1.554   1.755  0.00  0.00    +0.046 A 
ENDBRANCH   1  18
BRANCH   5  19
ATOM     19  N   UNL     1      -3.484   1.125   4.371  0.00  0.00    -0.348 N 
ATOM     20  H   UNL     1      -3.530   0.646   3.529  0.00  0.00    +0.146 HD
BRANCH  19  21
ATOM     21  C   UNL     1      -4.713   1.588   5.019  0.00  0.00    +0.107 C 
BRANCH  21  22
ATOM     22  C   UNL     1      -5.934   1.187   4.157  0.00  0.00    -0.014 C 
ATOM     23  C   UNL     1      -5.744   1.813   2.782  0.00  0.00    +0.039 C 
ATOM     24  C   UNL     1      -7.001   1.733   1.928  0.00  0.00    +0.116 C 
ATOM     25  C   UNL     1      -8.178   2.381   2.642  0.00  0.00    +0.037 C 
ATOM     26  C   UNL     1      -8.433   1.780   4.016  0.00  0.00    -0.032 C 
ATOM     27  C   UNL     1      -7.179   1.686   4.864  0.00  0.00    +0.014 C 
ATOM     28  C   UNL     1      -9.116   0.416   3.887  0.00  0.00    +0.011 C 
ATOM     29  C   UNL     1      -9.425   2.713   4.751  0.00  0.00    +0.011 C 
ATOM     30  C   UNL     1      -5.928  -0.341   4.059  0.00  0.00    +0.013 C 
BRANCH  24  31
ATOM     31  O   UNL     1      -7.293   0.392   1.548  0.00  0.00    -0.392 OA
ATOM     32  H   UNL     1      -8.086   0.302   1.003  0.00  0.00    +0.210 HD
ENDBRANCH  24  31
ENDBRANCH  21  22
ENDBRANCH  19  21
ENDBRANCH   5  19
TORSDOF 5
