REMARK  Name = ZINC20614881
REMARK  7 active torsions:
REMARK  status: ('A' for Active; 'I' for Inactive)
REMARK    1  A    between atoms: C_3  and  C_6
REMARK    2  A    between atoms: C_6  and  C_8
REMARK    3  A    between atoms: C_6  and  N_18
REMARK    4  A    between atoms: C_8  and  N_9
REMARK    5  A    between atoms: N_9  and  S_10
REMARK    6  A    between atoms: S_10  and  C_13
REMARK    7  A    between atoms: N_21  and  C_24
REMARK                            x       y       z     vdW  Elec       q    Type
REMARK                         _______ _______ _______ _____ _____    ______ ____
ROOT
ATOM      1  C   UNL     1      -2.814  -1.000   3.728  0.00  0.00    +0.015 C 
ENDROOT
BRANCH   1   2
ATOM      2  N   UNL     1      -3.744  -2.072   3.348  0.00  0.00    +0.389 N 
ATOM      3  C   UNL     1      -4.818  -1.558   2.487  0.00  0.00    -0.059 C 
ATOM      4  C   UNL     1      -5.717  -2.717   2.051  0.00  0.00    +0.086 C 
ATOM      5  N   UNL     1      -6.271  -3.379   3.240  0.00  0.00    -0.333 N 
ATOM      6  C   UNL     1      -5.197  -3.893   4.101  0.00  0.00    +0.086 C 
ATOM      7  C   UNL     1      -4.298  -2.735   4.538  0.00  0.00    -0.059 C 
ATOM      8  H   UNL     1      -3.178  -2.821   2.775  0.00  0.00    -0.081 HD
BRANCH   5   9
ATOM      9  C   UNL     1      -7.156  -4.399   2.879  0.00  0.00    +0.030 A 
ATOM     10  C   UNL     1      -6.944  -5.696   3.330  0.00  0.00    +0.026 A 
ATOM     11  C   UNL     1      -7.822  -6.701   2.975  0.00  0.00    +0.040 A 
ATOM     12  C   UNL     1      -8.907  -6.420   2.163  0.00  0.00    +0.124 A 
ATOM     13  C   UNL     1      -9.118  -5.129   1.708  0.00  0.00    +0.040 A 
ATOM     14  C   UNL     1      -8.245  -4.119   2.064  0.00  0.00    +0.026 A 
ATOM     15  F   UNL     1      -9.762  -7.406   1.814  0.00  0.00    -0.205 F 
ENDBRANCH   5   9
ENDBRANCH   1   2
BRANCH   1  18
ATOM     16  C   UNL     1      -4.096   1.458   6.156  0.00  0.00    +0.041 A 
ATOM     17  C   UNL     1      -3.109   0.542   5.724  0.00  0.00    +0.043 A 
ATOM     18  C   UNL     1      -3.541   0.024   4.560  0.00  0.00    +0.093 A 
ATOM     19  O   UNL     1      -4.728   0.579   4.263  0.00  0.00    -0.469 OA
ATOM     20  C   UNL     1      -5.072   1.445   5.230  0.00  0.00    +0.195 A 
ENDBRANCH   1  18
BRANCH   1  21
ATOM     21  C   UNL     1      -2.262  -0.333   2.466  0.00  0.00    +0.098 C 
BRANCH  21  22
ATOM     22  N   UNL     1      -1.659  -1.350   1.600  0.00  0.00    -0.191 NA
ATOM     23  H   UNL     1      -1.284  -2.289   2.034  0.00  0.00    +0.148 HD
BRANCH  22  24
ATOM     24  S   UNL     1      -1.317  -0.994   0.020  0.00  0.00    +0.065 S 
ATOM     25  O   UNL     1      -2.486  -0.398  -0.525  0.00  0.00    -0.153 OA
ATOM     26  O   UNL     1      -0.724  -2.158  -0.539  0.00  0.00    -0.153 OA
BRANCH  24  27
ATOM     27  C   UNL     1      -0.072   0.253   0.024  0.00  0.00    +0.142 A 
ATOM     28  C   UNL     1       1.276   0.113   0.020  0.00  0.00    +0.036 A 
ATOM     29  C   UNL     1       2.068   1.246   0.025  0.00  0.00    +0.010 A 
ATOM     30  C   UNL     1       1.473   2.463   0.033  0.00  0.00    +0.047 A 
ATOM     31  S   UNL     1      -0.259   2.028   0.035  0.00  0.00    -0.077 S 
ENDBRANCH  24  27
ENDBRANCH  22  24
ENDBRANCH  21  22
ENDBRANCH   1  21
TORSDOF 7
