REMARK  Name = ZINC43509881
REMARK  11 active torsions:
REMARK  status: ('A' for Active; 'I' for Inactive)
REMARK    1  A    between atoms: C_1  and  C_2
REMARK    2  A    between atoms: C_8  and  C_39
REMARK    3  A    between atoms: C_12  and  O_28
REMARK    4  A    between atoms: N_19  and  C_22
REMARK    5  A    between atoms: C_22  and  C_23
REMARK    6  A    between atoms: C_23  and  C_24
REMARK    7  A    between atoms: C_24  and  C_25
REMARK    8  A    between atoms: C_30  and  O_38
REMARK    9  A    between atoms: C_32  and  O_37
REMARK   10  A    between atoms: C_34  and  C_35
REMARK   11  A    between atoms: C_34  and  C_36
REMARK                            x       y       z     vdW  Elec       q    Type
REMARK                         _______ _______ _______ _____ _____    ______ ____
ROOT
ATOM      1  C   UNL     1       1.460   0.704  -0.989  0.00  0.00    +0.011 C 
ATOM      2  C   UNL     1       0.830  -0.635  -0.615  0.00  0.00    +0.031 C 
ATOM      3  C   UNL     1      -0.655  -0.434  -0.304  0.00  0.00    +0.007 C 
ATOM      4  C   UNL     1      -1.302  -1.777   0.023  0.00  0.00    +0.005 C 
ATOM      5  C   UNL     1      -0.603  -2.505   1.178  0.00  0.00    +0.007 C 
ATOM      6  C   UNL     1       0.889  -2.623   0.903  0.00  0.00    +0.014 C 
ATOM      7  C   UNL     1       1.491  -1.237   0.616  0.00  0.00    +0.123 C 
ATOM      8  C   UNL     1       1.339  -0.313   1.832  0.00  0.00    +0.091 C 
ATOM      9  C   UNL     1       2.686   0.386   1.885  0.00  0.00    +0.040 A 
ATOM     10  C   UNL     1       3.116   1.510   2.568  0.00  0.00    +0.124 A 
ATOM     11  C   UNL     1       4.422   1.952   2.430  0.00  0.00    +0.059 A 
ATOM     12  C   UNL     1       5.298   1.258   1.593  0.00  0.00    +0.049 A 
ATOM     13  C   UNL     1       4.853   0.127   0.910  0.00  0.00    +0.024 A 
ATOM     14  C   UNL     1       3.543  -0.313   1.044  0.00  0.00    +0.134 A 
ATOM     15  O   UNL     1       2.906  -1.355   0.443  0.00  0.00    -0.484 OA
ATOM     16  C   UNL     1       6.028  -0.386   0.117  0.00  0.00    +0.147 C 
ATOM     17  N   UNL     1       7.133   0.545   0.374  0.00  0.00    -0.293 N 
ATOM     18  C   UNL     1       6.714   1.485   1.239  0.00  0.00    +0.247 C 
ATOM     19  O   UNL     1       7.400   2.393   1.666  0.00  0.00    -0.270 OA
ATOM     20  C   UNL     1       1.132  -3.522  -0.309  0.00  0.00    +0.044 C 
ATOM     21  C   UNL     1       0.489  -4.891  -0.145  0.00  0.00    +0.144 C 
ATOM     22  C   UNL     1      -0.989  -4.794   0.190  0.00  0.00    +0.149 C 
ATOM     23  C   UNL     1      -1.286  -3.860   1.357  0.00  0.00    -0.003 C 
ATOM     24  C   UNL     1      -0.942  -4.528   2.688  0.00  0.00    +0.014 C 
ATOM     25  C   UNL     1      -2.819  -3.648   1.387  0.00  0.00    +0.014 C 
ATOM     26  C   UNL     1       1.676  -3.179   2.097  0.00  0.00    +0.015 C 
ENDROOT
BRANCH  10  27
ATOM     27  O   UNL     1       2.256   2.181   3.379  0.00  0.00    -0.506 OA
ATOM     28  H   UNL     1       2.252   1.867   4.293  0.00  0.00    +0.292 HD
ENDBRANCH  10  27
BRANCH  22  29
ATOM     29  O   UNL     1      -1.491  -6.102   0.499  0.00  0.00    -0.389 OA
ATOM     30  H   UNL     1      -1.402  -6.739  -0.223  0.00  0.00    +0.210 HD
ENDBRANCH  22  29
BRANCH  21  31
ATOM     31  O   UNL     1       1.185  -5.693   0.805  0.00  0.00    -0.389 OA
ATOM     32  H   UNL     1       0.801  -6.572   0.934  0.00  0.00    +0.210 HD
ENDBRANCH  21  31
BRANCH  17  33
ATOM     33  C   UNL     1       8.472   0.464  -0.215  0.00  0.00    +0.109 C 
BRANCH  33  34
ATOM     34  C   UNL     1       8.503   1.258  -1.522  0.00  0.00    +0.030 C 
BRANCH  34  35
ATOM     35  C   UNL     1       9.902   1.174  -2.137  0.00  0.00    +0.126 C 
BRANCH  35  36
ATOM     36  C   UNL     1       9.932   1.956  -3.425  0.00  0.00    +0.356 C 
ATOM     37  O   UNL     1       8.928   2.528  -3.814  0.00  0.00    -0.246 OA
ATOM     38  O   UNL     1      10.960   2.017  -4.077  0.00  0.00    -0.246 OA
ENDBRANCH  35  36
ENDBRANCH  34  35
ENDBRANCH  33  34
ENDBRANCH  17  33
TORSDOF 7
