REMARK  Name = ZINC50200407
REMARK  7 active torsions:
REMARK  status: ('A' for Active; 'I' for Inactive)
REMARK    1  A    between atoms: C_3  and  C_18
REMARK    2  A    between atoms: C_6  and  C_7
REMARK    3  A    between atoms: C_7  and  N_8
REMARK    4  A    between atoms: N_8  and  S_9
REMARK    5  A    between atoms: S_9  and  C_12
REMARK    6  A    between atoms: C_19  and  C_20
REMARK    7  A    between atoms: C_20  and  N_21
REMARK                            x       y       z     vdW  Elec       q    Type
REMARK                         _______ _______ _______ _____ _____    ______ ____
ROOT
ATOM      1  C   UNL     1      -0.709   1.507   0.593  0.00  0.00    +0.006 A 
ATOM      2  C   UNL     1       0.369   2.335   0.829  0.00  0.00    +0.017 A 
ATOM      3  C   UNL     1       1.635   1.787   1.035  0.00  0.00    +0.025 A 
ATOM      4  C   UNL     1       1.803   0.402   1.001  0.00  0.00    +0.017 A 
ATOM      5  C   UNL     1       0.717  -0.416   0.764  0.00  0.00    +0.006 A 
ATOM      6  C   UNL     1      -0.536   0.134   0.561  0.00  0.00    -0.032 A 
ENDROOT
BRANCH   3   7
ATOM      7  C   UNL     1       2.758   2.641   1.280  0.00  0.00    -0.068 C 
ATOM      8  C   UNL     1       3.678   3.342   1.480  0.00  0.00    -0.117 C 
BRANCH   8   9
ATOM      9  C   UNL     1       4.832   4.221   1.732  0.00  0.00    +0.005 C 
BRANCH   9  10
ATOM     10  N   UNL     1       6.039   3.403   1.914  0.00  0.00    +0.385 N 
ATOM     11  H   UNL     1       5.910   2.784   2.700  0.00  0.00    -0.089 HD
ATOM     12  H   UNL     1       6.206   2.859   1.081  0.00  0.00    -0.089 HD
ATOM     13  H   UNL     1       6.830   4.005   2.087  0.00  0.00    -0.089 HD
ENDBRANCH   9  10
ENDBRANCH   8   9
ENDBRANCH   3   7
BRANCH   6  14
ATOM     14  C   UNL     1      -1.717  -0.765   0.303  0.00  0.00    +0.140 C 
BRANCH  14  15
ATOM     15  N   UNL     1      -1.852  -0.993  -1.138  0.00  0.00    -0.190 NA
ATOM     16  H   UNL     1      -1.379  -0.424  -1.766  0.00  0.00    +0.148 HD
BRANCH  15  17
ATOM     17  S   UNL     1      -2.812  -2.222  -1.696  0.00  0.00    +0.033 S 
ATOM     18  O   UNL     1      -4.052  -2.046  -1.025  0.00  0.00    -0.158 OA
ATOM     19  O   UNL     1      -2.735  -2.128  -3.111  0.00  0.00    -0.158 OA
BRANCH  17  20
ATOM     20  C   UNL     1      -2.002  -3.741  -1.125  0.00  0.00    +0.152 C 
ATOM     21  C   UNL     1      -0.587  -3.817  -1.705  0.00  0.00    +0.056 C 
ATOM     22  C   UNL     1       0.060  -5.139  -1.283  0.00  0.00    +0.161 C 
ATOM     23  O   UNL     1      -0.751  -6.228  -1.730  0.00  0.00    -0.380 OA
ATOM     24  C   UNL     1      -2.071  -6.236  -1.182  0.00  0.00    +0.161 C 
ATOM     25  C   UNL     1      -2.803  -4.958  -1.600  0.00  0.00    +0.056 C 
ENDBRANCH  17  20
ENDBRANCH  15  17
ENDBRANCH  14  15
ENDBRANCH   6  14
TORSDOF 7
