REMARK  Name = ZINC12035955
REMARK  8 active torsions:
REMARK  status: ('A' for Active; 'I' for Inactive)
REMARK    1  A    between atoms: C_1  and  C_2
REMARK    2  A    between atoms: C_2  and  C_3
REMARK    3  A    between atoms: C_3  and  C_14
REMARK    4  A    between atoms: N_6  and  C_10
REMARK    5  A    between atoms: C_10  and  C_11
REMARK    6  A    between atoms: C_11  and  C_13
REMARK    7  A    between atoms: C_19  and  C_20
REMARK    8  A    between atoms: C_19  and  N_58
REMARK                            x       y       z     vdW  Elec       q    Type
REMARK                         _______ _______ _______ _____ _____    ______ ____
ROOT
ATOM      1  C   UNL     1      -3.992   4.904  -3.703  0.00  0.00    +0.018 C 
ATOM      2  C   UNL     1      -3.882   6.138  -2.804  0.00  0.00    -0.013 C 
ATOM      3  C   UNL     1      -3.590   5.693  -1.369  0.00  0.00    -0.078 C 
ATOM      4  C   UNL     1      -2.433   3.715  -2.157  0.00  0.00    -0.078 C 
ATOM      5  C   UNL     1      -2.691   4.101  -3.615  0.00  0.00    -0.013 C 
ATOM      6  N   UNL     1      -2.314   4.947  -1.348  0.00  0.00    +0.382 N 
ATOM      7  H   UNL     1      -1.576   5.539  -1.749  0.00  0.00    -0.081 HD
ENDROOT
BRANCH   1   8
ATOM      8  C   UNL     1      -4.225   5.344  -5.150  0.00  0.00    +0.115 C 
ATOM      9  C   UNL     1      -3.150   6.318  -5.591  0.00  0.00    +0.247 C 
ATOM     10  O   UNL     1      -1.958   6.109  -5.663  0.00  0.00    -0.273 OA
ATOM     11  N   UNL     1      -3.795   7.463  -5.887  0.00  0.00    -0.220 N 
ATOM     12  C   UNL     1      -5.114   7.350  -5.696  0.00  0.00    +0.310 C 
ATOM     13  O   UNL     1      -5.906   8.251  -5.896  0.00  0.00    -0.252 OA
ATOM     14  N   UNL     1      -5.468   6.128  -5.259  0.00  0.00    -0.285 N 
ATOM     15  H   UNL     1      -6.365   5.822  -5.055  0.00  0.00    +0.151 HD
BRANCH   8  17
ATOM     16  C   UNL     1      -4.501   4.598  -7.518  0.00  0.00    +0.006 C 
ATOM     17  C   UNL     1      -4.267   4.131  -6.080  0.00  0.00    +0.032 C 
ENDBRANCH   8  17
BRANCH  11  18
ATOM     18  C   UNL     1      -3.133   8.682  -6.360  0.00  0.00    +0.148 C 
BRANCH  18  19
ATOM     19  C   UNL     1      -3.064   8.664  -7.865  0.00  0.00    -0.062 C 
ATOM     20  C   UNL     1      -3.989   9.267  -8.571  0.00  0.00    +0.009 C 
ATOM     21  C   UNL     1      -1.931   7.952  -8.559  0.00  0.00    +0.040 C 
ENDBRANCH  18  19
ENDBRANCH  11  18
ENDBRANCH   1   8
BRANCH   6  22
ATOM     22  C   UNL     1      -1.952   4.605   0.043  0.00  0.00    -0.043 C 
BRANCH  22  23
ATOM     23  C   UNL     1      -0.808   3.623   0.028  0.00  0.00    -0.060 A 
ATOM     24  C   UNL     1       0.495   4.083   0.018  0.00  0.00    +0.005 A 
ATOM     25  C   UNL     1       1.547   3.187   0.004  0.00  0.00    +0.050 A 
ATOM     26  C   UNL     1       1.297   1.824  -0.001  0.00  0.00    +0.166 A 
ATOM     27  C   UNL     1      -0.016   1.361   0.009  0.00  0.00    +0.166 A 
ATOM     28  C   UNL     1      -1.066   2.265   0.019  0.00  0.00    +0.051 A 
ATOM     29  O   UNL     1       0.002  -0.004   0.002  0.00  0.00    -0.453 OA
ATOM     30  C   UNL     1       1.336  -0.373   0.399  0.00  0.00    +0.466 C 
ATOM     31  O   UNL     1       2.138   0.749  -0.014  0.00  0.00    -0.453 OA
ENDBRANCH  22  23
ENDBRANCH   6  22
TORSDOF 6
