REMARK  Name = ZINC22325731
REMARK  13 active torsions:
REMARK  status: ('A' for Active; 'I' for Inactive)
REMARK    1  A    between atoms: C_1  and  C_2
REMARK    2  A    between atoms: C_2  and  C_3
REMARK    3  A    between atoms: C_3  and  C_5
REMARK    4  A    between atoms: C_3  and  N_13
REMARK    5  A    between atoms: C_8  and  C_12
REMARK    6  A    between atoms: C_9  and  C_11
REMARK    7  A    between atoms: C_14  and  C_16
REMARK    8  A    between atoms: C_16  and  N_17
REMARK    9  A    between atoms: N_17  and  C_18
REMARK   10  A    between atoms: N_17  and  S_26
REMARK   11  A    between atoms: C_23  and  C_24
REMARK   12  A    between atoms: S_26  and  C_29
REMARK   13  A    between atoms: C_32  and  C_35
REMARK                            x       y       z     vdW  Elec       q    Type
REMARK                         _______ _______ _______ _____ _____    ______ ____
ROOT
ATOM      1  N   UNL     1      -0.939   4.460  -3.354  0.00  0.00    -0.194 N 
ENDROOT
BRANCH   1   2
ATOM      2  C   UNL     1      -0.687   3.422  -4.254  0.00  0.00    +0.056 A 
ATOM      3  C   UNL     1       0.253   2.446  -3.946  0.00  0.00    +0.025 A 
ATOM      4  C   UNL     1       0.500   1.421  -4.837  0.00  0.00    +0.003 A 
ATOM      5  C   UNL     1      -0.187   1.363  -6.036  0.00  0.00    +0.020 A 
ATOM      6  C   UNL     1      -1.124   2.333  -6.346  0.00  0.00    +0.046 A 
ATOM      7  C   UNL     1      -1.380   3.359  -5.456  0.00  0.00    -0.010 A 
ATOM      8  C   UNL     1      -2.405   4.411  -5.792  0.00  0.00    +0.047 C 
ATOM      9 CL   UNL     1      -1.985   2.256  -7.852  0.00  0.00    -0.083 Cl
ENDBRANCH   1   2
BRANCH   1  10
ATOM     10  S   UNL     1      -0.136   5.900  -3.506  0.00  0.00    +0.075 S 
ATOM     11  O   UNL     1       0.381   5.939  -4.829  0.00  0.00    -0.150 OA
ATOM     12  O   UNL     1      -1.004   6.904  -2.998  0.00  0.00    -0.150 OA
BRANCH  10  13
ATOM     13  C   UNL     1       1.253   5.839  -2.424  0.00  0.00    +0.109 A 
ATOM     14  C   UNL     1       1.114   6.210  -1.100  0.00  0.00    +0.029 A 
ATOM     15  C   UNL     1       2.203   6.158  -0.250  0.00  0.00    +0.005 A 
ATOM     16  C   UNL     1       3.433   5.744  -0.726  0.00  0.00    -0.050 A 
ATOM     17  C   UNL     1       3.573   5.378  -2.052  0.00  0.00    +0.005 A 
ATOM     18  C   UNL     1       2.483   5.426  -2.901  0.00  0.00    +0.029 A 
ATOM     19  C   UNL     1       4.621   5.692   0.200  0.00  0.00    +0.044 C 
ENDBRANCH  10  13
ENDBRANCH   1  10
BRANCH   1  20
ATOM     20  C   UNL     1      -1.914   4.274  -2.276  0.00  0.00    +0.227 C 
BRANCH  20  22
ATOM     21  N   UNL     1      -1.920   3.448   0.055  0.00  0.00    -0.307 N 
ATOM     22  C   UNL     1      -1.235   3.641  -1.089  0.00  0.00    +0.233 C 
ATOM     23  O   UNL     1      -0.072   3.304  -1.164  0.00  0.00    -0.274 OA
ATOM     24  H   UNL     1      -2.975   3.754   0.123  0.00  0.00    +0.149 HD
BRANCH  21  25
ATOM     25  C   UNL     1      -1.261   2.832   1.209  0.00  0.00    +0.103 C 
BRANCH  25  26
ATOM     26  C   UNL     1      -1.956   3.264   2.474  0.00  0.00    -0.027 A 
ATOM     27  C   UNL     1      -3.335   3.359   2.508  0.00  0.00    +0.006 A 
ATOM     28  C   UNL     1      -3.972   3.754   3.669  0.00  0.00    +0.004 A 
ATOM     29  C   UNL     1      -3.231   4.055   4.796  0.00  0.00    -0.048 A 
ATOM     30  C   UNL     1      -1.852   3.960   4.763  0.00  0.00    -0.047 A 
ATOM     31  C   UNL     1      -1.215   3.559   3.603  0.00  0.00    +0.009 A 
ATOM     32  C   UNL     1      -1.044   4.288   5.992  0.00  0.00    +0.044 C 
ATOM     33  C   UNL     1      -3.925   4.486   6.062  0.00  0.00    +0.044 C 
ENDBRANCH  25  26
BRANCH  25  35
ATOM     34  C   UNL     1      -0.520   0.860  -0.135  0.00  0.00    +0.006 C 
ATOM     35  C   UNL     1      -1.331   1.309   1.083  0.00  0.00    +0.024 C 
ENDBRANCH  25  35
ENDBRANCH  21  25
ENDBRANCH  20  22
ENDBRANCH   1  20
TORSDOF 8
