REMARK  Name = ZINC01200767
REMARK  10 active torsions:
REMARK  status: ('A' for Active; 'I' for Inactive)
REMARK    1  A    between atoms: C_1  and  C_2
REMARK    2  A    between atoms: C_5  and  S_9
REMARK    3  A    between atoms: C_6  and  C_8
REMARK    4  A    between atoms: S_9  and  N_12
REMARK    5  A    between atoms: N_12  and  C_13
REMARK    6  A    between atoms: C_16  and  N_19
REMARK    7  A    between atoms: N_19  and  S_20
REMARK    8  A    between atoms: S_20  and  C_23
REMARK    9  A    between atoms: C_26  and  C_30
REMARK   10  A    between atoms: C_28  and  C_29
REMARK                            x       y       z     vdW  Elec       q    Type
REMARK                         _______ _______ _______ _____ _____    ______ ____
ROOT
ATOM      1  C   UNL     1      -1.150   3.505  -0.722  0.00  0.00    +0.048 A 
ATOM      2  C   UNL     1      -1.448   4.191   0.448  0.00  0.00    +0.026 A 
ATOM      3  C   UNL     1      -1.571   5.566   0.430  0.00  0.00    +0.026 A 
ATOM      4  C   UNL     1      -1.405   6.262  -0.760  0.00  0.00    +0.048 A 
ATOM      5  C   UNL     1      -1.112   5.576  -1.931  0.00  0.00    +0.026 A 
ATOM      6  C   UNL     1      -0.985   4.201  -1.912  0.00  0.00    +0.026 A 
ENDROOT
BRANCH   1   7
ATOM      7  N   UNL     1      -1.020   2.111  -0.703  0.00  0.00    -0.216 N 
ATOM      8  H   UNL     1      -1.449   1.575  -1.389  0.00  0.00    +0.174 HD
BRANCH   7   9
ATOM      9  S   UNL     1      -0.136   1.378   0.490  0.00  0.00    +0.073 S 
ATOM     10  O   UNL     1      -0.621   1.885   1.725  0.00  0.00    -0.150 OA
ATOM     11  O   UNL     1      -0.122  -0.011   0.190  0.00  0.00    -0.150 OA
BRANCH   9  16
ATOM     12  C   UNL     1       5.552   3.315  -0.057  0.00  0.00    +0.044 C 
ATOM     13  C   UNL     1       4.131   2.832   0.079  0.00  0.00    -0.050 A 
ATOM     14  C   UNL     1       3.414   3.107   1.229  0.00  0.00    +0.005 A 
ATOM     15  C   UNL     1       2.111   2.663   1.355  0.00  0.00    +0.029 A 
ATOM     16  C   UNL     1       1.525   1.944   0.330  0.00  0.00    +0.111 A 
ATOM     17  C   UNL     1       2.243   1.664  -0.818  0.00  0.00    -0.024 A 
ATOM     18  C   UNL     1       3.544   2.113  -0.945  0.00  0.00    +0.008 A 
ATOM     19  C   UNL     1       1.605   0.875  -1.932  0.00  0.00    +0.046 C 
ENDBRANCH   9  16
ENDBRANCH   7   9
ENDBRANCH   1   7
BRANCH   4  20
ATOM     20  N   UNL     1      -1.534   7.656  -0.779  0.00  0.00    -0.216 N 
ATOM     21  H   UNL     1      -0.874   8.198  -1.239  0.00  0.00    +0.174 HD
BRANCH  20  22
ATOM     22  S   UNL     1      -2.812   8.381  -0.015  0.00  0.00    +0.073 S 
ATOM     23  O   UNL     1      -2.835   7.871   1.311  0.00  0.00    -0.150 OA
ATOM     24  O   UNL     1      -2.718   9.771  -0.295  0.00  0.00    -0.150 OA
BRANCH  22  25
ATOM     25  C   UNL     1      -4.281   7.807  -0.801  0.00  0.00    +0.111 A 
ATOM     26  C   UNL     1      -5.212   7.081  -0.081  0.00  0.00    +0.029 A 
ATOM     27  C   UNL     1      -6.364   6.631  -0.697  0.00  0.00    +0.005 A 
ATOM     28  C   UNL     1      -6.587   6.907  -2.034  0.00  0.00    -0.050 A 
ATOM     29  C   UNL     1      -5.656   7.633  -2.753  0.00  0.00    +0.008 A 
ATOM     30  C   UNL     1      -4.506   8.088  -2.136  0.00  0.00    -0.024 A 
ATOM     31  C   UNL     1      -3.494   8.884  -2.919  0.00  0.00    +0.046 C 
ATOM     32  C   UNL     1      -7.843   6.418  -2.705  0.00  0.00    +0.044 C 
ENDBRANCH  22  25
ENDBRANCH  20  22
ENDBRANCH   4  20
TORSDOF 6
