REMARK  Name = ZINC39214920
REMARK  2 active torsions:
REMARK  status: ('A' for Active; 'I' for Inactive)
REMARK    1  A    between atoms: C_5  and  N_7
REMARK    2  A    between atoms: C_8  and  C_14
REMARK                            x       y       z     vdW  Elec       q    Type
REMARK                         _______ _______ _______ _____ _____    ______ ____
ROOT
ATOM      1  N   UNL     1       1.237  -2.080  -0.022  0.00  0.00    -0.257 N 
ATOM      2  C   UNL     1       1.256  -2.964   1.154  0.00  0.00    +0.216 C 
ATOM      3  N   UNL     1       1.275  -4.326   0.585  0.00  0.00    -0.215 NA
ATOM      4  N   UNL     1       1.266  -4.171  -0.771  0.00  0.00    -0.260 N 
ATOM      5  C   UNL     1       1.238  -2.875  -1.108  0.00  0.00    +0.153 C 
ATOM      6  S   UNL     1       1.213  -2.301  -2.720  0.00  0.00    -0.017 S 
ATOM      7  H   UNL     1       2.094  -4.832   0.886  0.00  0.00    +0.147 HD
ATOM      8  H   UNL     1       1.274  -4.904  -1.407  0.00  0.00    +0.168 HD
ENDROOT
BRANCH   2   9
ATOM      9  C   UNL     1       0.020  -2.756   1.991  0.00  0.00    +0.098 A 
ATOM     10  C   UNL     1      -0.442  -3.790   2.822  0.00  0.00    +0.034 A 
ATOM     11  C   UNL     1      -1.565  -3.569   3.568  0.00  0.00    +0.073 A 
ATOM     12  C   UNL     1      -2.192  -2.309   3.455  0.00  0.00    +0.265 A 
ATOM     13  O   UNL     1      -3.198  -2.062   4.101  0.00  0.00    -0.266 OA
ATOM     14  N   UNL     1      -1.670  -1.384   2.629  0.00  0.00    -0.243 N 
ATOM     15  N   UNL     1      -0.610  -1.615   1.942  0.00  0.00    -0.173 NA
ATOM     16  H   UNL     1      -2.103  -0.519   2.553  0.00  0.00    +0.192 HD
ENDBRANCH   2   9
BRANCH   1  21
ATOM     17  C   UNL     1      -0.017   1.377   0.010  0.00  0.00    +0.002 A 
ATOM     18  C   UNL     1       1.170   2.087   0.002  0.00  0.00    +0.002 A 
ATOM     19  C   UNL     1       2.380   1.417  -0.013  0.00  0.00    +0.022 A 
ATOM     20  C   UNL     1       2.406   0.035  -0.021  0.00  0.00    +0.062 A 
ATOM     21  C   UNL     1       1.215  -0.681  -0.014  0.00  0.00    +0.056 A 
ATOM     22  C   UNL     1       0.002  -0.004   0.002  0.00  0.00    +0.025 A 
ATOM     23 CL   UNL     1       3.925  -0.806  -0.041  0.00  0.00    -0.082 Cl
ENDBRANCH   1  21
TORSDOF 2
