REMARK  Name = ZINC64392133
REMARK  6 active torsions:
REMARK  status: ('A' for Active; 'I' for Inactive)
REMARK    1  A    between atoms: C_1  and  C_2
REMARK    2  A    between atoms: C_2  and  C_3
REMARK    3  A    between atoms: C_6  and  C_9
REMARK    4  A    between atoms: C_11  and  C_15
REMARK    5  A    between atoms: N_25  and  C_28
REMARK    6  A    between atoms: C_28  and  C_29
REMARK                            x       y       z     vdW  Elec       q    Type
REMARK                         _______ _______ _______ _____ _____    ______ ____
ROOT
ATOM      1  C   UNL     1       4.121  -4.355  -6.387  0.00  0.00    +0.006 A 
ATOM      2  C   UNL     1       3.217  -5.158  -5.708  0.00  0.00    +0.009 A 
ATOM      3  C   UNL     1       3.172  -6.515  -5.946  0.00  0.00    +0.016 A 
ATOM      4  C   UNL     1       4.043  -7.078  -6.876  0.00  0.00    +0.063 A 
ATOM      5  C   UNL     1       4.959  -6.263  -7.564  0.00  0.00    +0.056 A 
ATOM      6  C   UNL     1       4.986  -4.899  -7.316  0.00  0.00    +0.034 A 
ATOM      7  N   UNL     1       5.814  -6.851  -8.486  0.00  0.00    -0.307 N 
ATOM      8  H   UNL     1       6.452  -6.301  -8.968  0.00  0.00    +0.170 HD
ATOM      9  C   UNL     1       5.768  -8.174  -8.716  0.00  0.00    +0.330 A 
ATOM     10  O   UNL     1       6.534  -8.650  -9.531  0.00  0.00    -0.246 OA
ATOM     11  N   UNL     1       4.912  -8.993  -8.085  0.00  0.00    -0.256 N 
ATOM     12  C   UNL     1       4.037  -8.522  -7.170  0.00  0.00    +0.265 A 
ATOM     13  O   UNL     1       3.265  -9.270  -6.603  0.00  0.00    -0.267 OA
ENDROOT
BRANCH   1  16
ATOM     14  C   UNL     1       2.696  -1.861  -4.734  0.00  0.00    +0.134 C 
ATOM     15  N   UNL     1       3.760  -2.604  -4.726  0.00  0.00    -0.339 N 
ATOM     16  C   UNL     1       4.156  -2.874  -6.113  0.00  0.00    +0.274 C 
ATOM     17  O   UNL     1       3.188  -2.194  -6.927  0.00  0.00    -0.243 OA
ATOM     18  N   UNL     1       2.292  -1.579  -6.015  0.00  0.00    -0.247 N 
ATOM     19  H   UNL     1       1.520  -1.044  -6.258  0.00  0.00    +0.196 HD
ATOM     20  H   UNL     1       4.218  -2.927  -3.934  0.00  0.00    +0.164 HD
BRANCH  14  24
ATOM     21  C   UNL     1       0.707  -0.490  -1.238  0.00  0.00    -0.048 A 
ATOM     22  C   UNL     1      -0.014  -0.718  -2.396  0.00  0.00    +0.004 A 
ATOM     23  C   UNL     1       0.626  -1.163  -3.535  0.00  0.00    +0.012 A 
ATOM     24  C   UNL     1       2.003  -1.383  -3.516  0.00  0.00    +0.017 A 
ATOM     25  C   UNL     1       2.725  -1.152  -2.345  0.00  0.00    +0.012 A 
ATOM     26  C   UNL     1       2.074  -0.701  -1.215  0.00  0.00    +0.004 A 
BRANCH  21  28
ATOM     27  C   UNL     1      -0.019   1.526   0.010  0.00  0.00    +0.009 C 
ATOM     28  C   UNL     1       0.002  -0.004   0.002  0.00  0.00    +0.032 C 
ENDBRANCH  21  28
ENDBRANCH  14  24
ENDBRANCH   1  16
BRANCH  11  29
ATOM     29  C   UNL     1       4.926 -10.425  -8.395  0.00  0.00    +0.165 C 
BRANCH  29  30
ATOM     30  C   UNL     1       5.891 -11.128  -7.476  0.00  0.00    -0.024 A 
ATOM     31  C   UNL     1       7.217 -11.265  -7.841  0.00  0.00    +0.009 A 
ATOM     32  C   UNL     1       8.106 -11.909  -7.001  0.00  0.00    +0.050 A 
ATOM     33  C   UNL     1       7.669 -12.419  -5.789  0.00  0.00    +0.166 A 
ATOM     34  C   UNL     1       6.333 -12.281  -5.421  0.00  0.00    +0.167 A 
ATOM     35  C   UNL     1       5.449 -11.630  -6.266  0.00  0.00    +0.055 A 
ATOM     36  O   UNL     1       6.155 -12.861  -4.198  0.00  0.00    -0.453 OA
ATOM     37  C   UNL     1       7.301 -13.711  -4.005  0.00  0.00    +0.466 C 
ATOM     38  O   UNL     1       8.328 -13.085  -4.797  0.00  0.00    -0.453 OA
ENDBRANCH  29  30
ENDBRANCH  11  29
TORSDOF 5
