REMARK  Name = ZINC13215630
REMARK  8 active torsions:
REMARK  status: ('A' for Active; 'I' for Inactive)
REMARK    1  A    between atoms: C_1  and  C_2
REMARK    2  A    between atoms: C_5  and  C_8
REMARK    3  A    between atoms: C_8  and  C_10
REMARK    4  A    between atoms: N_14  and  C_26
REMARK    5  A    between atoms: C_15  and  C_17
REMARK    6  A    between atoms: C_20  and  N_23
REMARK    7  A    between atoms: C_28  and  C_33
REMARK    8  A    between atoms: C_31  and  C_32
REMARK                            x       y       z     vdW  Elec       q    Type
REMARK                         _______ _______ _______ _____ _____    ______ ____
ROOT
ATOM      1  C   UNL     1       0.149  -4.929   1.300  0.00  0.00    +0.077 C 
ATOM      2  C   UNL     1       0.248  -6.255   1.557  0.00  0.00    +0.250 C 
ATOM      3  C   UNL     1       0.272  -6.465   3.019  0.00  0.00    +0.292 C 
ATOM      4  O   UNL     1       0.355  -7.547   3.567  0.00  0.00    -0.266 OA
ATOM      5  N   UNL     1       0.189  -5.282   3.655  0.00  0.00    -0.253 N 
ATOM      6  C   UNL     1       0.111  -4.228   2.637  0.00  0.00    +0.150 C 
ATOM      7  O   UNL     1       0.314  -7.232   0.624  0.00  0.00    -0.282 OA
ENDROOT
BRANCH   5   8
ATOM      8  C   UNL     1       0.182  -5.091   5.040  0.00  0.00    +0.041 A 
ATOM      9  C   UNL     1       1.375  -4.902   5.719  0.00  0.00    +0.039 A 
ATOM     10  C   UNL     1       1.363  -4.712   7.102  0.00  0.00    +0.065 A 
ATOM     11  C   UNL     1       0.147  -4.713   7.792  0.00  0.00    +0.015 A 
ATOM     12  C   UNL     1      -1.035  -4.902   7.105  0.00  0.00    +0.006 A 
ATOM     13  C   UNL     1      -1.022  -5.085   5.735  0.00  0.00    -0.029 A 
ATOM     14  C   UNL     1      -2.318  -5.284   4.992  0.00  0.00    +0.045 C 
BRANCH  10  15
ATOM     15  C   UNL     1       2.628  -4.511   7.834  0.00  0.00    +0.387 C 
ATOM     16  O   UNL     1       3.691  -4.511   7.228  0.00  0.00    -0.241 OA
ATOM     17  O   UNL     1       2.615  -4.345   9.045  0.00  0.00    -0.241 OA
ENDBRANCH  10  15
ENDBRANCH   5   8
BRANCH   6  18
ATOM     18  C   UNL     1       1.286  -3.292   2.766  0.00  0.00    -0.022 A 
ATOM     19  C   UNL     1       2.558  -3.802   2.946  0.00  0.00    +0.008 A 
ATOM     20  C   UNL     1       3.635  -2.944   3.063  0.00  0.00    +0.033 A 
ATOM     21  C   UNL     1       3.441  -1.577   3.000  0.00  0.00    +0.126 A 
ATOM     22  C   UNL     1       2.168  -1.067   2.819  0.00  0.00    +0.033 A 
ATOM     23  C   UNL     1       1.091  -1.925   2.697  0.00  0.00    +0.008 A 
BRANCH  21  24
ATOM     24  N   UNL     1       4.594  -0.658   3.127  0.00  0.00    +0.056 N 
ATOM     25  O   UNL     1       5.707  -1.103   3.286  0.00  0.00    -0.126 OA
ATOM     26  O   UNL     1       4.424   0.538   3.072  0.00  0.00    -0.126 OA
ENDBRANCH  21  24
ENDBRANCH   6  18
BRANCH   1  27
ATOM     27  C   UNL     1       0.096  -4.297  -0.021  0.00  0.00    +0.195 C 
ATOM     28  O   UNL     1       1.061  -4.348  -0.760  0.00  0.00    -0.287 OA
BRANCH  27  33
ATOM     29  C   UNL     1      -4.681  -1.571  -1.715  0.00  0.00    +0.044 C 
ATOM     30  C   UNL     1      -3.430  -2.285  -1.272  0.00  0.00    -0.050 A 
ATOM     31  C   UNL     1      -2.310  -2.279  -2.083  0.00  0.00    +0.004 A 
ATOM     32  C   UNL     1      -1.161  -2.930  -1.683  0.00  0.00    +0.012 A 
ATOM     33  C   UNL     1      -1.132  -3.596  -0.456  0.00  0.00    +0.022 A 
ATOM     34  C   UNL     1      -2.266  -3.597   0.358  0.00  0.00    +0.012 A 
ATOM     35  C   UNL     1      -3.406  -2.938  -0.052  0.00  0.00    +0.004 A 
ENDBRANCH  27  33
ENDBRANCH   1  27
TORSDOF 6
