REMARK  Name = ZINC39930662
REMARK  10 active torsions:
REMARK  status: ('A' for Active; 'I' for Inactive)
REMARK    1  A    between atoms: C_1  and  O_2
REMARK    2  A    between atoms: O_2  and  C_3
REMARK    3  A    between atoms: C_9  and  C_13
REMARK    4  A    between atoms: C_13  and  C_15
REMARK    5  A    between atoms: C_13  and  O_28
REMARK    6  A    between atoms: C_24  and  C_26
REMARK    7  A    between atoms: O_28  and  C_29
REMARK    8  A    between atoms: C_29  and  C_31
REMARK    9  A    between atoms: C_33  and  N_40
REMARK   10  A    between atoms: C_35  and  N_37
REMARK                            x       y       z     vdW  Elec       q    Type
REMARK                         _______ _______ _______ _____ _____    ______ ____
ROOT
ATOM      1  C   UNL     1      -1.262  -5.003   0.206  0.00  0.00    +0.194 C 
ENDROOT
BRANCH   1   8
ATOM      2  C   UNL     1      -0.246  -0.864   0.596  0.00  0.00    +0.121 A 
ATOM      3  C   UNL     1      -1.161   0.134   0.245  0.00  0.00    +0.048 A 
ATOM      4  C   UNL     1      -2.395  -0.182  -0.229  0.00  0.00    +0.032 A 
ATOM      5  C   UNL     1      -2.765  -1.531  -0.371  0.00  0.00    +0.072 A 
ATOM      6  C   UNL     1      -1.839  -2.543  -0.015  0.00  0.00    +0.010 A 
ATOM      7  C   UNL     1      -0.570  -2.184   0.466  0.00  0.00    +0.056 A 
ATOM      8  C   UNL     1      -2.213  -3.892  -0.159  0.00  0.00    +0.002 A 
ATOM      9  C   UNL     1      -3.462  -4.167  -0.638  0.00  0.00    +0.027 A 
ATOM     10  C   UNL     1      -4.324  -3.125  -0.970  0.00  0.00    +0.112 A 
ATOM     11  N   UNL     1      -3.972  -1.869  -0.835  0.00  0.00    -0.255 NA
BRANCH   2  13
ATOM     12  C   UNL     1       1.259   0.881   1.181  0.00  0.00    +0.277 C 
ATOM     13  O   UNL     1       0.980  -0.516   1.067  0.00  0.00    -0.495 OA
ENDBRANCH   2  13
ENDBRANCH   1   8
BRANCH   1  14
ATOM     14  C   UNL     1      -1.368  -5.294   1.705  0.00  0.00    -0.022 C 
ATOM     15  C   UNL     1      -0.521  -6.522   2.045  0.00  0.00    -0.008 C 
ATOM     16  C   UNL     1      -1.434  -7.602   2.641  0.00  0.00    -0.009 C 
ATOM     17  C   UNL     1      -2.093  -7.035   3.905  0.00  0.00    -0.015 C 
ATOM     18  C   UNL     1      -2.884  -5.780   3.529  0.00  0.00    -0.078 C 
ATOM     19  N   UNL     1      -2.769  -5.540   2.054  0.00  0.00    +0.385 N 
ATOM     20  C   UNL     1      -3.301  -6.669   1.286  0.00  0.00    -0.070 C 
ATOM     21  C   UNL     1      -2.521  -7.939   1.613  0.00  0.00    -0.003 C 
ATOM     22  H   UNL     1      -3.307  -4.720   1.816  0.00  0.00    -0.081 HD
BRANCH  21  23
ATOM     23  C   UNL     1      -3.456  -8.973   2.186  0.00  0.00    -0.033 C 
ATOM     24  C   UNL     1      -3.597 -10.131   1.590  0.00  0.00    +0.004 C 
ENDBRANCH  21  23
ENDBRANCH   1  14
BRANCH   1  25
ATOM     25  O   UNL     1      -1.597  -6.179  -0.532  0.00  0.00    -0.455 OA
BRANCH  25  26
ATOM     26  C   UNL     1      -0.590  -6.812  -1.164  0.00  0.00    +0.340 C 
ATOM     27  O   UNL     1       0.524  -6.329  -1.168  0.00  0.00    -0.245 OA
BRANCH  26  28
ATOM     28  C   UNL     1      -0.841  -8.095  -1.853  0.00  0.00    +0.063 A 
ATOM     29  C   UNL     1      -2.121  -8.651  -1.855  0.00  0.00    +0.047 A 
ATOM     30  C   UNL     1      -2.348  -9.850  -2.500  0.00  0.00    +0.129 A 
ATOM     31  C   UNL     1      -1.310 -10.500  -3.143  0.00  0.00    +0.065 A 
ATOM     32  C   UNL     1      -0.038  -9.955  -3.144  0.00  0.00    +0.129 A 
ATOM     33  C   UNL     1       0.201  -8.755  -2.508  0.00  0.00    +0.047 A 
BRANCH  32  34
ATOM     34  N   UNL     1       1.066 -10.659  -3.834  0.00  0.00    +0.057 N 
ATOM     35  O   UNL     1       0.856 -11.709  -4.395  0.00  0.00    -0.126 OA
ATOM     36  O   UNL     1       2.178 -10.184  -3.836  0.00  0.00    -0.126 OA
ENDBRANCH  32  34
BRANCH  30  37
ATOM     37  N   UNL     1      -3.705 -10.441  -2.503  0.00  0.00    +0.057 N 
ATOM     38  O   UNL     1      -4.613  -9.874  -1.941  0.00  0.00    -0.126 OA
ATOM     39  O   UNL     1      -3.906 -11.491  -3.068  0.00  0.00    -0.126 OA
ENDBRANCH  30  37
ENDBRANCH  26  28
ENDBRANCH  25  26
ENDBRANCH   1  25
TORSDOF 9
