REMARK  Name = ZINC44021492
REMARK  17 active torsions:
REMARK  status: ('A' for Active; 'I' for Inactive)
REMARK    1  A    between atoms: C_1  and  C_2
REMARK    2  A    between atoms: C_5  and  O_20
REMARK    3  A    between atoms: C_6  and  C_10
REMARK    4  A    between atoms: C_7  and  O_8
REMARK    5  A    between atoms: O_8  and  C_9
REMARK    6  A    between atoms: C_10  and  C_11
REMARK    7  A    between atoms: C_12  and  C_13
REMARK    8  A    between atoms: C_12  and  C_14
REMARK    9  A    between atoms: C_14  and  C_15
REMARK   10  A    between atoms: C_15  and  C_16
REMARK   11  A    between atoms: C_16  and  O_18
REMARK   12  A    between atoms: O_18  and  C_19
REMARK   13  A    between atoms: O_20  and  C_21
REMARK   14  A    between atoms: C_23  and  O_37
REMARK   15  A    between atoms: C_25  and  O_36
REMARK   16  A    between atoms: C_27  and  O_35
REMARK   17  A    between atoms: C_29  and  C_32
REMARK                            x       y       z     vdW  Elec       q    Type
REMARK                         _______ _______ _______ _____ _____    ______ ____
ROOT
ATOM      1  C   UNL     1       0.096   1.266   0.440  0.00  0.00    +0.048 C 
ATOM      2  C   UNL     1       0.031  -0.236   0.334  0.00  0.00    -0.001 A 
ATOM      3  C   UNL     1      -0.086  -0.831  -0.896  0.00  0.00    +0.014 A 
ATOM      4  C   UNL     1      -0.147  -2.227  -1.004  0.00  0.00    +0.108 A 
ATOM      5  C   UNL     1      -0.088  -3.013   0.156  0.00  0.00    +0.145 A 
ATOM      6  C   UNL     1       0.029  -2.402   1.393  0.00  0.00    +0.041 A 
ATOM      7  C   UNL     1       0.095  -1.019   1.484  0.00  0.00    +0.130 A 
ATOM      8  C   UNL     1      -0.269  -2.558  -2.429  0.00  0.00    +0.343 C 
ATOM      9  O   UNL     1      -0.346  -3.685  -2.878  0.00  0.00    -0.245 OA
ATOM     10  O   UNL     1      -0.282  -1.434  -3.166  0.00  0.00    -0.456 OA
ATOM     11  C   UNL     1      -0.173  -0.298  -2.303  0.00  0.00    +0.269 C 
ENDROOT
BRANCH   7  12
ATOM     12  O   UNL     1       0.216  -0.427   2.699  0.00  0.00    -0.494 OA
ATOM     13  C   UNL     1      -0.994  -0.096   3.383  0.00  0.00    +0.277 C 
ENDBRANCH   7  12
BRANCH   6  14
ATOM     14  C   UNL     1       0.093  -3.241   2.643  0.00  0.00    +0.069 C 
BRANCH  14  15
ATOM     15  C   UNL     1       1.531  -3.420   3.055  0.00  0.00    -0.023 C 
ATOM     16  C   UNL     1       1.910  -3.096   4.267  0.00  0.00    -0.076 C 
ATOM     17  C   UNL     1       0.947  -2.407   5.199  0.00  0.00    +0.039 C 
BRANCH  16  18
ATOM     18  C   UNL     1       3.309  -3.412   4.729  0.00  0.00    +0.041 C 
BRANCH  18  19
ATOM     19  C   UNL     1       4.205  -2.190   4.515  0.00  0.00    +0.125 C 
BRANCH  19  20
ATOM     20  C   UNL     1       5.604  -2.506   4.977  0.00  0.00    +0.307 C 
ATOM     21  O   UNL     1       5.859  -3.597   5.430  0.00  0.00    -0.251 OA
BRANCH  20  22
ATOM     22  O   UNL     1       6.568  -1.576   4.884  0.00  0.00    -0.468 OA
ATOM     23  C   UNL     1       7.871  -1.944   5.341  0.00  0.00    +0.280 C 
ENDBRANCH  20  22
ENDBRANCH  19  20
ENDBRANCH  18  19
ENDBRANCH  16  18
ENDBRANCH  14  15
ENDBRANCH   6  14
BRANCH   5  24
ATOM     24  O   UNL     1      -0.147  -4.365   0.067  0.00  0.00    -0.460 OA
BRANCH  24  25
ATOM     25  C   UNL     1       0.988  -5.096   0.537  0.00  0.00    +0.340 C 
ATOM     26  C   UNL     1       0.708  -6.597   0.429  0.00  0.00    +0.214 C 
ATOM     27  C   UNL     1       0.495  -6.965  -1.042  0.00  0.00    +0.180 C 
ATOM     28  C   UNL     1       1.729  -6.545  -1.846  0.00  0.00    +0.186 C 
ATOM     29  C   UNL     1       1.969  -5.046  -1.651  0.00  0.00    +0.266 C 
ATOM     30  O   UNL     1       2.129  -4.767  -0.259  0.00  0.00    -0.322 OA
BRANCH  29  31
ATOM     31  C   UNL     1       3.216  -4.636  -2.392  0.00  0.00    +0.387 C 
ATOM     32  O   UNL     1       3.253  -4.706  -3.609  0.00  0.00    -0.243 OA
ATOM     33  O   UNL     1       4.188  -4.235  -1.774  0.00  0.00    -0.243 OA
ENDBRANCH  29  31
BRANCH  28  34
ATOM     34  O   UNL     1       2.868  -7.276  -1.389  0.00  0.00    -0.386 OA
ATOM     35  H   UNL     1       3.688  -7.060  -1.855  0.00  0.00    +0.210 HD
ENDBRANCH  28  34
BRANCH  27  36
ATOM     36  O   UNL     1       0.304  -8.377  -1.159  0.00  0.00    -0.386 OA
ATOM     37  H   UNL     1       0.162  -8.681  -2.066  0.00  0.00    +0.210 HD
ENDBRANCH  27  36
BRANCH  26  38
ATOM     38  O   UNL     1       1.820  -7.329   0.950  0.00  0.00    -0.383 OA
ATOM     39  H   UNL     1       2.015  -7.141   1.878  0.00  0.00    +0.210 HD
ENDBRANCH  26  38
ENDBRANCH  24  25
ENDBRANCH   5  24
TORSDOF 13
