REMARK  Name = ZINC09429535
REMARK  7 active torsions:
REMARK  status: ('A' for Active; 'I' for Inactive)
REMARK    1  A    between atoms: C_1  and  C_2
REMARK    2  A    between atoms: C_7  and  C_27
REMARK    3  A    between atoms: C_17  and  C_19
REMARK    4  A    between atoms: C_19  and  O_20
REMARK    5  A    between atoms: O_20  and  C_21
REMARK    6  A    between atoms: C_30  and  O_33
REMARK    7  A    between atoms: O_33  and  C_34
REMARK                            x       y       z     vdW  Elec       q    Type
REMARK                         _______ _______ _______ _____ _____    ______ ____
ROOT
ATOM      1  C   UNL     1      -3.268  -1.673   7.737  0.00  0.00    +0.008 C 
ATOM      2  C   UNL     1      -2.475  -0.777   6.783  0.00  0.00    -0.001 C 
ATOM      3  C   UNL     1      -2.237  -1.508   5.463  0.00  0.00    +0.055 C 
ATOM      4  C   UNL     1      -1.464  -0.615   4.507  0.00  0.00    +0.017 C 
ATOM      5  C   UNL     1      -1.629   0.717   4.537  0.00  0.00    +0.037 C 
ATOM      6  C   UNL     1      -0.923   1.723   3.650  0.00  0.00    +0.147 C 
ATOM      7  N   UNL     1      -0.212   1.132   2.537  0.00  0.00    -0.255 N 
ATOM      8  C   UNL     1       0.880   0.292   2.750  0.00  0.00    +0.058 A 
ATOM      9  C   UNL     1       2.159   0.658   2.357  0.00  0.00    +0.025 A 
ATOM     10  C   UNL     1       3.223  -0.183   2.631  0.00  0.00    +0.002 A 
ATOM     11  C   UNL     1       3.018  -1.379   3.296  0.00  0.00    +0.002 A 
ATOM     12  C   UNL     1       1.741  -1.756   3.674  0.00  0.00    +0.025 A 
ATOM     13  C   UNL     1       0.673  -0.927   3.377  0.00  0.00    +0.053 A 
ATOM     14  N   UNL     1      -0.643  -1.280   3.652  0.00  0.00    -0.316 N 
ATOM     15  C   UNL     1      -0.608   1.401   1.277  0.00  0.00    +0.258 C 
ATOM     16  O   UNL     1      -1.557   2.130   1.082  0.00  0.00    -0.271 OA
ATOM     17  C   UNL     1      -2.516   1.305   5.470  0.00  0.00    +0.163 C 
ATOM     18  O   UNL     1      -2.666   2.511   5.457  0.00  0.00    -0.292 OA
ATOM     19  C   UNL     1      -3.277   0.493   6.474  0.00  0.00    +0.083 C 
ATOM     20  H   UNL     1      -1.003  -2.058   3.200  0.00  0.00    +0.152 HD
ENDROOT
BRANCH   6  21
ATOM     21  C   UNL     1       0.059   2.499   4.488  0.00  0.00    -0.022 A 
ATOM     22  C   UNL     1       1.141   1.854   5.058  0.00  0.00    +0.009 A 
ATOM     23  C   UNL     1       2.047   2.564   5.822  0.00  0.00    +0.046 A 
ATOM     24  C   UNL     1       1.864   3.924   6.026  0.00  0.00    +0.120 A 
ATOM     25  C   UNL     1       0.775   4.568   5.458  0.00  0.00    +0.046 A 
ATOM     26  C   UNL     1      -0.125   3.854   4.690  0.00  0.00    +0.009 A 
BRANCH  24  27
ATOM     27  O   UNL     1       2.751   4.624   6.781  0.00  0.00    -0.495 OA
ATOM     28  C   UNL     1       3.849   3.896   7.335  0.00  0.00    +0.277 C 
ENDBRANCH  24  27
ENDBRANCH   6  21
BRANCH  15  29
ATOM     29  C   UNL     1       0.130   0.795   0.110  0.00  0.00    +0.325 C 
BRANCH  29  30
ATOM     30  O   UNL     1      -0.474   1.227  -1.111  0.00  0.00    -0.483 OA
BRANCH  30  31
ATOM     31  C   UNL     1       0.074   0.768  -2.266  0.00  0.00    +0.121 A 
ATOM     32  C   UNL     1       1.175  -0.076  -2.226  0.00  0.00    +0.045 A 
ATOM     33  C   UNL     1       1.727  -0.545  -3.402  0.00  0.00    +0.004 A 
ATOM     34  C   UNL     1       1.190  -0.166  -4.619  0.00  0.00    +0.000 A 
ATOM     35  C   UNL     1       0.097   0.679  -4.662  0.00  0.00    +0.004 A 
ATOM     36  C   UNL     1      -0.462   1.147  -3.488  0.00  0.00    +0.045 A 
ENDBRANCH  30  31
ENDBRANCH  29  30
ENDBRANCH  15  29
TORSDOF 5
