REMARK  Name = ZINC58775453
REMARK  7 active torsions:
REMARK  status: ('A' for Active; 'I' for Inactive)
REMARK    1  A    between atoms: N_13  and  C_14
REMARK    2  A    between atoms: C_14  and  C_15
REMARK    3  A    between atoms: C_15  and  C_16
REMARK    4  A    between atoms: N_18  and  C_19
REMARK    5  A    between atoms: C_19  and  C_20
REMARK    6  A    between atoms: C_20  and  C_22
REMARK    7  A    between atoms: C_20  and  N_29
REMARK                            x       y       z     vdW  Elec       q    Type
REMARK                         _______ _______ _______ _____ _____    ______ ____
ROOT
ATOM      1  C   UNL     1       6.553   1.187   1.429  0.00  0.00    +0.215 C 
ATOM      2  O   UNL     1       6.965   1.623   0.375  0.00  0.00    -0.276 OA
ATOM      3  N   UNL     1       7.206   1.466   2.575  0.00  0.00    -0.316 N 
ATOM      4  H   UNL     1       6.876   1.118   3.418  0.00  0.00    +0.149 HD
ENDROOT
BRANCH   1   5
ATOM      5  C   UNL     1       5.311   0.334   1.458  0.00  0.00    +0.117 C 
BRANCH   5   6
ATOM      6  C   UNL     1       4.770   0.172   0.036  0.00  0.00    +0.136 C 
BRANCH   6  19
ATOM      7  C   UNL     1      -0.195   1.069   0.534  0.00  0.00    +0.001 A 
ATOM      8  C   UNL     1       0.936   1.871   0.510  0.00  0.00    +0.002 A 
ATOM      9  C   UNL     1       2.190   1.315   0.355  0.00  0.00    +0.027 A 
ATOM     10  C   UNL     1       2.322  -0.059   0.222  0.00  0.00    +0.059 A 
ATOM     11  C   UNL     1       1.176  -0.873   0.246  0.00  0.00    +0.063 A 
ATOM     12  C   UNL     1      -0.084  -0.299   0.403  0.00  0.00    +0.015 A 
ATOM     13  C   UNL     1       1.352  -2.329   0.102  0.00  0.00    +0.262 A 
ATOM     14  O   UNL     1       0.394  -3.078   0.116  0.00  0.00    -0.267 OA
ATOM     15  N   UNL     1       2.606  -2.810  -0.045  0.00  0.00    -0.274 N 
ATOM     16  H   UNL     1       2.740  -3.766  -0.142  0.00  0.00    +0.173 HD
ATOM     17  C   UNL     1       3.669  -1.992  -0.062  0.00  0.00    +0.330 A 
ATOM     18  O   UNL     1       4.775  -2.477  -0.198  0.00  0.00    -0.246 OA
ATOM     19  N   UNL     1       3.563  -0.658   0.065  0.00  0.00    -0.293 N 
ENDBRANCH   6  19
ENDBRANCH   5   6
ENDBRANCH   1   5
BRANCH   3  20
ATOM     20  C   UNL     1       8.413   2.296   2.547  0.00  0.00    +0.093 C 
BRANCH  20  21
ATOM     21  C   UNL     1       8.893   2.546   3.978  0.00  0.00    -0.020 C 
BRANCH  21  22
ATOM     22  C   UNL     1       9.333   1.244   4.596  0.00  0.00    -0.058 A 
ATOM     23  C   UNL     1      10.585   0.731   4.309  0.00  0.00    +0.002 A 
ATOM     24  C   UNL     1      10.989  -0.463   4.875  0.00  0.00    +0.002 A 
ATOM     25  C   UNL     1      10.143  -1.145   5.728  0.00  0.00    +0.020 A 
ATOM     26  C   UNL     1       8.890  -0.633   6.016  0.00  0.00    +0.041 A 
ATOM     27  C   UNL     1       8.488   0.566   5.454  0.00  0.00    +0.022 A 
ATOM     28 CL   UNL     1       7.827  -1.489   7.088  0.00  0.00    -0.084 Cl
ENDBRANCH  21  22
BRANCH  21  29
ATOM     29  N   UNL     1      10.022   3.486   3.958  0.00  0.00    +0.385 N 
ATOM     30  C   UNL     1       9.586   4.799   3.419  0.00  0.00    -0.078 C 
ATOM     31  C   UNL     1      10.650   5.780   3.973  0.00  0.00    -0.020 C 
ATOM     32  C   UNL     1      10.928   5.225   5.389  0.00  0.00    -0.020 C 
ATOM     33  C   UNL     1      10.490   3.750   5.336  0.00  0.00    -0.078 C 
ATOM     34  H   UNL     1      10.776   3.112   3.401  0.00  0.00    -0.081 HD
ENDBRANCH  21  29
ENDBRANCH  20  21
ENDBRANCH   3  20
TORSDOF 7
