REMARK  Name = ZINC03640721
REMARK  10 active torsions:
REMARK  status: ('A' for Active; 'I' for Inactive)
REMARK    1  A    between atoms: C_1  and  O_2
REMARK    2  A    between atoms: O_2  and  C_3
REMARK    3  A    between atoms: C_5  and  C_13
REMARK    4  A    between atoms: C_6  and  O_11
REMARK    5  A    between atoms: C_8  and  O_9
REMARK    6  A    between atoms: O_9  and  C_10
REMARK    7  A    between atoms: O_11  and  C_12
REMARK    8  A    between atoms: C_25  and  S_28
REMARK    9  A    between atoms: S_28  and  C_29
REMARK   10  A    between atoms: C_29  and  C_30
REMARK                            x       y       z     vdW  Elec       q    Type
REMARK                         _______ _______ _______ _____ _____    ______ ____
ROOT
ATOM      1  C   UNL     1      -1.494  -1.515   1.241  0.00  0.00    +0.297 C 
ATOM      2  N   UNL     1      -1.061  -0.738   0.084  0.00  0.00    -0.305 N 
ATOM      3  C   UNL     1       0.168  -0.072   0.140  0.00  0.00    +0.039 A 
ATOM      4  C   UNL     1       0.239   1.307   0.192  0.00  0.00    +0.024 A 
ATOM      5  C   UNL     1       1.470   1.931   0.275  0.00  0.00    +0.002 A 
ATOM      6  C   UNL     1       2.634   1.182   0.307  0.00  0.00    +0.001 A 
ATOM      7  C   UNL     1       2.580  -0.197   0.251  0.00  0.00    +0.012 A 
ATOM      8  C   UNL     1       1.350  -0.837   0.161  0.00  0.00    +0.028 A 
ATOM      9  C   UNL     1       1.248  -2.308   0.074  0.00  0.00    +0.156 A 
ATOM     10  C   UNL     1       0.330  -2.994   0.900  0.00  0.00    +0.248 A 
ATOM     11  N   UNL     1       0.246  -4.310   0.800  0.00  0.00    -0.184 NA
ATOM     12  C   UNL     1       1.028  -4.948  -0.066  0.00  0.00    +0.213 A 
ATOM     13  N   UNL     1       1.888  -4.285  -0.829  0.00  0.00    -0.122 NA
ATOM     14  N   UNL     1       2.000  -3.003  -0.766  0.00  0.00    -0.141 NA
ATOM     15  O   UNL     1      -0.435  -2.302   1.776  0.00  0.00    -0.449 OA
ATOM     16  H   UNL     1      -1.615  -0.684  -0.710  0.00  0.00    +0.150 HD
ENDROOT
BRANCH   1  19
ATOM     17  C   UNL     1      -1.604   0.681   4.314  0.00  0.00    +0.162 A 
ATOM     18  C   UNL     1      -1.150  -0.186   3.334  0.00  0.00    +0.062 A 
ATOM     19  C   UNL     1      -1.990  -0.571   2.306  0.00  0.00    +0.056 A 
ATOM     20  C   UNL     1      -3.288  -0.086   2.251  0.00  0.00    +0.132 A 
ATOM     21  C   UNL     1      -3.748   0.779   3.232  0.00  0.00    +0.095 A 
ATOM     22  C   UNL     1      -2.907   1.166   4.263  0.00  0.00    +0.165 A 
BRANCH  17  24
ATOM     23  C   UNL     1       0.548   0.523   5.314  0.00  0.00    +0.277 C 
ATOM     24  O   UNL     1      -0.776   1.059   5.325  0.00  0.00    -0.491 OA
ENDBRANCH  17  24
BRANCH  22  25
ATOM     25  O   UNL     1      -3.355   2.018   5.223  0.00  0.00    -0.491 OA
ATOM     26  C   UNL     1      -4.704   2.475   5.108  0.00  0.00    +0.277 C 
ENDBRANCH  22  25
BRANCH  20  27
ATOM     27  O   UNL     1      -4.111  -0.461   1.236  0.00  0.00    -0.495 OA
ATOM     28  C   UNL     1      -5.435   0.077   1.241  0.00  0.00    +0.277 C 
ENDBRANCH  20  27
ENDBRANCH   1  19
BRANCH  12  29
ATOM     29  S   UNL     1       0.920  -6.701  -0.203  0.00  0.00    -0.080 S 
BRANCH  29  30
ATOM     30  C   UNL     1       2.166  -6.994  -1.483  0.00  0.00    +0.112 C 
BRANCH  30  31
ATOM     31  C   UNL     1       2.251  -8.470  -1.774  0.00  0.00    -0.037 A 
ATOM     32  C   UNL     1       3.134  -9.264  -1.066  0.00  0.00    +0.004 A 
ATOM     33  C   UNL     1       3.208 -10.619  -1.328  0.00  0.00    +0.000 A 
ATOM     34  C   UNL     1       2.407 -11.178  -2.307  0.00  0.00    +0.000 A 
ATOM     35  C   UNL     1       1.528 -10.383  -3.018  0.00  0.00    +0.000 A 
ATOM     36  C   UNL     1       1.450  -9.029  -2.752  0.00  0.00    +0.004 A 
ENDBRANCH  30  31
ENDBRANCH  29  30
ENDBRANCH  12  29
TORSDOF 7
