REMARK  Name = ZINC15906011
REMARK  10 active torsions:
REMARK  status: ('A' for Active; 'I' for Inactive)
REMARK    1  A    between atoms: C_4  and  C_7
REMARK    2  A    between atoms: P_9  and  N_20
REMARK    3  A    between atoms: C_12  and  C_14
REMARK    4  A    between atoms: N_20  and  C_21
REMARK    5  A    between atoms: C_21  and  C_23
REMARK    6  A    between atoms: C_21  and  C_25
REMARK    7  A    between atoms: C_23  and  O_24
REMARK    8  A    between atoms: C_25  and  C_27
REMARK    9  A    between atoms: C_25  and  O_36
REMARK   10  A    between atoms: C_30  and  N_33
REMARK                            x       y       z     vdW  Elec       q    Type
REMARK                         _______ _______ _______ _____ _____    ______ ____
ROOT
ATOM      1  C   UNL     1       1.020   5.611  -4.362  0.00  0.00    +0.025 C 
ATOM      2  C   UNL     1       0.987   4.467  -3.716  0.00  0.00    +0.075 C 
ATOM      3  P   UNL     1       1.561   4.326  -2.002  0.00  0.00    +0.194 P 
ATOM      4  O   UNL     1       2.325   3.070  -1.836  0.00  0.00    -0.296 OA
ATOM      5  C   UNL     1       2.626   5.745  -1.632  0.00  0.00    +0.075 C 
ATOM      6  C   UNL     1       2.596   6.838  -2.359  0.00  0.00    +0.025 C 
ATOM      7  S   UNL     1       1.573   7.141  -3.737  0.00  0.00    -0.088 S 
ENDROOT
BRANCH   1  11
ATOM      8  C   UNL     1      -0.358   5.574  -8.382  0.00  0.00    +0.000 A 
ATOM      9  C   UNL     1       0.508   4.590  -7.942  0.00  0.00    +0.001 A 
ATOM     10  C   UNL     1       0.959   4.596  -6.638  0.00  0.00    +0.009 A 
ATOM     11  C   UNL     1       0.540   5.598  -5.763  0.00  0.00    -0.011 A 
ATOM     12  C   UNL     1      -0.338   6.584  -6.211  0.00  0.00    +0.009 A 
ATOM     13  C   UNL     1      -0.777   6.571  -7.519  0.00  0.00    +0.001 A 
ENDBRANCH   1  11
BRANCH   6  14
ATOM     14  C   UNL     1       3.524   7.924  -1.968  0.00  0.00    -0.011 A 
ATOM     15  C   UNL     1       3.065   9.238  -1.873  0.00  0.00    +0.009 A 
ATOM     16  C   UNL     1       3.933  10.244  -1.502  0.00  0.00    +0.001 A 
ATOM     17  C   UNL     1       5.260   9.954  -1.236  0.00  0.00    +0.000 A 
ATOM     18  C   UNL     1       5.722   8.654  -1.334  0.00  0.00    +0.001 A 
ATOM     19  C   UNL     1       4.862   7.638  -1.698  0.00  0.00    +0.009 A 
ENDBRANCH   6  14
BRANCH   3  20
ATOM     20  N   UNL     1       0.238   4.325  -0.962  0.00  0.00    -0.252 NA
ATOM     21  H   UNL     1      -0.410   3.590  -1.201  0.00  0.00    +0.130 HD
BRANCH  20  22
ATOM     22  C   UNL     1       0.669   4.212   0.438  0.00  0.00    +0.119 C 
BRANCH  22  23
ATOM     23  C   UNL     1       0.626   2.744   0.867  0.00  0.00    +0.177 C 
BRANCH  23  24
ATOM     24  O   UNL     1      -0.724   2.278   0.837  0.00  0.00    -0.393 OA
ATOM     25  H   UNL     1      -0.827   1.353   1.098  0.00  0.00    +0.209 HD
ENDBRANCH  23  24
ENDBRANCH  22  23
BRANCH  22  26
ATOM     26  C   UNL     1      -0.267   5.031   1.328  0.00  0.00    +0.164 C 
BRANCH  26  27
ATOM     27  C   UNL     1      -0.279   6.464   0.860  0.00  0.00    -0.017 A 
ATOM     28  C   UNL     1       0.746   7.318   1.220  0.00  0.00    +0.008 A 
ATOM     29  C   UNL     1       0.737   8.630   0.786  0.00  0.00    +0.033 A 
ATOM     30  C   UNL     1      -0.303   9.092   0.001  0.00  0.00    +0.126 A 
ATOM     31  C   UNL     1      -1.331   8.239  -0.355  0.00  0.00    +0.033 A 
ATOM     32  C   UNL     1      -1.319   6.925   0.074  0.00  0.00    +0.008 A 
BRANCH  30  33
ATOM     33  N   UNL     1      -0.315  10.499  -0.458  0.00  0.00    +0.056 N 
ATOM     34  O   UNL     1      -1.232  10.905  -1.150  0.00  0.00    -0.126 OA
ATOM     35  O   UNL     1       0.591  11.250  -0.144  0.00  0.00    -0.126 OA
ENDBRANCH  30  33
ENDBRANCH  26  27
BRANCH  26  36
ATOM     36  O   UNL     1       0.192   4.976   2.680  0.00  0.00    -0.386 OA
ATOM     37  H   UNL     1       1.081   5.335   2.809  0.00  0.00    +0.210 HD
ENDBRANCH  26  36
ENDBRANCH  22  26
ENDBRANCH  20  22
ENDBRANCH   3  20
TORSDOF 10
