REMARK  Name = ZINC36848611
REMARK  6 active torsions:
REMARK  status: ('A' for Active; 'I' for Inactive)
REMARK    1  A    between atoms: C_1  and  C_2
REMARK    2  A    between atoms: C_2  and  C_22
REMARK    3  A    between atoms: N_5  and  C_9
REMARK    4  A    between atoms: C_9  and  C_10
REMARK    5  A    between atoms: C_25  and  O_28
REMARK    6  A    between atoms: O_28  and  C_29
REMARK                            x       y       z     vdW  Elec       q    Type
REMARK                         _______ _______ _______ _____ _____    ______ ____
ROOT
ATOM      1  C   UNL     1      -0.037   1.525  -0.031  0.00  0.00    +0.047 C 
ATOM      2  C   UNL     1      -0.005  -0.005  -0.015  0.00  0.00    +0.135 C 
ATOM      3  C   UNL     1      -1.407  -0.567   0.111  0.00  0.00    +0.251 C 
ATOM      4  O   UNL     1      -2.327  -0.421  -0.666  0.00  0.00    -0.272 OA
ATOM      5  N   UNL     1      -1.419  -1.263   1.265  0.00  0.00    -0.215 N 
ATOM      6  C   UNL     1      -0.231  -1.219   1.880  0.00  0.00    +0.310 C 
ATOM      7  O   UNL     1       0.003  -1.772   2.936  0.00  0.00    -0.252 OA
ATOM      8  N   UNL     1       0.674  -0.496   1.197  0.00  0.00    -0.281 N 
ATOM      9  H   UNL     1       1.595  -0.330   1.453  0.00  0.00    +0.152 HD
ENDROOT
BRANCH   2  10
ATOM     10  C   UNL     1       0.673  -0.533  -1.253  0.00  0.00    -0.015 A 
ATOM     11  C   UNL     1      -0.074  -0.812  -2.382  0.00  0.00    +0.010 A 
ATOM     12  C   UNL     1       0.544  -1.296  -3.519  0.00  0.00    +0.046 A 
ATOM     13  C   UNL     1       1.916  -1.503  -3.526  0.00  0.00    +0.127 A 
ATOM     14  C   UNL     1       2.663  -1.222  -2.391  0.00  0.00    +0.046 A 
ATOM     15  C   UNL     1       2.041  -0.733  -1.259  0.00  0.00    +0.010 A 
BRANCH  13  16
ATOM     16  O   UNL     1       2.527  -1.980  -4.642  0.00  0.00    -0.434 OA
BRANCH  16  17
ATOM     17  C   UNL     1       3.942  -2.168  -4.577  0.00  0.00    +0.541 C 
ATOM     18  F   UNL     1       4.563  -0.945  -4.303  0.00  0.00    -0.166 F 
ATOM     19  F   UNL     1       4.245  -3.083  -3.563  0.00  0.00    -0.166 F 
ENDBRANCH  16  17
ENDBRANCH  13  16
ENDBRANCH   2  10
BRANCH   5  20
ATOM     20  C   UNL     1      -2.588  -1.978   1.783  0.00  0.00    +0.214 C 
BRANCH  20  21
ATOM     21  C   UNL     1      -2.585  -3.391   1.260  0.00  0.00    +0.238 C 
ATOM     22  O   UNL     1      -1.745  -3.739   0.456  0.00  0.00    -0.274 OA
ATOM     23  N   UNL     1      -3.514  -4.269   1.685  0.00  0.00    -0.270 N 
ATOM     24  C   UNL     1      -4.588  -3.840   2.591  0.00  0.00    +0.114 C 
ATOM     25  C   UNL     1      -4.726  -4.902   3.690  0.00  0.00    +0.024 C 
ATOM     26  C   UNL     1      -5.154  -6.222   3.050  0.00  0.00    +0.038 C 
ATOM     27  C   UNL     1      -4.243  -6.571   1.903  0.00  0.00    -0.026 A 
ATOM     28  C   UNL     1      -3.477  -5.606   1.265  0.00  0.00    +0.039 A 
ATOM     29  C   UNL     1      -2.654  -5.959   0.202  0.00  0.00    +0.024 A 
ATOM     30  C   UNL     1      -2.600  -7.271  -0.224  0.00  0.00    +0.002 A 
ATOM     31  C   UNL     1      -3.366  -8.233   0.408  0.00  0.00    +0.000 A 
ATOM     32  C   UNL     1      -4.179  -7.886   1.474  0.00  0.00    +0.005 A 
ENDBRANCH  20  21
ENDBRANCH   5  20
TORSDOF 5
