REMARK  Name = ZINC35730288
REMARK  12 active torsions:
REMARK  status: ('A' for Active; 'I' for Inactive)
REMARK    1  A    between atoms: C_6  and  N_7
REMARK    2  A    between atoms: N_7  and  C_8
REMARK    3  A    between atoms: C_8  and  C_9
REMARK    4  A    between atoms: C_9  and  C_10
REMARK    5  A    between atoms: C_10  and  N_11
REMARK    6  A    between atoms: C_12  and  C_14
REMARK    7  A    between atoms: C_14  and  C_15
REMARK    8  A    between atoms: C_15  and  C_16
REMARK    9  A    between atoms: C_16  and  C_17
REMARK   10  A    between atoms: C_17  and  C_18
REMARK   11  A    between atoms: C_18  and  N_19
REMARK   12  A    between atoms: N_22  and  C_23
REMARK                            x       y       z     vdW  Elec       q    Type
REMARK                         _______ _______ _______ _____ _____    ______ ____
ROOT
ATOM      1  N   UNL     1      -1.288  -0.849  -0.429  0.00  0.00    -0.255 N 
ATOM      2  C   UNL     1      -2.422  -0.147  -0.235  0.00  0.00    +0.311 C 
ATOM      3  O   UNL     1      -2.451   1.042  -0.486  0.00  0.00    -0.252 OA
ATOM      4  N   UNL     1      -3.524  -0.764   0.236  0.00  0.00    -0.269 N 
ATOM      5  H   UNL     1      -3.467  -1.675   0.565  0.00  0.00    +0.156 HD
ENDROOT
BRANCH   4   6
ATOM      6  C   UNL     1      -4.750  -0.090   0.252  0.00  0.00    +0.036 A 
ATOM      7  C   UNL     1      -4.781   1.299   0.255  0.00  0.00    +0.025 A 
ATOM      8  C   UNL     1      -5.992   1.962   0.270  0.00  0.00    +0.023 A 
ATOM      9  C   UNL     1      -7.175   1.245   0.283  0.00  0.00    +0.059 A 
ATOM     10  C   UNL     1      -7.148  -0.139   0.281  0.00  0.00    +0.061 A 
ATOM     11  C   UNL     1      -5.938  -0.808   0.260  0.00  0.00    +0.044 A 
ATOM     12 CL   UNL     1      -8.635  -1.036   0.297  0.00  0.00    -0.082 Cl
ATOM     13 CL   UNL     1      -8.696   2.083   0.303  0.00  0.00    -0.082 Cl
ENDBRANCH   4   6
BRANCH   1  19
ATOM     14  C   UNL     1       0.456   0.736   0.103  0.00  0.00    +0.026 A 
ATOM     15  C   UNL     1       1.624   1.389  -0.236  0.00  0.00    +0.040 A 
ATOM     16  C   UNL     1       2.238   1.126  -1.449  0.00  0.00    +0.124 A 
ATOM     17  C   UNL     1       1.682   0.207  -2.324  0.00  0.00    +0.040 A 
ATOM     18  C   UNL     1       0.514  -0.448  -1.988  0.00  0.00    +0.026 A 
ATOM     19  C   UNL     1      -0.103  -0.185  -0.772  0.00  0.00    +0.038 A 
ATOM     20  F   UNL     1       3.381   1.766  -1.780  0.00  0.00    -0.205 F 
ENDBRANCH   1  19
BRANCH   1  21
ATOM     21  C   UNL     1      -1.294  -2.307  -0.281  0.00  0.00    +0.117 C 
BRANCH  21  22
ATOM     22  C   UNL     1      -0.970  -2.674   1.168  0.00  0.00    +0.038 C 
BRANCH  22  23
ATOM     23  C   UNL     1      -0.977  -4.196   1.323  0.00  0.00    +0.105 C 
BRANCH  23  24
ATOM     24  N   UNL     1      -0.667  -4.547   2.711  0.00  0.00    -0.315 N 
ATOM     25  C   UNL     1      -0.617  -5.841   3.083  0.00  0.00    +0.213 C 
ATOM     26  O   UNL     1      -0.829  -6.715   2.270  0.00  0.00    -0.276 OA
ATOM     27  H   UNL     1      -0.497  -3.848   3.362  0.00  0.00    +0.149 HD
BRANCH  25  28
ATOM     28  C   UNL     1      -0.298  -6.203   4.511  0.00  0.00    +0.096 C 
BRANCH  28  29
ATOM     29  C   UNL     1      -0.304  -7.725   4.666  0.00  0.00    +0.009 C 
BRANCH  29  30
ATOM     30  C   UNL     1       0.019  -8.092   6.115  0.00  0.00    -0.001 C 
BRANCH  30  31
ATOM     31  C   UNL     1       0.013  -9.614   6.270  0.00  0.00    -0.020 C 
BRANCH  31  32
ATOM     32  C   UNL     1       0.337  -9.981   7.720  0.00  0.00    -0.086 C 
BRANCH  32  33
ATOM     33  N   UNL     1       0.330 -11.442   7.868  0.00  0.00    +0.378 N 
ATOM     34  H   UNL     1       0.544 -11.684   8.824  0.00  0.00    -0.090 HD
ATOM     35  H   UNL     1      -0.581 -11.801   7.626  0.00  0.00    -0.090 HD
ATOM     36  H   UNL     1       1.024 -11.846   7.256  0.00  0.00    -0.090 HD
ENDBRANCH  32  33
ENDBRANCH  31  32
ENDBRANCH  30  31
ENDBRANCH  29  30
ENDBRANCH  28  29
ENDBRANCH  25  28
ENDBRANCH  23  24
ENDBRANCH  22  23
ENDBRANCH  21  22
ENDBRANCH   1  21
TORSDOF 12
