REMARK  Name = ZINC41586256
REMARK  8 active torsions:
REMARK  status: ('A' for Active; 'I' for Inactive)
REMARK    1  A    between atoms: C_1  and  C_2
REMARK    2  A    between atoms: C_2  and  O_3
REMARK    3  A    between atoms: O_3  and  C_4
REMARK    4  A    between atoms: C_4  and  C_6
REMARK    5  A    between atoms: N_9  and  C_12
REMARK    6  A    between atoms: C_12  and  C_13
REMARK    7  A    between atoms: C_14  and  O_35
REMARK    8  A    between atoms: C_21  and  C_22
REMARK                            x       y       z     vdW  Elec       q    Type
REMARK                         _______ _______ _______ _____ _____    ______ ____
ROOT
ATOM      1  C   UNL     1      -6.051  -6.230  -1.552  0.00  0.00    +0.020 A 
ATOM      2  C   UNL     1      -6.235  -6.779  -2.811  0.00  0.00    +0.122 A 
ATOM      3  C   UNL     1      -6.478  -8.142  -2.960  0.00  0.00    +0.046 A 
ATOM      4  C   UNL     1      -6.536  -8.953  -1.862  0.00  0.00    +0.019 A 
ATOM      5  C   UNL     1      -6.352  -8.415  -0.589  0.00  0.00    +0.068 A 
ATOM      6  C   UNL     1      -6.102  -7.042  -0.425  0.00  0.00    +0.144 A 
ATOM      7  O   UNL     1      -5.953  -6.760   0.887  0.00  0.00    -0.451 OA
ATOM      8  C   UNL     1      -6.081  -7.865   1.657  0.00  0.00    +0.176 C 
ATOM      9  C   UNL     1      -5.985  -7.915   3.011  0.00  0.00    +0.061 C 
ATOM     10  C   UNL     1      -6.353  -9.000   0.764  0.00  0.00    +0.231 C 
ATOM     11  O   UNL     1      -6.530 -10.166   1.072  0.00  0.00    -0.283 OA
ENDROOT
BRANCH   9  12
ATOM     12  C   UNL     1      -5.978  -9.211   3.699  0.00  0.00    +0.022 A 
ATOM     13  C   UNL     1      -5.241 -10.281   3.178  0.00  0.00    +0.031 A 
ATOM     14  C   UNL     1      -5.242 -11.496   3.829  0.00  0.00    +0.042 A 
ATOM     15  C   UNL     1      -5.970 -11.663   4.997  0.00  0.00    +0.029 A 
ATOM     16  C   UNL     1      -6.703 -10.615   5.523  0.00  0.00    +0.022 A 
ATOM     17  C   UNL     1      -6.707  -9.384   4.888  0.00  0.00    +0.136 A 
ATOM     18  O   UNL     1      -7.409  -8.343   5.403  0.00  0.00    -0.465 OA
ATOM     19  C   UNL     1      -8.403  -8.653   6.383  0.00  0.00    +0.395 C 
ATOM     20  O   UNL     1      -7.829  -9.543   7.349  0.00  0.00    -0.339 OA
ATOM     21  C   UNL     1      -7.492 -10.821   6.792  0.00  0.00    +0.202 C 
ATOM     22 CL   UNL     1      -4.326 -12.822   3.185  0.00  0.00    -0.084 Cl
ENDBRANCH   9  12
BRANCH   2  23
ATOM     23  O   UNL     1      -6.179  -5.981  -3.907  0.00  0.00    -0.506 OA
ATOM     24  H   UNL     1      -5.295  -5.898  -4.288  0.00  0.00    +0.292 HD
ENDBRANCH   2  23
BRANCH   1  25
ATOM     25  C   UNL     1      -5.789  -4.753  -1.405  0.00  0.00    -0.036 C 
BRANCH  25  29
ATOM     26  C   UNL     1      -1.852  -3.456  -0.418  0.00  0.00    +0.094 C 
ATOM     27  C   UNL     1      -2.595  -2.791  -1.580  0.00  0.00    -0.004 C 
ATOM     28  C   UNL     1      -4.095  -3.058  -1.439  0.00  0.00    -0.078 C 
ATOM     29  N   UNL     1      -4.343  -4.505  -1.462  0.00  0.00    +0.383 N 
ATOM     30  C   UNL     1      -3.692  -5.139  -0.309  0.00  0.00    -0.078 C 
ATOM     31  C   UNL     1      -2.177  -4.952  -0.407  0.00  0.00    -0.004 C 
ATOM     32  H   UNL     1      -3.970  -4.895  -2.314  0.00  0.00    -0.081 HD
BRANCH  26  33
ATOM     33  C   UNL     1      -0.368  -3.263  -0.593  0.00  0.00    +0.310 C 
ATOM     34  O   UNL     1       0.358  -4.224  -0.698  0.00  0.00    -0.251 OA
BRANCH  33  35
ATOM     35  O   UNL     1       0.148  -2.025  -0.632  0.00  0.00    -0.465 OA
BRANCH  35  37
ATOM     36  C   UNL     1       1.963  -0.440  -0.820  0.00  0.00    +0.048 C 
ATOM     37  C   UNL     1       1.563  -1.917  -0.800  0.00  0.00    +0.229 C 
ENDBRANCH  35  37
ENDBRANCH  33  35
ENDBRANCH  26  33
ENDBRANCH  25  29
ENDBRANCH   1  25
TORSDOF 7
