REMARK  Name = ZINC01341720
REMARK  4 active torsions:
REMARK  status: ('A' for Active; 'I' for Inactive)
REMARK    1  A    between atoms: C_3  and  C_8
REMARK    2  A    between atoms: C_14  and  N_17
REMARK    3  A    between atoms: N_17  and  C_18
REMARK    4  A    between atoms: C_18  and  C_19
REMARK                            x       y       z     vdW  Elec       q    Type
REMARK                         _______ _______ _______ _____ _____    ______ ____
ROOT
ATOM      1  C   UNL     1       5.438  -0.479   1.778  0.00  0.00    +0.095 A 
ATOM      2  C   UNL     1       6.415  -0.997   0.924  0.00  0.00    +0.078 A 
ATOM      3  C   UNL     1       5.996  -0.771  -0.378  0.00  0.00    +0.158 A 
ATOM      4  N   UNL     1       6.541  -1.056  -1.567  0.00  0.00    -0.232 NA
ATOM      5  C   UNL     1       5.939  -0.734  -2.700  0.00  0.00    +0.050 A 
ATOM      6  C   UNL     1       4.708  -0.091  -2.671  0.00  0.00    +0.014 A 
ATOM      7  C   UNL     1       4.139   0.217  -1.459  0.00  0.00    +0.128 A 
ATOM      8  N   UNL     1       4.787  -0.128  -0.306  0.00  0.00    -0.200 N 
ATOM      9  N   UNL     1       4.468   0.039   1.047  0.00  0.00    -0.163 NA
ATOM     10  C   UNL     1       3.966   0.296  -3.922  0.00  0.00    +0.040 C 
ATOM     11  C   UNL     1       4.904   0.285  -5.127  0.00  0.00    +0.005 C 
ATOM     12  C   UNL     1       5.644  -1.057  -5.154  0.00  0.00    +0.006 C 
ATOM     13  C   UNL     1       6.632  -1.089  -3.990  0.00  0.00    +0.056 C 
ENDROOT
BRANCH   1  16
ATOM     14  C   UNL     1       4.484   0.016   5.382  0.00  0.00    +0.002 A 
ATOM     15  C   UNL     1       4.439   0.045   4.003  0.00  0.00    +0.010 A 
ATOM     16  C   UNL     1       5.482  -0.508   3.262  0.00  0.00    +0.004 A 
ATOM     17  C   UNL     1       6.563  -1.092   3.918  0.00  0.00    +0.030 A 
ATOM     18  C   UNL     1       6.601  -1.112   5.299  0.00  0.00    +0.042 A 
ATOM     19  C   UNL     1       5.562  -0.561   6.029  0.00  0.00    +0.020 A 
ATOM     20 CL   UNL     1       7.950  -1.834   6.119  0.00  0.00    -0.084 Cl
ENDBRANCH   1  16
BRANCH   7  21
ATOM     21  N   UNL     1       2.922   0.864  -1.407  0.00  0.00    -0.325 N 
ATOM     22  H   UNL     1       2.219   0.354  -1.919  0.00  0.00    +0.148 HD
BRANCH  21  23
ATOM     23  C   UNL     1       2.504   1.086  -0.017  0.00  0.00    +0.138 C 
BRANCH  23  24
ATOM     24  C   UNL     1       1.173   1.794   0.001  0.00  0.00    -0.028 A 
ATOM     25  C   UNL     1      -0.013   1.076   0.008  0.00  0.00    +0.025 A 
ATOM     26  C   UNL     1      -1.214   1.759   0.017  0.00  0.00    +0.111 A 
ATOM     27  N   UNL     1      -1.240   3.078   0.030  0.00  0.00    -0.263 NA
ATOM     28  C   UNL     1      -0.132   3.793   0.024  0.00  0.00    +0.111 A 
ATOM     29  C   UNL     1       1.106   3.179   0.009  0.00  0.00    +0.025 A 
ENDBRANCH  23  24
ENDBRANCH  21  23
ENDBRANCH   7  21
TORSDOF 4
