REMARK  Name = ZINC34729074
REMARK  9 active torsions:
REMARK  status: ('A' for Active; 'I' for Inactive)
REMARK    1  A    between atoms: C_1  and  C_2
REMARK    2  A    between atoms: C_2  and  N_3
REMARK    3  A    between atoms: N_3  and  C_4
REMARK    4  A    between atoms: C_4  and  C_5
REMARK    5  A    between atoms: C_6  and  C_8
REMARK    6  A    between atoms: C_8  and  N_9
REMARK    7  A    between atoms: N_21  and  C_24
REMARK    8  A    between atoms: C_24  and  C_25
REMARK    9  A    between atoms: N_27  and  C_28
REMARK                            x       y       z     vdW  Elec       q    Type
REMARK                         _______ _______ _______ _____ _____    ______ ____
ROOT
ATOM      1  N   UNL     1       4.198  -0.737   0.076  0.00  0.00    -0.278 N 
ATOM      2  C   UNL     1       5.040   0.251   0.518  0.00  0.00    +0.097 A 
ATOM      3  C   UNL     1       6.397   0.003   0.716  0.00  0.00    +0.074 A 
ATOM      4  C   UNL     1       7.183   1.143   1.188  0.00  0.00    -0.023 A 
ATOM      5  C   UNL     1       6.482   2.279   1.368  0.00  0.00    -0.004 A 
ATOM      6  S   UNL     1       4.822   1.857   0.923  0.00  0.00    -0.075 S 
ATOM      7  C   UNL     1       7.010   3.599   1.841  0.00  0.00    +0.043 C 
ATOM      8  C   UNL     1       8.400   3.370   2.452  0.00  0.00    +0.005 C 
ATOM      9  C   UNL     1       9.229   2.511   1.492  0.00  0.00    +0.005 C 
ATOM     10  C   UNL     1       8.679   1.083   1.464  0.00  0.00    +0.037 C 
ATOM     11  C   UNL     1       6.853  -1.373   0.422  0.00  0.00    +0.266 A 
ATOM     12  O   UNL     1       8.022  -1.678   0.567  0.00  0.00    -0.267 OA
ATOM     13  N   UNL     1       5.960  -2.282  -0.009  0.00  0.00    -0.251 N 
ATOM     14  C   UNL     1       4.663  -1.976  -0.172  0.00  0.00    +0.334 A 
ATOM     15  O   UNL     1       3.893  -2.834  -0.558  0.00  0.00    -0.246 OA
ENDROOT
BRANCH   1  16
ATOM     16  C   UNL     1       2.776  -0.443  -0.121  0.00  0.00    +0.223 C 
BRANCH  16  18
ATOM     17  N   UNL     1       0.694  -0.510   1.212  0.00  0.00    -0.301 N 
ATOM     18  C   UNL     1       2.025  -0.712   1.157  0.00  0.00    +0.236 C 
ATOM     19  O   UNL     1       2.619  -1.109   2.137  0.00  0.00    -0.274 OA
BRANCH  17  21
ATOM     20  C   UNL     1      -0.050   1.500   0.033  0.00  0.00    +0.024 C 
ATOM     21  C   UNL     1      -0.024  -0.030   0.028  0.00  0.00    +0.104 C 
ENDBRANCH  17  21
BRANCH  17  22
ATOM     22  C   UNL     1      -0.036  -0.771   2.455  0.00  0.00    +0.104 C 
ATOM     23  C   UNL     1      -0.514  -2.224   2.470  0.00  0.00    +0.024 C 
ENDBRANCH  17  22
ENDBRANCH  16  18
ENDBRANCH   1  16
BRANCH  13  24
ATOM     24  C   UNL     1       6.414  -3.644  -0.300  0.00  0.00    +0.226 C 
BRANCH  24  25
ATOM     25  C   UNL     1       6.305  -4.487   0.944  0.00  0.00    +0.237 C 
ATOM     26  O   UNL     1       5.890  -3.998   1.973  0.00  0.00    -0.274 OA
ATOM     27  N   UNL     1       6.670  -5.784   0.913  0.00  0.00    -0.283 N 
ATOM     28  H   UNL     1       6.940  -6.192   0.075  0.00  0.00    +0.155 HD
BRANCH  27  29
ATOM     29  C   UNL     1       6.659  -6.541   2.086  0.00  0.00    +0.041 A 
ATOM     30  C   UNL     1       5.700  -6.315   3.050  0.00  0.00    +0.024 A 
ATOM     31  C   UNL     1       5.680  -7.063   4.223  0.00  0.00    +0.002 A 
ATOM     32  C   UNL     1       6.604  -8.037   4.452  0.00  0.00    +0.008 A 
ATOM     33  C   UNL     1       7.598  -8.299   3.494  0.00  0.00    -0.016 A 
ATOM     34  C   UNL     1       7.626  -7.547   2.294  0.00  0.00    +0.003 A 
ATOM     35  C   UNL     1       8.617  -7.814   1.336  0.00  0.00    +0.010 A 
ATOM     36  C   UNL     1       9.534  -8.792   1.570  0.00  0.00    +0.001 A 
ATOM     37  C   UNL     1       9.505  -9.536   2.747  0.00  0.00    +0.001 A 
ATOM     38  C   UNL     1       8.565  -9.298   3.703  0.00  0.00    +0.008 A 
ENDBRANCH  27  29
ENDBRANCH  24  25
ENDBRANCH  13  24
TORSDOF 7
