REMARK  Name = ZINC63259022
REMARK  9 active torsions:
REMARK  status: ('A' for Active; 'I' for Inactive)
REMARK    1  A    between atoms: C_1  and  C_2
REMARK    2  A    between atoms: C_2  and  O_3
REMARK    3  A    between atoms: O_3  and  C_4
REMARK    4  A    between atoms: C_9  and  N_10
REMARK    5  A    between atoms: C_11  and  C_29
REMARK    6  A    between atoms: C_14  and  S_15
REMARK    7  A    between atoms: S_15  and  C_16
REMARK    8  A    between atoms: C_16  and  C_17
REMARK    9  A    between atoms: C_17  and  C_19
REMARK                            x       y       z     vdW  Elec       q    Type
REMARK                         _______ _______ _______ _____ _____    ______ ____
ROOT
ATOM      1  N   UNL     1       2.018  -1.503   3.375  0.00  0.00    -0.267 N 
ATOM      2  C   UNL     1       1.400  -1.014   4.515  0.00  0.00    +0.168 A 
ATOM      3  N   UNL     1       2.287  -0.250   5.137  0.00  0.00    -0.128 NA
ATOM      4  N   UNL     1       3.387  -0.233   4.474  0.00  0.00    -0.122 NA
ATOM      5  C   UNL     1       3.279  -0.987   3.390  0.00  0.00    +0.197 A 
ENDROOT
BRANCH   2   6
ATOM      6  C   UNL     1       0.086  -1.278   4.931  0.00  0.00    +0.025 C 
ATOM      7  C   UNL     1      -0.551  -0.790   6.072  0.00  0.00    +0.006 A 
ATOM      8  C   UNL     1      -0.125   0.066   7.109  0.00  0.00    +0.010 A 
ATOM      9  C   UNL     1      -0.978   0.380   8.118  0.00  0.00    +0.001 A 
ATOM     10  C   UNL     1      -2.279  -0.126   8.159  0.00  0.00    +0.002 A 
ATOM     11  C   UNL     1      -2.756  -0.953   7.196  0.00  0.00    +0.026 A 
ATOM     12  C   UNL     1      -1.922  -1.325   6.110  0.00  0.00    +0.043 A 
ATOM     13  N   UNL     1      -2.143  -2.101   5.066  0.00  0.00    -0.380 N 
ATOM     14  C   UNL     1      -0.937  -2.147   4.233  0.00  0.00    +0.152 C 
ATOM     15  H   UNL     1      -2.974  -2.565   4.878  0.00  0.00    +0.160 HD
ENDBRANCH   2   6
BRANCH   1  21
ATOM     16  C   UNL     1       0.802  -1.825   1.306  0.00  0.00    +0.144 A 
ATOM     17  C   UNL     1       0.261  -2.673   0.353  0.00  0.00    +0.048 A 
ATOM     18  C   UNL     1       0.372  -4.042   0.503  0.00  0.00    +0.004 A 
ATOM     19  C   UNL     1       1.023  -4.571   1.602  0.00  0.00    +0.002 A 
ATOM     20  C   UNL     1       1.566  -3.732   2.557  0.00  0.00    +0.030 A 
ATOM     21  C   UNL     1       1.463  -2.356   2.411  0.00  0.00    +0.092 A 
BRANCH  16  22
ATOM     22  O   UNL     1       0.693  -0.477   1.160  0.00  0.00    -0.490 OA
BRANCH  22  24
ATOM     23  C   UNL     1      -0.019   1.526   0.010  0.00  0.00    +0.048 C 
ATOM     24  C   UNL     1       0.002  -0.004   0.002  0.00  0.00    +0.226 C 
ENDBRANCH  22  24
ENDBRANCH  16  22
ENDBRANCH   1  21
BRANCH   5  25
ATOM     25  S   UNL     1       4.535  -1.268   2.186  0.00  0.00    -0.078 S 
BRANCH  25  26
ATOM     26  C   UNL     1       5.947  -0.305   2.792  0.00  0.00    +0.157 C 
BRANCH  26  27
ATOM     27  C   UNL     1       7.106  -0.460   1.841  0.00  0.00    +0.173 C 
ATOM     28  O   UNL     1       6.990  -1.152   0.852  0.00  0.00    -0.291 OA
BRANCH  27  29
ATOM     29  C   UNL     1       8.376   0.227   2.112  0.00  0.00    +0.022 A 
ATOM     30  C   UNL     1       8.514   1.022   3.256  0.00  0.00    +0.015 A 
ATOM     31  C   UNL     1       9.705   1.665   3.506  0.00  0.00    +0.050 A 
ATOM     32  C   UNL     1      10.774   1.529   2.626  0.00  0.00    +0.162 A 
ATOM     33  C   UNL     1      10.644   0.737   1.487  0.00  0.00    +0.163 A 
ATOM     34  C   UNL     1       9.453   0.085   1.230  0.00  0.00    +0.060 A 
ATOM     35  O   UNL     1      11.684   0.588   0.621  0.00  0.00    -0.485 OA
ATOM     36  C   UNL     1      12.743   1.548   0.716  0.00  0.00    +0.270 C 
ATOM     37  C   UNL     1      13.104   1.720   2.197  0.00  0.00    +0.270 C 
ATOM     38  O   UNL     1      11.938   2.177   2.892  0.00  0.00    -0.485 OA
ENDBRANCH  27  29
ENDBRANCH  26  27
ENDBRANCH  25  26
ENDBRANCH   5  25
TORSDOF 8
