REMARK  Name = ZINC35753229
REMARK  18 active torsions:
REMARK  status: ('A' for Active; 'I' for Inactive)
REMARK    1  A    between atoms: C_1  and  C_2
REMARK    2  A    between atoms: C_2  and  C_3
REMARK    3  A    between atoms: C_3  and  C_4
REMARK    4  A    between atoms: C_4  and  N_5
REMARK    5  A    between atoms: N_5  and  C_6
REMARK    6  A    between atoms: C_6  and  C_7
REMARK    7  A    between atoms: N_11  and  C_12
REMARK    8  A    between atoms: C_12  and  C_13
REMARK    9  A    between atoms: C_17  and  C_19
REMARK   10  A    between atoms: C_20  and  C_22
REMARK   11  A    between atoms: C_22  and  N_23
REMARK   12  A    between atoms: N_23  and  C_24
REMARK   13  A    between atoms: C_24  and  C_25
REMARK   14  A    between atoms: C_25  and  C_26
REMARK   15  A    between atoms: C_26  and  C_27
REMARK   16  A    between atoms: C_26  and  C_28
REMARK   17  A    between atoms: C_29  and  C_31
REMARK   18  A    between atoms: C_34  and  N_37
REMARK                            x       y       z     vdW  Elec       q    Type
REMARK                         _______ _______ _______ _____ _____    ______ ____
ROOT
ATOM      1  N   UNL     1      -0.963  -2.397   0.840  0.00  0.00    -0.294 N 
ATOM      2  C   UNL     1      -2.074  -2.764   1.509  0.00  0.00    +0.233 C 
ATOM      3  O   UNL     1      -2.750  -3.685   1.102  0.00  0.00    -0.274 OA
ENDROOT
BRANCH   1   4
ATOM      4  C   UNL     1      -0.146  -1.284   1.332  0.00  0.00    +0.108 C 
BRANCH   4   5
ATOM      5  C   UNL     1      -0.650   0.026   0.723  0.00  0.00    +0.019 C 
BRANCH   5   7
ATOM      6  C   UNL     1      -0.147   2.454   0.418  0.00  0.00    +0.004 C 
ATOM      7  C   UNL     1       0.286   1.168   1.125  0.00  0.00    -0.002 C 
ENDBRANCH   5   7
ENDBRANCH   4   5
ENDBRANCH   1   4
BRANCH   1   8
ATOM      8  C   UNL     1      -0.571  -3.111  -0.378  0.00  0.00    +0.161 C 
BRANCH   8   9
ATOM      9  C   UNL     1       0.381  -4.224  -0.023  0.00  0.00    +0.036 A 
ATOM     10  C   UNL     1       1.190  -4.260   1.055  0.00  0.00    +0.024 A 
ATOM     11  C   UNL     1       1.907  -5.471   1.004  0.00  0.00    +0.019 A 
ATOM     12  C   UNL     1       1.510  -6.130  -0.103  0.00  0.00    +0.086 A 
ATOM     13  N   UNL     1       0.569  -5.372  -0.735  0.00  0.00    -0.345 N 
BRANCH  13  14
ATOM     14  C   UNL     1      -0.123  -5.730  -1.975  0.00  0.00    +0.156 C 
BRANCH  14  15
ATOM     15  C   UNL     1       0.605  -5.128  -3.149  0.00  0.00    -0.028 A 
ATOM     16  C   UNL     1       0.320  -3.837  -3.551  0.00  0.00    +0.005 A 
ATOM     17  C   UNL     1       0.989  -3.285  -4.628  0.00  0.00    +0.001 A 
ATOM     18  C   UNL     1       1.943  -4.024  -5.302  0.00  0.00    +0.003 A 
ATOM     19  C   UNL     1       2.228  -5.315  -4.899  0.00  0.00    -0.050 A 
ATOM     20  C   UNL     1       1.563  -5.866  -3.820  0.00  0.00    +0.008 A 
ATOM     21  C   UNL     1       3.268  -6.121  -5.635  0.00  0.00    +0.044 C 
ENDBRANCH  14  15
ENDBRANCH  13  14
ENDBRANCH   8   9
ENDBRANCH   1   8
BRANCH   2  22
ATOM     22  C   UNL     1      -2.477  -2.030   2.761  0.00  0.00    +0.203 C 
BRANCH  22  23
ATOM     23  N   UNL     1      -3.709  -2.614   3.295  0.00  0.00    -0.289 N 
ATOM     24  C   UNL     1      -4.871  -1.938   3.203  0.00  0.00    +0.247 C 
ATOM     25  O   UNL     1      -5.880  -2.389   3.709  0.00  0.00    -0.270 OA
BRANCH  24  26
ATOM     26  C   UNL     1      -4.920  -0.646   2.485  0.00  0.00    +0.037 A 
ATOM     27  C   UNL     1      -4.013  -0.381   1.457  0.00  0.00    +0.015 A 
ATOM     28  C   UNL     1      -4.064   0.826   0.791  0.00  0.00    +0.033 A 
ATOM     29  C   UNL     1      -5.010   1.773   1.140  0.00  0.00    +0.126 A 
ATOM     30  C   UNL     1      -5.911   1.517   2.158  0.00  0.00    +0.033 A 
ATOM     31  C   UNL     1      -5.875   0.311   2.828  0.00  0.00    +0.015 A 
BRANCH  29  32
ATOM     32  N   UNL     1      -5.058   3.066   0.421  0.00  0.00    +0.056 N 
ATOM     33  O   UNL     1      -4.272   3.293  -0.469  0.00  0.00    -0.126 OA
ATOM     34  O   UNL     1      -5.884   3.895   0.724  0.00  0.00    -0.126 OA
ENDBRANCH  29  32
ENDBRANCH  24  26
BRANCH  23  35
ATOM     35  C   UNL     1      -3.679  -3.934   3.930  0.00  0.00    +0.109 C 
BRANCH  35  36
ATOM     36  C   UNL     1      -3.525  -3.769   5.443  0.00  0.00    +0.022 C 
BRANCH  36  37
ATOM     37  C   UNL     1      -3.363  -5.145   6.093  0.00  0.00    -0.016 C 
ATOM     38  C   UNL     1      -3.068  -4.973   7.584  0.00  0.00    +0.007 C 
ATOM     39  C   UNL     1      -4.654  -5.947   5.917  0.00  0.00    +0.007 C 
ENDBRANCH  36  37
ENDBRANCH  35  36
ENDBRANCH  23  35
ENDBRANCH  22  23
ENDBRANCH   2  22
TORSDOF 14
