REMARK  Name = ZINC28271129
REMARK  6 active torsions:
REMARK  status: ('A' for Active; 'I' for Inactive)
REMARK    1  A    between atoms: C_4  and  N_19
REMARK    2  A    between atoms: C_5  and  C_7
REMARK    3  A    between atoms: N_9  and  N_10
REMARK    4  A    between atoms: C_11  and  C_13
REMARK    5  A    between atoms: N_19  and  S_20
REMARK    6  A    between atoms: S_20  and  C_23
REMARK                            x       y       z     vdW  Elec       q    Type
REMARK                         _______ _______ _______ _____ _____    ______ ____
ROOT
ATOM      1  C   UNL     1      -0.017   1.373   0.010  0.00  0.00    +0.001 A 
ATOM      2  C   UNL     1       1.170   2.090   0.002  0.00  0.00    +0.002 A 
ATOM      3  C   UNL     1       2.383   1.433  -0.013  0.00  0.00    +0.027 A 
ATOM      4  C   UNL     1       2.422   0.044  -0.022  0.00  0.00    +0.086 A 
ATOM      5  C   UNL     1       1.222  -0.685  -0.014  0.00  0.00    +0.063 A 
ATOM      6  C   UNL     1       0.002  -0.004   0.002  0.00  0.00    +0.015 A 
ENDROOT
BRANCH   5   7
ATOM      7  C   UNL     1       1.250  -2.159  -0.023  0.00  0.00    +0.262 C 
ATOM      8  O   UNL     1       2.314  -2.747  -0.037  0.00  0.00    -0.269 OA
ATOM      9  N   UNL     1       0.095  -2.854  -0.015  0.00  0.00    -0.230 N 
ATOM     10  H   UNL     1      -0.754  -2.385  -0.004  0.00  0.00    +0.173 HD
BRANCH   9  11
ATOM     11  N   UNL     1       0.121  -4.255  -0.024  0.00  0.00    -0.230 N 
ATOM     12  C   UNL     1      -1.034  -4.950  -0.016  0.00  0.00    +0.262 C 
ATOM     13  O   UNL     1      -2.097  -4.362  -0.002  0.00  0.00    -0.269 OA
ATOM     14  H   UNL     1       0.970  -4.724  -0.035  0.00  0.00    +0.173 HD
BRANCH  12  15
ATOM     15  C   UNL     1      -1.006  -6.428  -0.025  0.00  0.00    +0.056 A 
ATOM     16  C   UNL     1      -2.199  -7.162  -0.023  0.00  0.00    +0.016 A 
ATOM     17  C   UNL     1      -2.118  -8.543  -0.032  0.00  0.00    +0.020 A 
ATOM     18  C   UNL     1      -0.875  -9.149  -0.043  0.00  0.00    +0.111 A 
ATOM     19  N   UNL     1       0.233  -8.432  -0.044  0.00  0.00    -0.263 NA
ATOM     20  C   UNL     1       0.208  -7.115  -0.042  0.00  0.00    +0.123 A 
ENDBRANCH  12  15
ENDBRANCH   9  11
ENDBRANCH   5   7
BRANCH   4  21
ATOM     21  N   UNL     1       3.642  -0.620  -0.038  0.00  0.00    -0.097 NA
BRANCH  21  22
ATOM     22  S   UNL     1       5.054   0.244  -0.048  0.00  0.00    +0.098 S 
ATOM     23  O   UNL     1       5.101   0.933  -1.290  0.00  0.00    -0.148 OA
ATOM     24  O   UNL     1       5.127   0.919   1.200  0.00  0.00    -0.148 OA
BRANCH  22  25
ATOM     25  C   UNL     1       6.377  -0.920  -0.069  0.00  0.00    +0.148 A 
ATOM     26  C   UNL     1       7.010  -1.474  -1.132  0.00  0.00    +0.037 A 
ATOM     27  C   UNL     1       8.034  -2.375  -0.907  0.00  0.00    +0.010 A 
ATOM     28  C   UNL     1       8.374  -2.679   0.369  0.00  0.00    +0.047 A 
ATOM     29  S   UNL     1       7.236  -1.671   1.305  0.00  0.00    -0.077 S 
ENDBRANCH  22  25
ENDBRANCH  21  22
ENDBRANCH   4  21
TORSDOF 6
