REMARK  Name = ZINC20663120
REMARK  4 active torsions:
REMARK  status: ('A' for Active; 'I' for Inactive)
REMARK    1  A    between atoms: C_5  and  C_7
REMARK    2  A    between atoms: N_9  and  C_10
REMARK    3  A    between atoms: C_10  and  C_21
REMARK    4  A    between atoms: C_11  and  C_12
REMARK                            x       y       z     vdW  Elec       q    Type
REMARK                         _______ _______ _______ _____ _____    ______ ____
ROOT
ATOM      1  C   UNL     1       4.615  -3.068   2.605  0.00  0.00    +0.097 C 
ATOM      2  C   UNL     1       3.284  -2.833   2.518  0.00  0.00    +0.036 C 
ENDROOT
BRANCH   1   3
ATOM      3  C   UNL     1       5.103  -4.415   2.932  0.00  0.00    +0.261 C 
ATOM      4  O   UNL     1       5.239  -4.747   4.094  0.00  0.00    -0.269 OA
ATOM      5  N   UNL     1       5.399  -5.282   1.944  0.00  0.00    -0.296 N 
ATOM      6  C   UNL     1       5.782  -6.666   2.250  0.00  0.00    +0.113 C 
ATOM      7  C   UNL     1       4.947  -7.635   1.417  0.00  0.00    +0.027 C 
ATOM      8  C   UNL     1       4.975  -7.248  -0.063  0.00  0.00    +0.018 C 
ATOM      9  C   UNL     1       4.410  -5.832  -0.202  0.00  0.00    +0.054 C 
ATOM     10  C   UNL     1       5.350  -4.862   0.534  0.00  0.00    +0.117 C 
ATOM     11  C   UNL     1       3.056  -5.756   0.463  0.00  0.00    +0.027 A 
ATOM     12  C   UNL     1       2.175  -4.837  -0.014  0.00  0.00    +0.022 A 
ATOM     13  C   UNL     1       0.928  -4.663   0.597  0.00  0.00    +0.007 A 
ATOM     14  C   UNL     1       0.623  -5.412   1.696  0.00  0.00    +0.070 A 
ATOM     15  C   UNL     1       1.556  -6.348   2.164  0.00  0.00    +0.251 A 
ATOM     16  O   UNL     1       1.322  -6.976   3.185  0.00  0.00    -0.268 OA
ATOM     17  N   UNL     1       2.715  -6.562   1.495  0.00  0.00    -0.312 N 
ATOM     18  C   UNL     1       3.512  -7.719   1.903  0.00  0.00    +0.130 C 
ENDBRANCH   1   3
BRANCH   2  19
ATOM     19  C   UNL     1       2.790  -1.458   2.362  0.00  0.00    -0.019 A 
ATOM     20  C   UNL     1       1.530  -1.224   1.800  0.00  0.00    +0.012 A 
ATOM     21  C   UNL     1       1.070   0.066   1.655  0.00  0.00    +0.050 A 
ATOM     22  C   UNL     1       1.851   1.138   2.065  0.00  0.00    +0.166 A 
ATOM     23  C   UNL     1       3.109   0.913   2.627  0.00  0.00    +0.167 A 
ATOM     24  C   UNL     1       3.578  -0.377   2.775  0.00  0.00    +0.057 A 
ATOM     25  O   UNL     1       3.667   2.119   2.942  0.00  0.00    -0.453 OA
ATOM     26  C   UNL     1       2.917   3.096   2.196  0.00  0.00    +0.466 C 
ATOM     27  O   UNL     1       1.625   2.483   2.031  0.00  0.00    -0.453 OA
ENDBRANCH   2  19
BRANCH   1  30
ATOM     28  C   UNL     1       6.415  -1.698   3.340  0.00  0.00    +0.251 C 
ATOM     29  O   UNL     1       6.488  -2.358   4.358  0.00  0.00    -0.270 OA
ATOM     30  N   UNL     1       5.525  -2.029   2.384  0.00  0.00    -0.277 N 
ATOM     31  H   UNL     1       5.515  -1.483   1.429  0.00  0.00    +0.155 HD
BRANCH  28  36
ATOM     32  C   UNL     1       7.971   1.387   1.871  0.00  0.00    +0.001 A 
ATOM     33  C   UNL     1       8.964   1.656   2.797  0.00  0.00    +0.003 A 
ATOM     34  C   UNL     1       9.132   0.839   3.899  0.00  0.00    +0.039 A 
ATOM     35  C   UNL     1       8.306  -0.255   4.083  0.00  0.00    +0.135 A 
ATOM     36  C   UNL     1       7.301  -0.531   3.152  0.00  0.00    +0.072 A 
ATOM     37  C   UNL     1       7.143   0.298   2.039  0.00  0.00    +0.016 A 
ATOM     38  F   UNL     1       8.471  -1.054   5.160  0.00  0.00    -0.205 F 
ENDBRANCH  28  36
ENDBRANCH   1  30
TORSDOF 4
