REMARK  Name = ZINC18262443
REMARK  9 active torsions:
REMARK  status: ('A' for Active; 'I' for Inactive)
REMARK    1  A    between atoms: C_1  and  C_2
REMARK    2  A    between atoms: C_2  and  C_3
REMARK    3  A    between atoms: C_2  and  N_4
REMARK    4  A    between atoms: N_4  and  S_5
REMARK    5  A    between atoms: S_5  and  C_8
REMARK    6  A    between atoms: C_12  and  C_14
REMARK    7  A    between atoms: C_14  and  O_16
REMARK    8  A    between atoms: O_16  and  C_17
REMARK    9  A    between atoms: C_17  and  C_18
REMARK                            x       y       z     vdW  Elec       q    Type
REMARK                         _______ _______ _______ _____ _____    ______ ____
ROOT
ATOM      1  O   UNL     1      -2.015  -0.498   0.124  0.00  0.00    -0.453 OA
ENDROOT
BRANCH   1   2
ATOM      2  C   UNL     1      -1.840   0.837   0.151  0.00  0.00    +0.340 C 
ATOM      3  O   UNL     1      -2.801   1.577   0.093  0.00  0.00    -0.245 OA
BRANCH   2   8
ATOM      4  C   UNL     1       0.980   3.306   0.370  0.00  0.00    +0.106 A 
ATOM      5  C   UNL     1       2.074   2.461   0.430  0.00  0.00    +0.028 A 
ATOM      6  C   UNL     1       1.898   1.089   0.404  0.00  0.00    +0.003 A 
ATOM      7  C   UNL     1       0.629   0.554   0.317  0.00  0.00    +0.015 A 
ATOM      8  C   UNL     1      -0.478   1.402   0.251  0.00  0.00    +0.061 A 
ATOM      9  C   UNL     1      -0.294   2.786   0.284  0.00  0.00    +0.043 A 
BRANCH   4  10
ATOM     10  S   UNL     1       1.216   5.052   0.403  0.00  0.00    +0.059 S 
ATOM     11  O   UNL     1       0.004   5.617   0.885  0.00  0.00    -0.153 OA
ATOM     12  O   UNL     1       2.468   5.281   1.036  0.00  0.00    -0.153 OA
BRANCH  10  13
ATOM     13  N   UNL     1       1.381   5.554  -1.166  0.00  0.00    -0.187 NA
ATOM     14  H   UNL     1       2.221   5.934  -1.468  0.00  0.00    +0.148 HD
BRANCH  13  16
ATOM     15  C   UNL     1       0.262   6.609  -3.068  0.00  0.00    +0.025 C 
ATOM     16  C   UNL     1       0.258   5.425  -2.098  0.00  0.00    +0.070 C 
ATOM     17  C   UNL     1       0.396   4.120  -2.885  0.00  0.00    +0.025 C 
ENDBRANCH  13  16
ENDBRANCH  10  13
ENDBRANCH   4  10
ENDBRANCH   2   8
ENDBRANCH   1   2
BRANCH   1  18
ATOM     18  C   UNL     1      -3.380  -0.983   0.026  0.00  0.00    +0.308 C 
BRANCH  18  19
ATOM     19  C   UNL     1      -3.379  -2.489   0.009  0.00  0.00    +0.170 A 
ATOM     20  N   UNL     1      -3.305  -3.123  -1.148  0.00  0.00    -0.214 NA
ATOM     21  C   UNL     1      -3.294  -4.443  -1.229  0.00  0.00    +0.128 A 
ATOM     22  C   UNL     1      -3.375  -5.211  -0.034  0.00  0.00    +0.051 A 
ATOM     23  C   UNL     1      -3.385  -6.666   0.122  0.00  0.00    -0.025 A 
ATOM     24  C   UNL     1      -3.470  -7.147   1.379  0.00  0.00    -0.004 A 
ATOM     25  S   UNL     1      -3.543  -5.712   2.418  0.00  0.00    -0.073 S 
ATOM     26  C   UNL     1      -3.457  -4.466   1.160  0.00  0.00    +0.114 A 
ATOM     27  N   UNL     1      -3.457  -3.147   1.150  0.00  0.00    -0.221 NA
ATOM     28  C   UNL     1      -3.498  -8.584   1.801  0.00  0.00    +0.043 C 
ATOM     29  C   UNL     1      -3.787  -9.447   0.565  0.00  0.00    +0.005 C 
ATOM     30  C   UNL     1      -2.870  -8.995  -0.576  0.00  0.00    +0.005 C 
ATOM     31  C   UNL     1      -3.302  -7.614  -1.071  0.00  0.00    +0.037 C 
ATOM     32  N   UNL     1      -3.209  -5.069  -2.459  0.00  0.00    -0.343 N 
ATOM     33  H   UNL     1      -3.435  -6.009  -2.542  0.00  0.00    +0.144 HD
ATOM     34  H   UNL     1      -2.925  -4.569  -3.240  0.00  0.00    +0.144 HD
ENDBRANCH  18  19
ENDBRANCH   1  18
TORSDOF 7
