REMARK  Name = ZINC36267221
REMARK  3 active torsions:
REMARK  status: ('A' for Active; 'I' for Inactive)
REMARK    1  A    between atoms: C_6  and  S_7
REMARK    2  A    between atoms: S_7  and  N_10
REMARK    3  A    between atoms: C_16  and  N_22
REMARK                            x       y       z     vdW  Elec       q    Type
REMARK                         _______ _______ _______ _____ _____    ______ ____
ROOT
ATOM      1  N   UNL     1      -1.948  -1.147  -1.567  0.00  0.00    -0.176 NA
ATOM      2  C   UNL     1      -2.784  -0.238  -2.379  0.00  0.00    +0.113 C 
ATOM      3  C   UNL     1      -3.370  -1.147  -3.474  0.00  0.00    +0.009 C 
ATOM      4  C   UNL     1      -3.876  -0.379  -4.669  0.00  0.00    +0.003 C 
ATOM      5  C   UNL     1      -2.742   0.335  -5.405  0.00  0.00    -0.016 C 
ATOM      6  C   UNL     1      -1.728  -0.723  -5.855  0.00  0.00    -0.075 C 
ATOM      7  C   UNL     1      -1.122  -1.369  -4.613  0.00  0.00    -0.011 C 
ATOM      8  C   UNL     1      -2.187  -2.078  -3.801  0.00  0.00    +0.008 C 
ATOM      9  C   UNL     1      -1.563  -2.300  -2.396  0.00  0.00    +0.113 C 
ENDROOT
BRANCH   6  10
ATOM     10  N   UNL     1      -0.668  -0.086  -6.649  0.00  0.00    +0.380 N 
ATOM     11  H   UNL     1      -0.200   0.610  -6.088  0.00  0.00    -0.090 HD
ATOM     12  H   UNL     1      -0.003  -0.784  -6.944  0.00  0.00    -0.090 HD
ATOM     13  H   UNL     1      -1.075   0.355  -7.460  0.00  0.00    -0.090 HD
ENDBRANCH   6  10
BRANCH   1  14
ATOM     14  S   UNL     1      -1.512  -0.905   0.012  0.00  0.00    +0.061 S 
ATOM     15  O   UNL     1      -1.218  -2.186   0.553  0.00  0.00    -0.153 OA
ATOM     16  O   UNL     1      -2.492  -0.046   0.577  0.00  0.00    -0.153 OA
BRANCH  14  22
ATOM     17  C   UNL     1      -0.017   1.378   0.010  0.00  0.00    +0.030 A 
ATOM     18  C   UNL     1       1.171   2.086   0.002  0.00  0.00    +0.022 A 
ATOM     19  C   UNL     1       2.378   1.410  -0.013  0.00  0.00    +0.041 A 
ATOM     20  C   UNL     1       2.396   0.027  -0.021  0.00  0.00    +0.022 A 
ATOM     21  C   UNL     1       1.208  -0.679  -0.013  0.00  0.00    +0.030 A 
ATOM     22  C   UNL     1       0.002  -0.004   0.002  0.00  0.00    +0.106 A 
ATOM     23 CL   UNL     1       3.870   2.298  -0.023  0.00  0.00    -0.084 Cl
ENDBRANCH  14  22
ENDBRANCH   1  14
TORSDOF 3
