REMARK  Name = ZINC23182088
REMARK  9 active torsions:
REMARK  status: ('A' for Active; 'I' for Inactive)
REMARK    1  A    between atoms: C_1  and  C_2
REMARK    2  A    between atoms: C_2  and  C_4
REMARK    3  A    between atoms: C_2  and  N_24
REMARK    4  A    between atoms: C_4  and  C_6
REMARK    5  A    between atoms: C_4  and  N_11
REMARK    6  A    between atoms: N_14  and  C_17
REMARK    7  A    between atoms: N_24  and  S_25
REMARK    8  A    between atoms: S_25  and  C_28
REMARK    9  A    between atoms: C_31  and  N_34
REMARK                            x       y       z     vdW  Elec       q    Type
REMARK                         _______ _______ _______ _____ _____    ______ ____
ROOT
ATOM      1  C   UNL     1       1.669   7.546  -1.035  0.00  0.00    +0.112 C 
ENDROOT
BRANCH   1   2
ATOM      2  N   UNL     1       1.952   6.115  -0.867  0.00  0.00    -0.290 NA
ATOM      3  C   UNL     1       2.594   5.854   0.429  0.00  0.00    +0.104 C 
ATOM      4  C   UNL     1       2.943   4.367   0.532  0.00  0.00    +0.120 C 
ATOM      5  N   UNL     1       1.720   3.567   0.383  0.00  0.00    -0.327 N 
ATOM      6  C   UNL     1       1.077   3.829  -0.912  0.00  0.00    +0.120 C 
ATOM      7  C   UNL     1       0.728   5.315  -1.015  0.00  0.00    +0.104 C 
BRANCH   5   8
ATOM      8  C   UNL     1       1.989   2.205   0.544  0.00  0.00    +0.030 A 
ATOM      9  C   UNL     1       0.962   1.276   0.440  0.00  0.00    +0.026 A 
ATOM     10  C   UNL     1       1.230  -0.070   0.598  0.00  0.00    +0.040 A 
ATOM     11  C   UNL     1       2.522  -0.493   0.860  0.00  0.00    +0.124 A 
ATOM     12  C   UNL     1       3.548   0.432   0.964  0.00  0.00    +0.040 A 
ATOM     13  C   UNL     1       3.284   1.778   0.806  0.00  0.00    +0.026 A 
ATOM     14  F   UNL     1       2.783  -1.809   1.015  0.00  0.00    -0.205 F 
ENDBRANCH   5   8
ENDBRANCH   1   2
BRANCH   1  15
ATOM     15  C   UNL     1       0.834   8.033   0.122  0.00  0.00    +0.008 A 
ATOM     16  C   UNL     1       1.013   9.126   0.903  0.00  0.00    +0.013 A 
ATOM     17  C   UNL     1       0.109   9.381   1.917  0.00  0.00    +0.008 A 
ATOM     18  C   UNL     1      -0.925   8.524   2.107  0.00  0.00    +0.045 A 
ATOM     19  S   UNL     1      -0.642   7.315   0.824  0.00  0.00    -0.100 S 
ENDBRANCH   1  15
BRANCH   1  21
ATOM     20  C   UNL     1       1.751   7.271  -3.517  0.00  0.00    +0.027 C 
ATOM     21  C   UNL     1       0.904   7.765  -2.342  0.00  0.00    +0.095 C 
BRANCH  21  22
ATOM     22  N   UNL     1       0.622   9.193  -2.510  0.00  0.00    -0.185 NA
ATOM     23  H   UNL     1       1.263   9.941  -2.022  0.00  0.00    +0.148 HD
BRANCH  22  24
ATOM     24  S   UNL     1      -0.792   9.679  -3.221  0.00  0.00    +0.059 S 
ATOM     25  O   UNL     1      -0.783  11.100  -3.214  0.00  0.00    -0.153 OA
ATOM     26  O   UNL     1      -0.925   8.924  -4.418  0.00  0.00    -0.153 OA
BRANCH  24  27
ATOM     27  C   UNL     1      -2.108   9.179  -2.161  0.00  0.00    +0.105 A 
ATOM     28  C   UNL     1      -2.696   7.939  -2.328  0.00  0.00    +0.031 A 
ATOM     29  C   UNL     1      -3.725   7.545  -1.493  0.00  0.00    +0.034 A 
ATOM     30  C   UNL     1      -4.172   8.394  -0.498  0.00  0.00    +0.126 A 
ATOM     31  C   UNL     1      -3.587   9.636  -0.335  0.00  0.00    +0.034 A 
ATOM     32  C   UNL     1      -2.555  10.028  -1.167  0.00  0.00    +0.031 A 
BRANCH  30  33
ATOM     33  N   UNL     1      -5.277   7.974   0.392  0.00  0.00    +0.056 N 
ATOM     34  O   UNL     1      -5.671   8.722   1.269  0.00  0.00    -0.126 OA
ATOM     35  O   UNL     1      -5.793   6.880   0.248  0.00  0.00    -0.126 OA
ENDBRANCH  30  33
ENDBRANCH  24  27
ENDBRANCH  22  24
ENDBRANCH  21  22
ENDBRANCH   1  21
TORSDOF 8
