REMARK  Name = ZINC40814680
REMARK  8 active torsions:
REMARK  status: ('A' for Active; 'I' for Inactive)
REMARK    1  A    between atoms: C_1  and  C_2
REMARK    2  A    between atoms: C_6  and  C_7
REMARK    3  A    between atoms: N_9  and  C_10
REMARK    4  A    between atoms: C_13  and  O_16
REMARK    5  A    between atoms: O_16  and  C_17
REMARK    6  A    between atoms: N_27  and  N_28
REMARK    7  A    between atoms: N_28  and  C_29
REMARK    8  A    between atoms: C_32  and  N_35
REMARK                            x       y       z     vdW  Elec       q    Type
REMARK                         _______ _______ _______ _____ _____    ______ ____
ROOT
ATOM      1  C   UNL     1       3.326   1.141   0.420  0.00  0.00    +0.048 C 
ATOM      2  C   UNL     1       2.729  -0.237   0.292  0.00  0.00    +0.009 A 
ATOM      3  C   UNL     1       2.777  -1.073  -0.829  0.00  0.00    +0.042 A 
ATOM      4  C   UNL     1       2.107  -2.231  -0.511  0.00  0.00    +0.115 A 
ATOM      5  O   UNL     1       1.669  -2.121   0.742  0.00  0.00    -0.454 OA
ATOM      6  C   UNL     1       2.036  -0.923   1.251  0.00  0.00    +0.193 A 
ATOM      7  C   UNL     1       1.943  -3.376  -1.478  0.00  0.00    +0.075 C 
ATOM      8  C   UNL     1       2.143  -2.867  -2.908  0.00  0.00    +0.014 C 
ATOM      9  C   UNL     1       3.471  -2.114  -3.033  0.00  0.00    +0.058 C 
ATOM     10  C   UNL     1       3.398  -0.871  -2.158  0.00  0.00    +0.070 C 
ATOM     11  N   UNL     1       3.847   0.283  -2.548  0.00  0.00    -0.186 NA
ENDROOT
BRANCH   6  12
ATOM     12  C   UNL     1       1.739  -0.440   2.604  0.00  0.00    +0.284 C 
ATOM     13  O   UNL     1       2.120   0.661   2.954  0.00  0.00    -0.266 OA
ATOM     14  N   UNL     1       1.044  -1.217   3.459  0.00  0.00    -0.279 N 
ATOM     15  H   UNL     1       0.640  -2.041   3.147  0.00  0.00    +0.155 HD
BRANCH  14  16
ATOM     16  C   UNL     1       0.906  -0.833   4.799  0.00  0.00    +0.034 A 
ATOM     17  C   UNL     1       0.719  -1.796   5.782  0.00  0.00    +0.027 A 
ATOM     18  C   UNL     1       0.584  -1.417   7.102  0.00  0.00    +0.048 A 
ATOM     19  C   UNL     1       0.634  -0.074   7.448  0.00  0.00    +0.129 A 
ATOM     20  C   UNL     1       0.821   0.888   6.466  0.00  0.00    +0.048 A 
ATOM     21  C   UNL     1       0.963   0.510   5.146  0.00  0.00    +0.027 A 
BRANCH  19  22
ATOM     22  O   UNL     1       0.501   0.298   8.748  0.00  0.00    -0.456 OA
BRANCH  22  23
ATOM     23  C   UNL     1       0.371   1.623   9.023  0.00  0.00    +0.128 A 
ATOM     24  C   UNL     1      -0.841   2.262   8.806  0.00  0.00    +0.046 A 
ATOM     25  C   UNL     1      -0.970   3.608   9.086  0.00  0.00    +0.004 A 
ATOM     26  C   UNL     1       0.108   4.319   9.581  0.00  0.00    +0.000 A 
ATOM     27  C   UNL     1       1.317   3.684   9.798  0.00  0.00    +0.004 A 
ATOM     28  C   UNL     1       1.450   2.337   9.525  0.00  0.00    +0.046 A 
ENDBRANCH  22  23
ENDBRANCH  19  22
ENDBRANCH  14  16
ENDBRANCH   6  12
BRANCH  11  29
ATOM     29  N   UNL     1       4.425   0.416  -3.817  0.00  0.00    -0.238 N 
ATOM     30  H   UNL     1       4.490  -0.353  -4.404  0.00  0.00    +0.174 HD
BRANCH  29  31
ATOM     31  C   UNL     1       4.908   1.656  -4.237  0.00  0.00    +0.048 A 
ATOM     32  C   UNL     1       4.821   2.759  -3.395  0.00  0.00    +0.027 A 
ATOM     33  C   UNL     1       5.299   3.984  -3.813  0.00  0.00    +0.034 A 
ATOM     34  C   UNL     1       5.865   4.116  -5.069  0.00  0.00    +0.126 A 
ATOM     35  C   UNL     1       5.953   3.021  -5.909  0.00  0.00    +0.034 A 
ATOM     36  C   UNL     1       5.482   1.791  -5.495  0.00  0.00    +0.027 A 
BRANCH  34  37
ATOM     37  N   UNL     1       6.376   5.431  -5.514  0.00  0.00    +0.056 N 
ATOM     38  O   UNL     1       6.299   6.389  -4.781  0.00  0.00    -0.126 OA
ATOM     39  O   UNL     1       6.871   5.548  -6.611  0.00  0.00    -0.126 OA
ENDBRANCH  34  37
ENDBRANCH  29  31
ENDBRANCH  11  29
TORSDOF 7
