REMARK  Name = ZINC01381821
REMARK  14 active torsions:
REMARK  status: ('A' for Active; 'I' for Inactive)
REMARK    1  A    between atoms: C_1  and  C_2
REMARK    2  A    between atoms: C_5  and  C_45
REMARK    3  A    between atoms: C_9  and  C_14
REMARK    4  A    between atoms: C_14  and  C_16
REMARK    5  A    between atoms: C_14  and  N_29
REMARK    6  A    between atoms: N_20  and  C_21
REMARK    7  A    between atoms: C_21  and  C_22
REMARK    8  A    between atoms: C_22  and  C_23
REMARK    9  A    between atoms: N_29  and  C_30
REMARK   10  A    between atoms: N_29  and  C_39
REMARK   11  A    between atoms: C_30  and  C_31
REMARK   12  A    between atoms: C_34  and  O_37
REMARK   13  A    between atoms: O_37  and  C_38
REMARK   14  A    between atoms: C_39  and  C_40
REMARK                            x       y       z     vdW  Elec       q    Type
REMARK                         _______ _______ _______ _____ _____    ______ ____
ROOT
ATOM      1  C   UNL     1      -0.067  -0.064   5.632  0.00  0.00    +0.163 C 
ENDROOT
BRANCH   1  10
ATOM      2  C   UNL     1      -1.066   2.671   1.314  0.00  0.00    +0.044 C 
ATOM      3  C   UNL     1      -1.172   1.211   0.954  0.00  0.00    -0.041 A 
ATOM      4  C   UNL     1      -1.478   0.840  -0.325  0.00  0.00    +0.004 A 
ATOM      5  C   UNL     1      -1.577  -0.501  -0.666  0.00  0.00    +0.005 A 
ATOM      6  C   UNL     1      -1.369  -1.485   0.277  0.00  0.00    -0.026 A 
ATOM      7  C   UNL     1      -1.056  -1.131   1.585  0.00  0.00    +0.052 A 
ATOM      8  C   UNL     1      -0.951   0.231   1.927  0.00  0.00    +0.002 A 
ATOM      9  C   UNL     1      -0.616   0.592   3.305  0.00  0.00    +0.021 A 
ATOM     10  C   UNL     1      -0.413  -0.402   4.205  0.00  0.00    +0.042 A 
ATOM     11  C   UNL     1      -0.525  -1.752   3.809  0.00  0.00    +0.254 A 
ATOM     12  O   UNL     1      -0.339  -2.630   4.634  0.00  0.00    -0.268 OA
ATOM     13  N   UNL     1      -0.843  -2.094   2.549  0.00  0.00    -0.322 N 
ATOM     14  H   UNL     1      -0.912  -3.032   2.311  0.00  0.00    +0.169 HD
ATOM     15  C   UNL     1      -1.481  -2.938  -0.108  0.00  0.00    +0.046 C 
ENDBRANCH   1  10
BRANCH   1  16
ATOM     16  C   UNL     1      -1.197  -0.484   6.536  0.00  0.00    +0.173 A 
ATOM     17  N   UNL     1      -1.489  -1.707   6.907  0.00  0.00    -0.111 NA
ATOM     18  N   UNL     1      -2.519  -1.654   7.678  0.00  0.00    -0.023 NA
ATOM     19  N   UNL     1      -2.892  -0.429   7.810  0.00  0.00    -0.044 NA
ATOM     20  N   UNL     1      -2.099   0.324   7.125  0.00  0.00    -0.227 N 
BRANCH  20  21
ATOM     21  C   UNL     1      -2.168   1.782   7.007  0.00  0.00    +0.152 C 
BRANCH  21  22
ATOM     22  C   UNL     1      -3.059   2.156   5.821  0.00  0.00    +0.058 C 
BRANCH  22  23
ATOM     23  C   UNL     1      -3.131   3.656   5.699  0.00  0.00    -0.046 A 
ATOM     24  C   UNL     1      -4.115   4.358   6.370  0.00  0.00    +0.004 A 
ATOM     25  C   UNL     1      -4.181   5.734   6.259  0.00  0.00    +0.000 A 
ATOM     26  C   UNL     1      -3.261   6.409   5.477  0.00  0.00    +0.000 A 
ATOM     27  C   UNL     1      -2.276   5.708   4.807  0.00  0.00    +0.000 A 
ATOM     28  C   UNL     1      -2.208   4.332   4.922  0.00  0.00    +0.004 A 
ENDBRANCH  22  23
ENDBRANCH  21  22
ENDBRANCH  20  21
ENDBRANCH   1  16
BRANCH   1  29
ATOM     29  N   UNL     1       1.160  -0.772   6.019  0.00  0.00    -0.277 NA
BRANCH  29  30
ATOM     30  C   UNL     1       2.326  -0.233   5.307  0.00  0.00    +0.121 C 
BRANCH  30  31
ATOM     31  C   UNL     1       2.440   1.245   5.577  0.00  0.00    -0.033 A 
ATOM     32  C   UNL     1       1.906   2.153   4.681  0.00  0.00    +0.008 A 
ATOM     33  C   UNL     1       2.009   3.509   4.925  0.00  0.00    +0.046 A 
ATOM     34  C   UNL     1       2.649   3.959   6.071  0.00  0.00    +0.120 A 
ATOM     35  C   UNL     1       3.183   3.046   6.968  0.00  0.00    +0.046 A 
ATOM     36  C   UNL     1       3.073   1.692   6.722  0.00  0.00    +0.008 A 
BRANCH  34  37
ATOM     37  O   UNL     1       2.752   5.293   6.313  0.00  0.00    -0.495 OA
ATOM     38  C   UNL     1       3.423   5.684   7.512  0.00  0.00    +0.277 C 
ENDBRANCH  34  37
ENDBRANCH  30  31
ENDBRANCH  29  30
BRANCH  29  39
ATOM     39  C   UNL     1       1.361  -0.721   7.473  0.00  0.00    +0.160 C 
BRANCH  39  40
ATOM     40  C   UNL     1       2.367  -1.767   7.879  0.00  0.00    +0.119 A 
ATOM     41  C   UNL     1       3.685  -1.565   8.056  0.00  0.00    +0.046 A 
ATOM     42  C   UNL     1       4.244  -2.808   8.430  0.00  0.00    +0.041 A 
ATOM     43  C   UNL     1       3.234  -3.696   8.460  0.00  0.00    +0.195 A 
ATOM     44  O   UNL     1       2.098  -3.059   8.131  0.00  0.00    -0.467 OA
ENDBRANCH  39  40
ENDBRANCH  29  39
ENDBRANCH   1  29
TORSDOF 11
