REMARK  Name = ZINC09385629
REMARK  11 active torsions:
REMARK  status: ('A' for Active; 'I' for Inactive)
REMARK    1  A    between atoms: C_1  and  C_2
REMARK    2  A    between atoms: C_2  and  N_56
REMARK    3  A    between atoms: C_3  and  C_4
REMARK    4  A    between atoms: C_3  and  N_56
REMARK    5  A    between atoms: C_5  and  C_6
REMARK    6  A    between atoms: C_5  and  N_56
REMARK    7  A    between atoms: C_6  and  N_7
REMARK    8  A    between atoms: C_13  and  N_17
REMARK    9  A    between atoms: C_20  and  C_22
REMARK   10  A    between atoms: C_22  and  S_23
REMARK   11  A    between atoms: S_23  and  C_26
REMARK                            x       y       z     vdW  Elec       q    Type
REMARK                         _______ _______ _______ _____ _____    ______ ____
ROOT
ATOM      1  N   UNL     1       6.043   1.778  -0.046  0.00  0.00    -0.251 N 
ATOM      2  C   UNL     1       4.726   1.347  -0.053  0.00  0.00    +0.168 A 
ATOM      3  N   UNL     1       3.626   2.061  -0.058  0.00  0.00    -0.224 NA
ATOM      4  C   UNL     1       2.396   1.502  -0.065  0.00  0.00    +0.080 A 
ATOM      5  C   UNL     1       1.141   2.152  -0.072  0.00  0.00    +0.031 A 
ATOM      6  C   UNL     1      -0.023   1.428  -0.080  0.00  0.00    +0.035 A 
ATOM      7  C   UNL     1      -0.013   0.041  -0.080  0.00  0.00    +0.127 A 
ATOM      8  C   UNL     1       1.197  -0.628  -0.073  0.00  0.00    +0.050 A 
ATOM      9  C   UNL     1       2.367   0.088  -0.066  0.00  0.00    +0.043 A 
ATOM     10  S   UNL     1       4.095  -0.326  -0.057  0.00  0.00    -0.052 S 
ATOM     11  C   UNL     1       7.047   0.879  -0.041  0.00  0.00    +0.243 C 
ATOM     12  O   UNL     1       6.798  -0.308  -0.043  0.00  0.00    -0.273 OA
ENDROOT
BRANCH   7  13
ATOM     13  N   UNL     1      -1.286  -0.715  -0.087  0.00  0.00    +0.056 N 
ATOM     14  O   UNL     1      -2.348  -0.120  -0.093  0.00  0.00    -0.126 OA
ATOM     15  O   UNL     1      -1.271  -1.933  -0.088  0.00  0.00    -0.126 OA
ENDBRANCH   7  13
BRANCH   1  16
ATOM     16  C   UNL     1       6.343   3.212  -0.044  0.00  0.00    +0.097 C 
BRANCH  16  17
ATOM     17  C   UNL     1       6.441   3.711   1.399  0.00  0.00    -0.059 C 
BRANCH  17  18
ATOM     18  N   UNL     1       6.884   5.121   1.384  0.00  0.00    +0.380 N 
ATOM     19  H   UNL     1       7.629   5.229   0.685  0.00  0.00    -0.082 HD
BRANCH  18  21
ATOM     20  C   UNL     1       6.286   7.418   0.795  0.00  0.00    -0.017 C 
ATOM     21  C   UNL     1       5.754   6.002   1.021  0.00  0.00    -0.082 C 
ENDBRANCH  18  21
BRANCH  18  22
ATOM     22  C   UNL     1       7.413   5.498   2.712  0.00  0.00    -0.082 C 
ATOM     23  C   UNL     1       8.820   4.917   2.862  0.00  0.00    -0.017 C 
ENDBRANCH  18  22
ENDBRANCH  17  18
ENDBRANCH  16  17
ENDBRANCH   1  16
BRANCH  11  24
ATOM     24  C   UNL     1       8.479   1.349  -0.034  0.00  0.00    +0.267 C 
BRANCH  24  25
ATOM     25  S   UNL     1       9.586  -0.088  -0.029  0.00  0.00    +0.005 S 
ATOM     26  O   UNL     1       9.479  -0.785   1.205  0.00  0.00    -0.169 OA
ATOM     27  O   UNL     1       9.491  -0.784  -1.264  0.00  0.00    -0.169 OA
BRANCH  25  28
ATOM     28  C   UNL     1      11.211   0.593  -0.020  0.00  0.00    +0.089 A 
ATOM     29  C   UNL     1      11.857   0.855  -1.215  0.00  0.00    +0.030 A 
ATOM     30  C   UNL     1      13.129   1.393  -1.209  0.00  0.00    +0.040 A 
ATOM     31  C   UNL     1      13.762   1.661  -0.007  0.00  0.00    +0.124 A 
ATOM     32  C   UNL     1      13.117   1.393   1.188  0.00  0.00    +0.040 A 
ATOM     33  C   UNL     1      11.842   0.860   1.181  0.00  0.00    +0.030 A 
ATOM     34  F   UNL     1      15.008   2.183  -0.001  0.00  0.00    -0.205 F 
ENDBRANCH  25  28
ENDBRANCH  24  25
ENDBRANCH  11  24
TORSDOF 9
