REMARK  Name = ZINC06545699
REMARK  10 active torsions:
REMARK  status: ('A' for Active; 'I' for Inactive)
REMARK    1  A    between atoms: C_1  and  C_2
REMARK    2  A    between atoms: C_2  and  O_3
REMARK    3  A    between atoms: O_3  and  C_4
REMARK    4  A    between atoms: C_4  and  C_6
REMARK    5  A    between atoms: C_7  and  C_32
REMARK    6  A    between atoms: C_9  and  N_31
REMARK    7  A    between atoms: C_10  and  C_29
REMARK    8  A    between atoms: C_11  and  C_13
REMARK    9  A    between atoms: C_17  and  C_28
REMARK   10  A    between atoms: C_21  and  N_22
REMARK                            x       y       z     vdW  Elec       q    Type
REMARK                         _______ _______ _______ _____ _____    ______ ____
ROOT
ATOM      1  C   UNL     1      -0.360   3.745   3.926  0.00  0.00    +0.004 A 
ATOM      2  C   UNL     1      -0.716   4.692   3.013  0.00  0.00    +0.018 A 
ATOM      3  C   UNL     1      -0.329   6.027   3.250  0.00  0.00    -0.001 A 
ATOM      4  C   UNL     1      -0.663   7.053   2.352  0.00  0.00    +0.013 A 
ATOM      5  C   UNL     1      -0.272   8.331   2.613  0.00  0.00    -0.050 A 
ATOM      6  C   UNL     1       0.456   8.635   3.761  0.00  0.00    +0.005 A 
ATOM      7  C   UNL     1       0.796   7.665   4.653  0.00  0.00    +0.026 A 
ATOM      8  C   UNL     1       0.411   6.334   4.418  0.00  0.00    +0.048 A 
ATOM      9  C   UNL     1       0.369   4.113   5.066  0.00  0.00    +0.103 A 
ATOM     10  C   UNL     1      -0.632   9.431   1.647  0.00  0.00    +0.044 C 
ATOM     11  N   UNL     1       0.772   5.378   5.342  0.00  0.00    -0.343 N 
ATOM     12  H   UNL     1       1.311   5.609   6.185  0.00  0.00    +0.167 HD
ENDROOT
BRANCH   1  18
ATOM     13  C   UNL     1      -0.198   1.825   2.400  0.00  0.00    +0.087 C 
ATOM     14  C   UNL     1      -0.983   1.690   1.324  0.00  0.00    +0.115 C 
ATOM     15  O   UNL     1      -2.292   1.979   1.353  0.00  0.00    -0.445 OA
ATOM     16  C   UNL     1      -2.928   2.035   2.538  0.00  0.00    +0.198 C 
ATOM     17  C   UNL     1      -2.254   2.194   3.702  0.00  0.00    +0.098 C 
ATOM     18  C   UNL     1      -0.753   2.306   3.713  0.00  0.00    +0.108 C 
ATOM     19  C   UNL     1      -0.374   1.203   0.035  0.00  0.00    +0.087 C 
BRANCH  16  20
ATOM     20  N   UNL     1      -4.297   1.935   2.567  0.00  0.00    -0.328 N 
ATOM     21  H   UNL     1      -4.768   1.978   3.414  0.00  0.00    +0.145 HD
ATOM     22  H   UNL     1      -4.793   1.821   1.742  0.00  0.00    +0.145 HD
ENDBRANCH  16  20
BRANCH  13  23
ATOM     23  C   UNL     1       1.180   1.509   2.301  0.00  0.00    +0.339 C 
ATOM     24  O   UNL     1       1.661   1.219   1.222  0.00  0.00    -0.245 OA
BRANCH  23  25
ATOM     25  O   UNL     1       1.958   1.529   3.403  0.00  0.00    -0.462 OA
BRANCH  25  27
ATOM     26  C   UNL     1       4.054   1.276   4.579  0.00  0.00    +0.048 C 
ATOM     27  C   UNL     1       3.337   1.200   3.229  0.00  0.00    +0.229 C 
ENDBRANCH  25  27
ENDBRANCH  23  25
ENDBRANCH  13  23
BRANCH  17  28
ATOM     28  C   UNL     1      -2.977   2.255   4.937  0.00  0.00    +0.101 C 
ATOM     29  N   UNL     1      -3.551   2.304   5.916  0.00  0.00    -0.191 NA
ENDBRANCH  17  28
ENDBRANCH   1  18
BRANCH   9  30
ATOM     30  N   UNL     1       0.719   3.139   5.989  0.00  0.00    -0.316 N 
ATOM     31  C   UNL     1      -0.323   2.983   7.011  0.00  0.00    +0.106 C 
ATOM     32  C   UNL     1       0.027   1.806   7.924  0.00  0.00    +0.019 C 
ATOM     33  C   UNL     1       1.383   2.066   8.586  0.00  0.00    +0.003 C 
ATOM     34  C   UNL     1       2.442   2.273   7.500  0.00  0.00    +0.019 C 
ATOM     35  C   UNL     1       2.021   3.437   6.599  0.00  0.00    +0.106 C 
ENDBRANCH   9  30
TORSDOF 7
