REMARK  Name = ZINC38775699
REMARK  10 active torsions:
REMARK  status: ('A' for Active; 'I' for Inactive)
REMARK    1  A    between atoms: C_1  and  C_2
REMARK    2  A    between atoms: C_2  and  O_3
REMARK    3  A    between atoms: O_3  and  C_4
REMARK    4  A    between atoms: C_9  and  O_10
REMARK    5  A    between atoms: O_10  and  C_11
REMARK    6  A    between atoms: C_15  and  C_17
REMARK    7  A    between atoms: C_20  and  O_24
REMARK    8  A    between atoms: C_22  and  O_23
REMARK    9  A    between atoms: O_24  and  C_25
REMARK   10  A    between atoms: C_25  and  C_26
REMARK                            x       y       z     vdW  Elec       q    Type
REMARK                         _______ _______ _______ _____ _____    ______ ____
ROOT
ATOM      1  C   UNL     1       2.169  -0.247  -6.297  0.00  0.00    +0.025 A 
ATOM      2  C   UNL     1       1.509  -0.663  -7.438  0.00  0.00    +0.013 A 
ATOM      3  C   UNL     1       0.587   0.166  -8.047  0.00  0.00    +0.046 A 
ATOM      4  C   UNL     1       0.321   1.419  -7.514  0.00  0.00    +0.124 A 
ATOM      5  C   UNL     1       0.982   1.839  -6.370  0.00  0.00    +0.091 A 
ATOM      6  C   UNL     1       1.902   1.003  -5.758  0.00  0.00    +0.126 A 
ENDROOT
BRANCH   1  11
ATOM      7  C   UNL     1       2.523  -1.954  -4.519  0.00  0.00    +0.154 C 
ATOM      8  C   UNL     1       2.667  -3.234  -4.920  0.00  0.00    +0.176 C 
ATOM      9  N   UNL     1       3.305  -3.294  -6.094  0.00  0.00    -0.182 NA
ATOM     10  N   UNL     1       3.627  -2.202  -6.566  0.00  0.00    -0.294 N 
ATOM     11  C   UNL     1       3.174  -1.154  -5.635  0.00  0.00    +0.199 C 
ATOM     12  H   UNL     1       4.094  -2.058  -7.404  0.00  0.00    +0.184 HD
BRANCH   7  13
ATOM     13  O   UNL     1       1.936  -1.492  -3.395  0.00  0.00    -0.453 OA
BRANCH  13  19
ATOM     14  C   UNL     1       2.146  -0.282  -1.352  0.00  0.00    +0.162 A 
ATOM     15  C   UNL     1       2.952   0.333  -0.407  0.00  0.00    +0.049 A 
ATOM     16  C   UNL     1       4.323   0.357  -0.579  0.00  0.00    +0.004 A 
ATOM     17  C   UNL     1       4.894  -0.232  -1.692  0.00  0.00    +0.004 A 
ATOM     18  C   UNL     1       4.097  -0.848  -2.638  0.00  0.00    +0.050 A 
ATOM     19  C   UNL     1       2.721  -0.881  -2.469  0.00  0.00    +0.170 A 
BRANCH  14  20
ATOM     20  O   UNL     1       0.797  -0.306  -1.185  0.00  0.00    -0.489 OA
BRANCH  20  22
ATOM     21  C   UNL     1      -1.248   0.200  -0.000  0.00  0.00    +0.048 C 
ATOM     22  C   UNL     1       0.276   0.328  -0.015  0.00  0.00    +0.226 C 
ENDBRANCH  20  22
ENDBRANCH  14  20
ENDBRANCH  13  19
ENDBRANCH   7  13
ENDBRANCH   1  11
BRANCH   6  23
ATOM     23  O   UNL     1       2.546   1.409  -4.632  0.00  0.00    -0.506 OA
ATOM     24  H   UNL     1       3.376   1.877  -4.801  0.00  0.00    +0.292 HD
ENDBRANCH   6  23
BRANCH   4  25
ATOM     25  O   UNL     1      -0.585   2.235  -8.114  0.00  0.00    -0.487 OA
BRANCH  25  26
ATOM     26  C   UNL     1      -1.227   1.738  -9.290  0.00  0.00    +0.264 C 
BRANCH  26  27
ATOM     27  C   UNL     1      -2.191   2.772  -9.812  0.00  0.00    -0.009 A 
ATOM     28  C   UNL     1      -3.502   2.778  -9.373  0.00  0.00    +0.007 A 
ATOM     29  C   UNL     1      -4.387   3.726  -9.851  0.00  0.00    +0.002 A 
ATOM     30  C   UNL     1      -3.962   4.668 -10.769  0.00  0.00    +0.020 A 
ATOM     31  C   UNL     1      -2.651   4.662 -11.209  0.00  0.00    +0.041 A 
ATOM     32  C   UNL     1      -1.764   3.717 -10.725  0.00  0.00    +0.027 A 
ATOM     33 CL   UNL     1      -2.116   5.845 -12.361  0.00  0.00    -0.084 Cl
ENDBRANCH  26  27
ENDBRANCH  25  26
ENDBRANCH   4  25
TORSDOF 9
