REMARK  Name = ZINC06282540
REMARK  10 active torsions:
REMARK  status: ('A' for Active; 'I' for Inactive)
REMARK    1  A    between atoms: C_1  and  O_2
REMARK    2  A    between atoms: O_2  and  C_3
REMARK    3  A    between atoms: C_10  and  C_15
REMARK    4  A    between atoms: C_15  and  N_65
REMARK    5  A    between atoms: C_16  and  C_17
REMARK    6  A    between atoms: C_16  and  N_65
REMARK    7  A    between atoms: C_26  and  C_27
REMARK    8  A    between atoms: C_26  and  N_65
REMARK    9  A    between atoms: N_31  and  C_32
REMARK   10  A    between atoms: C_32  and  C_33
REMARK                            x       y       z     vdW  Elec       q    Type
REMARK                         _______ _______ _______ _____ _____    ______ ____
ROOT
ATOM      1  N   UNL     1      -2.576   7.892   7.128  0.00  0.00    +0.390 N 
ATOM      2  H   UNL     1      -1.730   8.235   6.660  0.00  0.00    -0.080 HD
ENDROOT
BRANCH   1   3
ATOM      3  C   UNL     1      -3.642   7.710   6.120  0.00  0.00    -0.036 C 
BRANCH   3  11
ATOM      4  C   UNL     1      -2.470   2.651   2.735  0.00  0.00    +0.121 A 
ATOM      5  C   UNL     1      -1.754   3.304   1.734  0.00  0.00    +0.047 A 
ATOM      6  C   UNL     1      -1.553   4.665   1.788  0.00  0.00    +0.030 A 
ATOM      7  C   UNL     1      -2.067   5.402   2.850  0.00  0.00    +0.049 A 
ATOM      8  C   UNL     1      -2.790   4.746   3.865  0.00  0.00    +0.002 A 
ATOM      9  C   UNL     1      -2.993   3.364   3.795  0.00  0.00    +0.055 A 
ATOM     10  C   UNL     1      -3.325   5.534   4.977  0.00  0.00    +0.017 A 
ATOM     11  C   UNL     1      -3.104   6.871   4.990  0.00  0.00    +0.001 A 
ATOM     12  C   UNL     1      -2.372   7.481   3.948  0.00  0.00    +0.251 A 
ATOM     13  O   UNL     1      -2.185   8.685   3.979  0.00  0.00    -0.268 OA
ATOM     14  N   UNL     1      -1.877   6.767   2.923  0.00  0.00    -0.322 N 
ATOM     15  H   UNL     1      -1.378   7.218   2.223  0.00  0.00    +0.169 HD
BRANCH   4  17
ATOM     16  C   UNL     1      -2.096   0.630   1.539  0.00  0.00    +0.277 C 
ATOM     17  O   UNL     1      -2.659   1.307   2.665  0.00  0.00    -0.495 OA
ENDBRANCH   4  17
ENDBRANCH   3  11
ENDBRANCH   1   3
BRANCH   1  18
ATOM     18  C   UNL     1      -2.274   6.601   7.782  0.00  0.00    -0.042 C 
BRANCH  18  19
ATOM     19  C   UNL     1      -1.110   6.790   8.720  0.00  0.00    -0.060 A 
ATOM     20  C   UNL     1       0.179   6.573   8.271  0.00  0.00    +0.005 A 
ATOM     21  C   UNL     1       1.251   6.750   9.126  0.00  0.00    +0.050 A 
ATOM     22  C   UNL     1       1.034   7.134  10.440  0.00  0.00    +0.166 A 
ATOM     23  C   UNL     1      -0.266   7.347  10.893  0.00  0.00    +0.166 A 
ATOM     24  C   UNL     1      -1.334   7.173  10.029  0.00  0.00    +0.051 A 
ATOM     25  O   UNL     1      -0.215   7.713  12.207  0.00  0.00    -0.453 OA
ATOM     26  C   UNL     1       1.147   8.119  12.440  0.00  0.00    +0.466 C 
ATOM     27  O   UNL     1       1.899   7.367  11.469  0.00  0.00    -0.453 OA
ENDBRANCH  18  19
ENDBRANCH   1  18
BRANCH   1  28
ATOM     28  C   UNL     1      -3.001   8.882   8.140  0.00  0.00    +0.001 C 
BRANCH  28  29
ATOM     29  C   UNL     1      -3.149  10.226   7.473  0.00  0.00    +0.135 A 
ATOM     30  N   UNL     1      -4.247  10.730   6.963  0.00  0.00    -0.115 NA
ATOM     31  N   UNL     1      -3.966  11.894   6.488  0.00  0.00    -0.023 NA
ATOM     32  N   UNL     1      -2.719  12.146   6.681  0.00  0.00    -0.044 NA
ATOM     33  N   UNL     1      -2.182  11.143   7.291  0.00  0.00    -0.229 N 
BRANCH  33  34
ATOM     34  C   UNL     1      -0.781  11.025   7.703  0.00  0.00    +0.178 C 
BRANCH  34  35
ATOM     35  C   UNL     1       0.068  10.587   6.508  0.00  0.00    +0.140 C 
ATOM     36  C   UNL     1       1.560  10.491   6.914  0.00  0.00    +0.035 C 
ATOM     37  C   UNL     1       2.085   9.471   5.866  0.00  0.00    +0.031 C 
ATOM     38  C   UNL     1       0.867   8.541   5.673  0.00  0.00    +0.160 C 
ATOM     39  O   UNL     1      -0.297   9.259   6.097  0.00  0.00    -0.375 OA
ENDBRANCH  34  35
ENDBRANCH  33  34
ENDBRANCH  28  29
ENDBRANCH   1  28
TORSDOF 9
