REMARK  Name = ZINC44737012
REMARK  9 active torsions:
REMARK  status: ('A' for Active; 'I' for Inactive)
REMARK    1  A    between atoms: C_1  and  C_2
REMARK    2  A    between atoms: C_2  and  C_3
REMARK    3  A    between atoms: C_3  and  C_4
REMARK    4  A    between atoms: C_4  and  C_5
REMARK    5  A    between atoms: C_9  and  C_18
REMARK    6  A    between atoms: N_20  and  C_21
REMARK    7  A    between atoms: C_21  and  C_23
REMARK    8  A    between atoms: C_21  and  C_24
REMARK    9  A    between atoms: C_29  and  C_33
REMARK                            x       y       z     vdW  Elec       q    Type
REMARK                         _______ _______ _______ _____ _____    ______ ____
ROOT
ATOM      1  C   UNL     1       1.553  -2.530  -2.627  0.00  0.00    +0.216 C 
ATOM      2  O   UNL     1       1.958  -1.756  -3.469  0.00  0.00    -0.276 OA
ATOM      3  N   UNL     1       1.644  -3.859  -2.835  0.00  0.00    -0.300 N 
ATOM      4  C   UNL     1       1.203  -4.951  -1.935  0.00  0.00    +0.121 C 
ATOM      5  C   UNL     1       0.600  -6.015  -2.880  0.00  0.00    +0.100 C 
ATOM      6  C   UNL     1       1.264  -5.753  -4.242  0.00  0.00    -0.004 C 
ATOM      7  C   UNL     1       2.202  -4.558  -4.017  0.00  0.00    +0.115 C 
ATOM      8  C   UNL     1       0.209  -5.399  -5.285  0.00  0.00    -0.010 C 
ATOM      9  C   UNL     1       0.888  -5.199  -6.643  0.00  0.00    -0.082 C 
ATOM     10  N   UNL     1       1.591  -6.429  -7.027  0.00  0.00    +0.379 N 
ATOM     11  C   UNL     1       2.666  -6.712  -6.067  0.00  0.00    -0.082 C 
ATOM     12  C   UNL     1       2.062  -6.976  -4.685  0.00  0.00    -0.010 C 
ATOM     13  H   UNL     1       0.939  -7.199  -7.035  0.00  0.00    -0.086 HD
ATOM     14  H   UNL     1       1.986  -6.316  -7.948  0.00  0.00    -0.086 HD
ENDROOT
BRANCH   5  15
ATOM     15  C   UNL     1       0.931  -7.401  -2.389  0.00  0.00    +0.219 C 
ATOM     16  O   UNL     1       1.964  -7.599  -1.785  0.00  0.00    -0.275 OA
ATOM     17  N   UNL     1       0.081  -8.420  -2.622  0.00  0.00    -0.305 N 
ATOM     18  H   UNL     1      -0.745  -8.261  -3.106  0.00  0.00    +0.149 HD
BRANCH  17  19
ATOM     19  C   UNL     1       0.403  -9.767  -2.146  0.00  0.00    +0.136 C 
ATOM     20  C   UNL     1      -0.049  -9.915  -0.692  0.00  0.00    +0.036 C 
BRANCH  19  21
ATOM     21  C   UNL     1      -0.307 -10.785  -2.999  0.00  0.00    +0.128 A 
ATOM     22  N   UNL     1      -1.397 -10.562  -3.674  0.00  0.00    -0.231 NA
ATOM     23  C   UNL     1      -1.766 -11.691  -4.331  0.00  0.00    +0.089 A 
ATOM     24  C   UNL     1      -2.830 -12.008  -5.180  0.00  0.00    +0.030 A 
ATOM     25  C   UNL     1      -2.935 -13.268  -5.699  0.00  0.00    +0.005 A 
ATOM     26  C   UNL     1      -1.995 -14.241  -5.392  0.00  0.00    -0.048 A 
ATOM     27  C   UNL     1      -0.937 -13.951  -4.557  0.00  0.00    +0.031 A 
ATOM     28  C   UNL     1      -0.814 -12.676  -4.020  0.00  0.00    +0.067 A 
ATOM     29  N   UNL     1       0.100 -12.071  -3.180  0.00  0.00    -0.340 N 
ATOM     30  C   UNL     1      -2.131 -15.623  -5.975  0.00  0.00    +0.044 C 
ATOM     31  H   UNL     1       0.885 -12.485  -2.790  0.00  0.00    +0.167 HD
ENDBRANCH  19  21
ENDBRANCH  17  19
ENDBRANCH   5  15
BRANCH   1  32
ATOM     32  C   UNL     1       0.949  -2.007  -1.350  0.00  0.00    +0.096 C 
BRANCH  32  33
ATOM     33  C   UNL     1       0.966  -0.477  -1.367  0.00  0.00    +0.009 C 
BRANCH  33  35
ATOM     34  C   UNL     1       0.370   1.584  -0.087  0.00  0.00    +0.004 C 
ATOM     35  C   UNL     1       0.353   0.054  -0.070  0.00  0.00    -0.003 C 
ENDBRANCH  33  35
ENDBRANCH  32  33
ENDBRANCH   1  32
TORSDOF 6
