REMARK  Name = ZINC36772661
REMARK  7 active torsions:
REMARK  status: ('A' for Active; 'I' for Inactive)
REMARK    1  A    between atoms: C_1  and  C_2
REMARK    2  A    between atoms: C_2  and  O_3
REMARK    3  A    between atoms: O_3  and  C_4
REMARK    4  A    between atoms: C_4  and  C_6
REMARK    5  A    between atoms: C_7  and  C_21
REMARK    6  A    between atoms: C_12  and  C_14
REMARK    7  A    between atoms: C_21  and  N_22
REMARK                            x       y       z     vdW  Elec       q    Type
REMARK                         _______ _______ _______ _____ _____    ______ ____
ROOT
ATOM      1  C   UNL     1       1.344  -2.337  -2.522  0.00  0.00    +0.080 C 
ATOM      2  C   UNL     1       1.628  -3.654  -2.615  0.00  0.00    +0.042 C 
ATOM      3  N   UNL     1       2.338  -4.149  -3.671  0.00  0.00    -0.271 N 
ATOM      4  C   UNL     1       2.800  -3.393  -4.675  0.00  0.00    +0.304 C 
ATOM      5  O   UNL     1       3.424  -3.925  -5.572  0.00  0.00    -0.252 OA
ATOM      6  N   UNL     1       2.597  -2.062  -4.722  0.00  0.00    -0.288 N 
ATOM      7  C   UNL     1       1.835  -1.430  -3.631  0.00  0.00    +0.144 C 
ATOM      8  H   UNL     1       2.518  -5.102  -3.696  0.00  0.00    +0.156 HD
ATOM      9  H   UNL     1       2.942  -1.532  -5.458  0.00  0.00    +0.151 HD
ENDROOT
BRANCH   7  10
ATOM     10  C   UNL     1       2.711  -0.371  -3.012  0.00  0.00    -0.022 A 
ATOM     11  C   UNL     1       4.025  -0.660  -2.694  0.00  0.00    +0.007 A 
ATOM     12  C   UNL     1       4.829   0.310  -2.126  0.00  0.00    +0.020 A 
ATOM     13  C   UNL     1       4.318   1.571  -1.875  0.00  0.00    +0.041 A 
ATOM     14  C   UNL     1       3.002   1.860  -2.194  0.00  0.00    +0.020 A 
ATOM     15  C   UNL     1       2.201   0.890  -2.767  0.00  0.00    +0.007 A 
ATOM     16 CL   UNL     1       5.326   2.791  -1.161  0.00  0.00    -0.084 Cl
ENDBRANCH   7  10
BRANCH   1  17
ATOM     17  C   UNL     1       0.608  -1.823  -1.429  0.00  0.00    +0.339 C 
ATOM     18  O   UNL     1      -0.571  -1.552  -1.563  0.00  0.00    -0.245 OA
BRANCH  17  19
ATOM     19  O   UNL     1       1.212  -1.634  -0.237  0.00  0.00    -0.462 OA
BRANCH  19  21
ATOM     20  C   UNL     1       1.260  -0.967   2.085  0.00  0.00    +0.048 C 
ATOM     21  C   UNL     1       0.408  -1.112   0.823  0.00  0.00    +0.229 C 
ENDBRANCH  19  21
ENDBRANCH  17  19
ENDBRANCH   1  17
BRANCH   2  22
ATOM     22  C   UNL     1       1.153  -4.593  -1.536  0.00  0.00    +0.169 C 
BRANCH  22  23
ATOM     23  N   UNL     1       0.185  -5.537  -2.100  0.00  0.00    -0.219 N 
ATOM     24  C   UNL     1      -1.143  -5.318  -2.150  0.00  0.00    +0.247 C 
ATOM     25  O   UNL     1      -1.739  -4.342  -1.748  0.00  0.00    -0.273 OA
ATOM     26  C   UNL     1      -1.741  -6.548  -2.812  0.00  0.00    +0.113 C 
ATOM     27  C   UNL     1      -2.327  -6.113  -4.175  0.00  0.00    +0.035 C 
ATOM     28  C   UNL     1      -2.390  -7.311  -5.081  0.00  0.00    +0.003 C 
ATOM     29  C   UNL     1      -3.760  -8.015  -5.041  0.00  0.00    +0.000 C 
ATOM     30  C   UNL     1      -4.332  -8.129  -3.615  0.00  0.00    +0.000 C 
ATOM     31  C   UNL     1      -3.279  -8.503  -2.606  0.00  0.00    +0.003 C 
ATOM     32  C   UNL     1      -2.731  -7.210  -1.973  0.00  0.00    +0.035 C 
ATOM     33  N   UNL     1      -0.561  -7.396  -3.078  0.00  0.00    -0.285 N 
ATOM     34  C   UNL     1       0.512  -6.718  -2.635  0.00  0.00    +0.310 C 
ATOM     35  O   UNL     1       1.651  -7.133  -2.709  0.00  0.00    -0.252 OA
ATOM     36  H   UNL     1      -0.560  -8.272  -3.495  0.00  0.00    +0.151 HD
ENDBRANCH  22  23
ENDBRANCH   2  22
TORSDOF 6
