REMARK  Name = ZINC08881008
REMARK  15 active torsions:
REMARK  status: ('A' for Active; 'I' for Inactive)
REMARK    1  A    between atoms: C_1  and  C_2
REMARK    2  A    between atoms: C_2  and  C_3
REMARK    3  A    between atoms: C_3  and  C_4
REMARK    4  A    between atoms: C_4  and  N_5
REMARK    5  A    between atoms: N_5  and  C_6
REMARK    6  A    between atoms: N_5  and  S_7
REMARK    7  A    between atoms: S_7  and  C_10
REMARK    8  A    between atoms: C_13  and  C_16
REMARK    9  A    between atoms: N_18  and  C_19
REMARK   10  A    between atoms: C_20  and  C_30
REMARK   11  A    between atoms: C_27  and  C_28
REMARK   12  A    between atoms: C_27  and  N_67
REMARK   13  A    between atoms: C_28  and  C_29
REMARK   14  A    between atoms: C_30  and  O_32
REMARK   15  A    between atoms: O_32  and  C_33
REMARK                            x       y       z     vdW  Elec       q    Type
REMARK                         _______ _______ _______ _____ _____    ______ ____
ROOT
ATOM      1  C   UNL     1      -3.119   3.065   4.886  0.00  0.00    +0.249 C 
ATOM      2  O   UNL     1      -3.927   2.303   5.378  0.00  0.00    -0.270 OA
ATOM      3  N   UNL     1      -2.918   4.280   5.433  0.00  0.00    -0.275 N 
ATOM      4  H   UNL     1      -2.273   4.889   5.040  0.00  0.00    +0.156 HD
ENDROOT
BRANCH   3   5
ATOM      5  C   UNL     1      -3.633   4.660   6.557  0.00  0.00    +0.086 A 
ATOM      6  C   UNL     1      -3.567   5.859   7.258  0.00  0.00    +0.091 A 
ATOM      7  C   UNL     1      -4.432   6.005   8.413  0.00  0.00    -0.025 A 
ATOM      8  C   UNL     1      -5.220   4.940   8.684  0.00  0.00    -0.021 A 
ATOM      9  S   UNL     1      -4.832   3.760   7.425  0.00  0.00    -0.079 S 
ATOM     10  C   UNL     1      -6.199   4.822   9.810  0.00  0.00    -0.035 C 
ATOM     11  C   UNL     1      -5.796   7.194  10.102  0.00  0.00    -0.074 C 
ATOM     12  C   UNL     1      -4.495   7.247   9.295  0.00  0.00    +0.018 C 
ATOM     13  N   UNL     1      -5.892   5.891  10.792  0.00  0.00    +0.383 N 
ATOM     14  H   UNL     1      -4.992   5.684  11.241  0.00  0.00    -0.081 HD
BRANCH   6  15
ATOM     15  C   UNL     1      -2.659   6.932   6.846  0.00  0.00    +0.342 C 
ATOM     16  O   UNL     1      -3.037   7.779   6.059  0.00  0.00    -0.245 OA
BRANCH  15  17
ATOM     17  O   UNL     1      -1.405   6.981   7.340  0.00  0.00    -0.464 OA
ATOM     18  C   UNL     1      -0.561   8.072   6.888  0.00  0.00    +0.280 C 
ENDBRANCH  15  17
ENDBRANCH   6  15
BRANCH  13  19
ATOM     19  C   UNL     1      -6.945   5.943  11.829  0.00  0.00    -0.079 C 
BRANCH  19  20
ATOM     20  C   UNL     1      -8.283   6.354  11.211  0.00  0.00    -0.022 C 
ATOM     21  C   UNL     1      -9.354   6.404  12.302  0.00  0.00    +0.002 C 
ENDBRANCH  19  20
ENDBRANCH  13  19
ENDBRANCH   3   5
BRANCH   1  25
ATOM     22  C   UNL     1      -0.927   1.900   1.439  0.00  0.00    +0.106 A 
ATOM     23  C   UNL     1      -0.715   3.146   2.002  0.00  0.00    +0.029 A 
ATOM     24  C   UNL     1      -1.427   3.533   3.118  0.00  0.00    +0.015 A 
ATOM     25  C   UNL     1      -2.356   2.660   3.687  0.00  0.00    +0.037 A 
ATOM     26  C   UNL     1      -2.561   1.402   3.117  0.00  0.00    +0.015 A 
ATOM     27  C   UNL     1      -1.846   1.030   1.998  0.00  0.00    +0.029 A 
BRANCH  22  28
ATOM     28  S   UNL     1      -0.017   1.417   0.010  0.00  0.00    +0.061 S 
ATOM     29  O   UNL     1       0.002  -0.004   0.002  0.00  0.00    -0.153 OA
ATOM     30  O   UNL     1       1.172   2.195   0.003  0.00  0.00    -0.153 OA
BRANCH  28  31
ATOM     31  N   UNL     1      -0.897   1.885  -1.312  0.00  0.00    -0.180 NA
ATOM     32  C   UNL     1      -0.691   3.213  -1.897  0.00  0.00    +0.131 C 
BRANCH  31  33
ATOM     33  C   UNL     1      -1.883   0.973  -1.897  0.00  0.00    +0.109 C 
BRANCH  33  34
ATOM     34  C   UNL     1      -3.267   1.280  -1.323  0.00  0.00    +0.017 C 
BRANCH  34  36
ATOM     35  C   UNL     1      -5.680   0.634  -1.359  0.00  0.00    +0.004 C 
ATOM     36  C   UNL     1      -4.296   0.327  -1.934  0.00  0.00    -0.002 C 
ENDBRANCH  34  36
ENDBRANCH  33  34
ENDBRANCH  31  33
ENDBRANCH  28  31
ENDBRANCH  22  28
ENDBRANCH   1  25
TORSDOF 11
