REMARK  Name = ZINC30986695
REMARK  9 active torsions:
REMARK  status: ('A' for Active; 'I' for Inactive)
REMARK    1  A    between atoms: C_1  and  C_2
REMARK    2  A    between atoms: C_2  and  O_3
REMARK    3  A    between atoms: O_3  and  C_4
REMARK    4  A    between atoms: C_4  and  C_6
REMARK    5  A    between atoms: C_10  and  N_11
REMARK    6  A    between atoms: C_12  and  C_14
REMARK    7  A    between atoms: N_17  and  C_20
REMARK    8  A    between atoms: C_20  and  C_21
REMARK    9  A    between atoms: C_23  and  C_26
REMARK                            x       y       z     vdW  Elec       q    Type
REMARK                         _______ _______ _______ _____ _____    ______ ____
ROOT
ATOM      1  C   UNL     1      -2.075   1.435   7.289  0.00  0.00    +0.072 C 
ATOM      2  C   UNL     1      -2.541  -0.019   7.413  0.00  0.00    -0.006 C 
ATOM      3  C   UNL     1      -2.604  -0.405   8.892  0.00  0.00    -0.077 C 
ATOM      4  N   UNL     1      -3.536   0.488   9.593  0.00  0.00    +0.386 N 
ATOM      5  C   UNL     1      -3.084   1.883   9.529  0.00  0.00    -0.077 C 
ATOM      6  C   UNL     1      -3.035   2.338   8.068  0.00  0.00    -0.006 C 
ATOM      7  H   UNL     1      -4.508   0.426   9.082  0.00  0.00    -0.081 HD
ENDROOT
BRANCH   1   9
ATOM      8  N   UNL     1      -1.290   1.179   4.957  0.00  0.00    -0.279 N 
ATOM      9  C   UNL     1      -2.068   1.840   5.838  0.00  0.00    +0.221 C 
ATOM     10  O   UNL     1      -2.762   2.760   5.462  0.00  0.00    -0.275 OA
ATOM     11  H   UNL     1      -0.660   0.344   5.298  0.00  0.00    +0.155 HD
BRANCH   8  16
ATOM     12  C   UNL     1      -0.558   0.998   2.575  0.00  0.00    +0.091 A 
ATOM     13  C   UNL     1      -0.732   1.580   1.257  0.00  0.00    -0.021 A 
ATOM     14  C   UNL     1      -1.601   2.614   1.194  0.00  0.00    -0.004 A 
ATOM     15  S   UNL     1      -2.179   2.821   2.855  0.00  0.00    -0.077 S 
ATOM     16  C   UNL     1      -1.284   1.552   3.623  0.00  0.00    +0.086 A 
ATOM     17  C   UNL     1      -1.979   3.405  -0.021  0.00  0.00    +0.043 C 
ATOM     18  C   UNL     1      -0.956   3.111  -1.127  0.00  0.00    +0.005 C 
ATOM     19  C   UNL     1      -0.758   1.595  -1.227  0.00  0.00    +0.005 C 
ATOM     20  C   UNL     1      -0.013   1.086   0.008  0.00  0.00    +0.037 C 
BRANCH  12  21
ATOM     21  C   UNL     1       0.349  -0.130   2.793  0.00  0.00    +0.342 C 
ATOM     22  O   UNL     1      -0.062  -1.270   2.693  0.00  0.00    -0.245 OA
BRANCH  21  23
ATOM     23  O   UNL     1       1.642   0.095   3.105  0.00  0.00    -0.461 OA
BRANCH  23  25
ATOM     24  C   UNL     1       3.906  -0.620   3.650  0.00  0.00    +0.048 C 
ATOM     25  C   UNL     1       2.485  -1.071   3.307  0.00  0.00    +0.229 C 
ENDBRANCH  23  25
ENDBRANCH  21  23
ENDBRANCH  12  21
ENDBRANCH   8  16
ENDBRANCH   1   9
BRANCH   4  26
ATOM     26  C   UNL     1      -3.728   0.060  10.985  0.00  0.00    +0.022 C 
BRANCH  26  27
ATOM     27  C   UNL     1      -4.419  -1.278  11.009  0.00  0.00    +0.211 A 
ATOM     28  N   UNL     1      -3.840  -2.453  11.002  0.00  0.00    -0.193 NA
ATOM     29  C   UNL     1      -4.848  -3.355  11.031  0.00  0.00    +0.202 A 
ATOM     30  N   UNL     1      -5.968  -2.681  11.054  0.00  0.00    -0.056 NA
ATOM     31  O   UNL     1      -5.739  -1.490  11.047  0.00  0.00    -0.340 OA
BRANCH  29  32
ATOM     32  C   UNL     1      -4.708  -4.832  11.036  0.00  0.00    +0.023 A 
ATOM     33  C   UNL     1      -3.443  -5.415  11.002  0.00  0.00    +0.013 A 
ATOM     34  C   UNL     1      -3.318  -6.789  11.013  0.00  0.00    +0.021 A 
ATOM     35  C   UNL     1      -4.448  -7.589  11.044  0.00  0.00    +0.041 A 
ATOM     36  C   UNL     1      -5.707  -7.014  11.072  0.00  0.00    +0.021 A 
ATOM     37  C   UNL     1      -5.842  -5.641  11.068  0.00  0.00    +0.013 A 
ATOM     38 CL   UNL     1      -4.284  -9.317  11.049  0.00  0.00    -0.084 Cl
ENDBRANCH  29  32
ENDBRANCH  26  27
ENDBRANCH   4  26
TORSDOF 8
