REMARK  Name = ZINC04177430
REMARK  8 active torsions:
REMARK  status: ('A' for Active; 'I' for Inactive)
REMARK    1  A    between atoms: C_1  and  C_2
REMARK    2  A    between atoms: C_9  and  N_14
REMARK    3  A    between atoms: C_10  and  C_11
REMARK    4  A    between atoms: C_15  and  C_17
REMARK    5  A    between atoms: C_20  and  S_23
REMARK    6  A    between atoms: S_23  and  N_26
REMARK    7  A    between atoms: C_28  and  C_35
REMARK    8  A    between atoms: C_31  and  C_34
REMARK                            x       y       z     vdW  Elec       q    Type
REMARK                         _______ _______ _______ _____ _____    ______ ____
ROOT
ATOM      1  N   UNL     1       1.941  -5.825   1.699  0.00  0.00    -0.275 N 
ATOM      2  C   UNL     1       2.251  -6.085   2.985  0.00  0.00    +0.249 C 
ATOM      3  O   UNL     1       2.231  -5.190   3.808  0.00  0.00    -0.270 OA
ATOM      4  H   UNL     1       1.958  -6.539   1.043  0.00  0.00    +0.156 HD
ENDROOT
BRANCH   1  12
ATOM      5  C   UNL     1      -0.019   1.526   0.010  0.00  0.00    +0.008 C 
ATOM      6  C   UNL     1       0.002  -0.004   0.002  0.00  0.00    -0.009 C 
ATOM      7  C   UNL     1       0.724  -0.500  -1.254  0.00  0.00    +0.008 C 
ATOM      8  C   UNL     1       0.537  -2.012  -1.399  0.00  0.00    +0.037 C 
ATOM      9  C   UNL     1       0.935  -2.680  -0.091  0.00  0.00    -0.023 A 
ATOM     10  C   UNL     1       1.019  -1.977   1.059  0.00  0.00    -0.004 A 
ATOM     11  S   UNL     1       1.508  -3.164   2.276  0.00  0.00    -0.077 S 
ATOM     12  C   UNL     1       1.599  -4.539   1.315  0.00  0.00    +0.085 A 
ATOM     13  C   UNL     1       1.254  -4.090   0.050  0.00  0.00    +0.068 A 
ATOM     14  C   UNL     1       0.750  -0.515   1.242  0.00  0.00    +0.046 C 
BRANCH  13  15
ATOM     15  C   UNL     1       1.212  -5.001  -1.099  0.00  0.00    +0.244 C 
ATOM     16  O   UNL     1       2.208  -5.170  -1.778  0.00  0.00    -0.270 OA
ATOM     17  N   UNL     1       0.071  -5.651  -1.402  0.00  0.00    -0.325 N 
ATOM     18  H   UNL     1      -0.722  -5.516  -0.860  0.00  0.00    +0.145 HD
ATOM     19  H   UNL     1       0.043  -6.254  -2.161  0.00  0.00    +0.145 HD
ENDBRANCH  13  15
ENDBRANCH   1  12
BRANCH   2  20
ATOM     20  C   UNL     1       2.616  -7.457   3.394  0.00  0.00    +0.037 A 
ATOM     21  C   UNL     1       2.646  -8.486   2.451  0.00  0.00    +0.015 A 
ATOM     22  C   UNL     1       2.988  -9.764   2.840  0.00  0.00    +0.029 A 
ATOM     23  C   UNL     1       3.300 -10.028   4.162  0.00  0.00    +0.106 A 
ATOM     24  C   UNL     1       3.272  -9.014   5.102  0.00  0.00    +0.029 A 
ATOM     25  C   UNL     1       2.938  -7.729   4.726  0.00  0.00    +0.015 A 
BRANCH  23  26
ATOM     26  S   UNL     1       3.735 -11.665   4.650  0.00  0.00    +0.061 S 
ATOM     27  O   UNL     1       3.453 -11.762   6.040  0.00  0.00    -0.153 OA
ATOM     28  O   UNL     1       3.158 -12.541   3.692  0.00  0.00    -0.153 OA
BRANCH  26  29
ATOM     29  N   UNL     1       5.377 -11.803   4.490  0.00  0.00    -0.176 NA
ATOM     30  C   UNL     1       5.971 -12.255   3.224  0.00  0.00    +0.112 C 
ATOM     31  C   UNL     1       7.013 -11.227   2.773  0.00  0.00    +0.002 C 
ATOM     32  C   UNL     1       8.026 -11.007   3.899  0.00  0.00    +0.009 C 
ATOM     33  C   UNL     1       7.308 -10.457   5.134  0.00  0.00    +0.002 C 
ATOM     34  C   UNL     1       6.269 -11.470   5.609  0.00  0.00    +0.112 C 
ATOM     35  C   UNL     1       8.327 -10.205   6.247  0.00  0.00    +0.009 C 
ATOM     36  C   UNL     1       6.318  -9.905   2.445  0.00  0.00    +0.009 C 
ENDBRANCH  26  29
ENDBRANCH  23  26
ENDBRANCH   2  20
TORSDOF 5
