REMARK  Name = ZINC45302134
REMARK  15 active torsions:
REMARK  status: ('A' for Active; 'I' for Inactive)
REMARK    1  A    between atoms: C_1  and  C_2
REMARK    2  A    between atoms: C_2  and  C_3
REMARK    3  A    between atoms: C_6  and  C_9
REMARK    4  A    between atoms: C_9  and  O_11
REMARK    5  A    between atoms: O_11  and  C_12
REMARK    6  A    between atoms: C_17  and  C_18
REMARK    7  A    between atoms: C_19  and  N_27
REMARK    8  A    between atoms: N_27  and  C_28
REMARK    9  A    between atoms: C_28  and  C_29
REMARK   10  A    between atoms: C_28  and  C_30
REMARK   11  A    between atoms: C_28  and  C_31
REMARK   12  A    between atoms: C_31  and  C_32
REMARK   13  A    between atoms: C_32  and  C_33
REMARK   14  A    between atoms: C_32  and  C_34
REMARK   15  A    between atoms: C_32  and  C_35
REMARK                            x       y       z     vdW  Elec       q    Type
REMARK                         _______ _______ _______ _____ _____    ______ ____
ROOT
ATOM      1  C   UNL     1      -7.548  -5.685  -5.402  0.00  0.00    +0.090 A 
ATOM      2  C   UNL     1      -6.314  -6.150  -4.997  0.00  0.00    +0.129 A 
ATOM      3  N   UNL     1      -5.833  -6.929  -6.012  0.00  0.00    -0.289 N 
ATOM      4  C   UNL     1      -4.670  -7.637  -6.159  0.00  0.00    +0.094 A 
ATOM      5  C   UNL     1      -4.433  -8.341  -7.284  0.00  0.00    +0.018 A 
ATOM      6  C   UNL     1      -5.378  -8.357  -8.325  0.00  0.00    +0.005 A 
ATOM      7  C   UNL     1      -6.538  -7.660  -8.195  0.00  0.00    +0.045 A 
ATOM      8  C   UNL     1      -6.777  -6.927  -7.014  0.00  0.00    +0.117 A 
ATOM      9  N   UNL     1      -7.799  -6.181  -6.627  0.00  0.00    -0.338 N 
ATOM     10  H   UNL     1      -8.602  -6.016  -7.146  0.00  0.00    +0.167 HD
ENDROOT
BRANCH   1  16
ATOM     11  C   UNL     1      -8.052  -3.490  -4.323  0.00  0.00    +0.141 A 
ATOM     12  C   UNL     1      -8.898  -2.668  -3.597  0.00  0.00    +0.047 A 
ATOM     13  C   UNL     1     -10.122  -3.142  -3.164  0.00  0.00    +0.004 A 
ATOM     14  C   UNL     1     -10.510  -4.439  -3.452  0.00  0.00    +0.001 A 
ATOM     15  C   UNL     1      -9.678  -5.270  -4.175  0.00  0.00    +0.014 A 
ATOM     16  C   UNL     1      -8.444  -4.800  -4.621  0.00  0.00    +0.044 A 
BRANCH  11  17
ATOM     17  O   UNL     1      -6.848  -3.025  -4.749  0.00  0.00    -0.422 OA
BRANCH  17  18
ATOM     18  C   UNL     1      -6.745  -2.617  -6.029  0.00  0.00    +0.344 C 
ATOM     19  O   UNL     1      -7.560  -2.985  -6.851  0.00  0.00    -0.245 OA
BRANCH  18  23
ATOM     20  C   UNL     1      -3.569  -0.048  -7.190  0.00  0.00    -0.048 A 
ATOM     21  C   UNL     1      -4.496  -0.465  -8.129  0.00  0.00    +0.004 A 
ATOM     22  C   UNL     1      -5.530  -1.300  -7.759  0.00  0.00    +0.015 A 
ATOM     23  C   UNL     1      -5.640  -1.724  -6.433  0.00  0.00    +0.059 A 
ATOM     24  C   UNL     1      -4.702  -1.299  -5.490  0.00  0.00    +0.015 A 
ATOM     25  C   UNL     1      -3.669  -0.469  -5.875  0.00  0.00    +0.004 A 
BRANCH  20  27
ATOM     26  C   UNL     1      -1.244   0.025  -8.046  0.00  0.00    +0.009 C 
ATOM     27  C   UNL     1      -2.443   0.864  -7.601  0.00  0.00    +0.032 C 
ENDBRANCH  20  27
ENDBRANCH  18  23
ENDBRANCH  17  18
ENDBRANCH  11  17
ENDBRANCH   1  16
BRANCH   2  28
ATOM     28  N   UNL     1      -5.679  -5.877  -3.785  0.00  0.00    -0.323 N 
ATOM     29  H   UNL     1      -5.935  -5.097  -3.268  0.00  0.00    +0.148 HD
BRANCH  28  30
ATOM     30  C   UNL     1      -4.625  -6.768  -3.293  0.00  0.00    +0.028 C 
ATOM     31  C   UNL     1      -5.000  -8.219  -3.600  0.00  0.00    +0.031 C 
ATOM     32  C   UNL     1      -3.304  -6.425  -3.985  0.00  0.00    +0.031 C 
BRANCH  30  33
ATOM     33  C   UNL     1      -4.470  -6.589  -1.782  0.00  0.00    +0.031 C 
BRANCH  33  34
ATOM     34  C   UNL     1      -4.366  -5.099  -1.452  0.00  0.00    -0.036 C 
ATOM     35  C   UNL     1      -5.718  -4.426  -1.699  0.00  0.00    +0.010 C 
ATOM     36  C   UNL     1      -3.971  -4.927   0.016  0.00  0.00    +0.010 C 
ATOM     37  C   UNL     1      -3.304  -4.452  -2.344  0.00  0.00    +0.010 C 
ENDBRANCH  33  34
ENDBRANCH  30  33
ENDBRANCH  28  30
ENDBRANCH   2  28
TORSDOF 9
