REMARK  Name = ZINC63351044
REMARK  6 active torsions:
REMARK  status: ('A' for Active; 'I' for Inactive)
REMARK    1  A    between atoms: C_1  and  O_2
REMARK    2  A    between atoms: O_2  and  C_3
REMARK    3  A    between atoms: C_3  and  C_5
REMARK    4  A    between atoms: C_20  and  C_22
REMARK    5  A    between atoms: C_22  and  O_23
REMARK    6  A    between atoms: O_23  and  C_24
REMARK                            x       y       z     vdW  Elec       q    Type
REMARK                         _______ _______ _______ _____ _____    ______ ____
ROOT
ATOM      1  C   UNL     1       0.674  -2.115   1.096  0.00  0.00    +0.189 C 
ATOM      2  C   UNL     1      -0.610  -2.661   1.746  0.00  0.00    +0.067 C 
ATOM      3  C   UNL     1      -0.338  -4.103   2.096  0.00  0.00    -0.035 C 
ATOM      4  C   UNL     1      -1.010  -5.215   1.823  0.00  0.00    -0.001 A 
ATOM      5  C   UNL     1      -2.314  -5.438   1.178  0.00  0.00    +0.010 A 
ATOM      6  C   UNL     1      -2.699  -6.734   1.038  0.00  0.00    +0.001 A 
ATOM      7  C   UNL     1      -1.927  -7.817   1.470  0.00  0.00    +0.002 A 
ATOM      8  C   UNL     1      -0.721  -7.704   2.080  0.00  0.00    +0.026 A 
ATOM      9  C   UNL     1      -0.212  -6.390   2.291  0.00  0.00    +0.043 A 
ATOM     10  N   UNL     1       0.887  -5.994   2.862  0.00  0.00    -0.376 N 
ATOM     11  C   UNL     1       0.895  -4.531   2.883  0.00  0.00    +0.124 C 
ATOM     12  C   UNL     1       2.106  -3.951   2.144  0.00  0.00    +0.137 C 
ATOM     13  N   UNL     1       1.836  -2.527   1.889  0.00  0.00    -0.283 N 
ATOM     14  C   UNL     1       2.667  -1.591   2.390  0.00  0.00    +0.254 C 
ATOM     15  O   UNL     1       2.407  -0.414   2.255  0.00  0.00    -0.272 OA
ATOM     16  H   UNL     1       1.583  -6.571   3.213  0.00  0.00    +0.160 HD
ENDROOT
BRANCH   1  17
ATOM     17  C   UNL     1       0.609  -0.610   1.043  0.00  0.00    +0.328 C 
ATOM     18  O   UNL     1       0.255   0.014   2.014  0.00  0.00    -0.249 OA
BRANCH  17  20
ATOM     19  C   UNL     1       0.861   1.463  -0.064  0.00  0.00    +0.280 C 
ATOM     20  O   UNL     1       0.946   0.037  -0.084  0.00  0.00    -0.467 OA
ENDBRANCH  17  20
ENDBRANCH   1  17
BRANCH  14  21
ATOM     21  C   UNL     1       3.920  -2.007   3.117  0.00  0.00    +0.324 C 
BRANCH  21  22
ATOM     22  O   UNL     1       4.628  -0.844   3.550  0.00  0.00    -0.481 OA
BRANCH  22  23
ATOM     23  C   UNL     1       5.788  -1.044   4.226  0.00  0.00    +0.143 A 
ATOM     24  C   UNL     1       6.232  -2.336   4.460  0.00  0.00    +0.094 A 
ATOM     25  C   UNL     1       7.417  -2.540   5.151  0.00  0.00    +0.143 A 
ATOM     26  C   UNL     1       8.154  -1.433   5.606  0.00  0.00    +0.023 A 
ATOM     27  C   UNL     1       7.691  -0.135   5.361  0.00  0.00    +0.035 A 
ATOM     28  C   UNL     1       6.525   0.051   4.674  0.00  0.00    +0.083 A 
ATOM     29 CL   UNL     1       5.955   1.660   4.363  0.00  0.00    -0.080 Cl
ATOM     30  C   UNL     1       9.407  -1.657   6.339  0.00  0.00    -0.027 A 
ATOM     31  C   UNL     1       9.806  -2.930   6.550  0.00  0.00    +0.041 A 
ATOM     32  C   UNL     1       9.017  -3.997   6.053  0.00  0.00    +0.341 A 
ATOM     33  O   UNL     1       9.392  -5.142   6.236  0.00  0.00    -0.245 OA
ATOM     34  O   UNL     1       7.872  -3.789   5.390  0.00  0.00    -0.422 OA
ATOM     35  C   UNL     1      11.063  -3.272   7.305  0.00  0.00    +0.042 C 
ATOM     36  C   UNL     1      11.993  -2.063   7.381  0.00  0.00    +0.005 C 
ATOM     37  C   UNL     1      11.186  -0.865   7.895  0.00  0.00    +0.005 C 
ATOM     38  C   UNL     1      10.186  -0.461   6.813  0.00  0.00    +0.036 C 
ENDBRANCH  22  23
ENDBRANCH  21  22
ENDBRANCH  14  21
TORSDOF 5
