REMARK  Name = ZINC12589081
REMARK  14 active torsions:
REMARK  status: ('A' for Active; 'I' for Inactive)
REMARK    1  A    between atoms: C_1  and  C_2
REMARK    2  A    between atoms: C_2  and  C_3
REMARK    3  A    between atoms: C_3  and  C_4
REMARK    4  A    between atoms: C_4  and  N_5
REMARK    5  A    between atoms: C_6  and  C_24
REMARK    6  A    between atoms: C_9  and  S_10
REMARK    7  A    between atoms: S_10  and  C_11
REMARK    8  A    between atoms: C_11  and  C_12
REMARK    9  A    between atoms: C_15  and  C_17
REMARK   10  A    between atoms: C_24  and  C_26
REMARK   11  A    between atoms: C_24  and  N_56
REMARK   12  A    between atoms: C_26  and  C_27
REMARK   13  A    between atoms: C_28  and  N_56
REMARK   14  A    between atoms: C_29  and  N_56
REMARK                            x       y       z     vdW  Elec       q    Type
REMARK                         _______ _______ _______ _____ _____    ______ ____
ROOT
ATOM      1  N   UNL     1      -1.810  -0.787  -1.590  0.00  0.00    -0.307 N 
ATOM      2  C   UNL     1      -1.359  -0.503  -0.331  0.00  0.00    +0.120 A 
ATOM      3  N   UNL     1      -2.315  -0.806   0.501  0.00  0.00    -0.135 NA
ATOM      4  N   UNL     1      -3.330  -1.263  -0.141  0.00  0.00    -0.123 NA
ATOM      5  C   UNL     1      -3.074  -1.276  -1.429  0.00  0.00    +0.192 A 
ENDROOT
BRANCH   1   6
ATOM      6  C   UNL     1      -1.085  -0.607  -2.851  0.00  0.00    +0.125 C 
BRANCH   6   7
ATOM      7  C   UNL     1      -0.304  -1.882  -3.177  0.00  0.00    +0.021 C 
BRANCH   7   9
ATOM      8  C   UNL     1       1.233  -2.969  -4.819  0.00  0.00    +0.004 C 
ATOM      9  C   UNL     1       0.453  -1.694  -4.493  0.00  0.00    -0.002 C 
ENDBRANCH   7   9
ENDBRANCH   6   7
ENDBRANCH   1   6
BRANCH   5  10
ATOM     10  S   UNL     1      -4.159  -1.818  -2.707  0.00  0.00    -0.076 S 
BRANCH  10  11
ATOM     11  C   UNL     1      -5.597  -2.296  -1.718  0.00  0.00    +0.175 C 
BRANCH  11  12
ATOM     12  C   UNL     1      -6.686  -2.806  -2.627  0.00  0.00    +0.228 A 
ATOM     13  N   UNL     1      -6.857  -4.042  -3.004  0.00  0.00    -0.111 NA
ATOM     14  N   UNL     1      -7.883  -4.117  -3.777  0.00  0.00    -0.107 NA
ATOM     15  C   UNL     1      -8.405  -2.922  -3.921  0.00  0.00    +0.248 A 
ATOM     16  O   UNL     1      -7.658  -2.070  -3.191  0.00  0.00    -0.419 OA
BRANCH  15  17
ATOM     17  C   UNL     1      -9.592  -2.575  -4.730  0.00  0.00    +0.039 A 
ATOM     18  C   UNL     1     -10.040  -1.254  -4.787  0.00  0.00    +0.014 A 
ATOM     19  C   UNL     1     -11.146  -0.936  -5.547  0.00  0.00    +0.016 A 
ATOM     20  C   UNL     1     -11.818  -1.926  -6.245  0.00  0.00    +0.018 A 
ATOM     21  C   UNL     1     -11.382  -3.239  -6.188  0.00  0.00    +0.016 A 
ATOM     22  C   UNL     1     -10.274  -3.568  -5.435  0.00  0.00    +0.014 A 
ATOM     23 BR   UNL     1     -13.338  -1.482  -7.279  0.00  0.00    -0.050 Br
ENDBRANCH  15  17
ENDBRANCH  11  12
ENDBRANCH  10  11
ENDBRANCH   5  10
BRANCH   2  24
ATOM     24  C   UNL     1      -0.009   0.061   0.028  0.00  0.00    +0.000 C 
BRANCH  24  27
ATOM     25  C   UNL     1      -0.201  -1.018   2.187  0.00  0.00    -0.096 C 
ATOM     26  C   UNL     1       1.007  -2.106   0.393  0.00  0.00    -0.096 C 
ATOM     27  N   UNL     1       0.671  -0.807   1.012  0.00  0.00    +0.383 N 
ATOM     28  H   UNL     1       1.538  -0.349   1.318  0.00  0.00    -0.082 HD
ENDBRANCH  24  27
BRANCH  24  29
ATOM     29  C   UNL     1      -0.183   1.454   0.636  0.00  0.00    -0.011 C 
ATOM     30  C   UNL     1       1.191   2.078   0.885  0.00  0.00    +0.002 C 
ENDBRANCH  24  29
ENDBRANCH   2  24
TORSDOF 10
