REMARK  Name = ZINC12857679
REMARK  6 active torsions:
REMARK  status: ('A' for Active; 'I' for Inactive)
REMARK    1  A    between atoms: C_1  and  C_2
REMARK    2  A    between atoms: C_14  and  C_16
REMARK    3  A    between atoms: C_16  and  C_17
REMARK    4  A    between atoms: C_16  and  N_18
REMARK    5  A    between atoms: N_21  and  S_24
REMARK    6  A    between atoms: S_24  and  C_27
REMARK                            x       y       z     vdW  Elec       q    Type
REMARK                         _______ _______ _______ _____ _____    ______ ____
ROOT
ATOM      1  C   UNL     1      -0.214  -8.170   2.266  0.00  0.00    +0.120 C 
ATOM      2  C   UNL     1      -1.512  -8.704   2.876  0.00  0.00    +0.032 C 
ENDROOT
BRANCH   1  16
ATOM      3  C   UNL     1      -0.481   1.632   0.537  0.00  0.00    +0.008 C 
ATOM      4  C   UNL     1      -0.420   0.106   0.443  0.00  0.00    -0.009 C 
ATOM      5  C   UNL     1      -1.832  -0.473   0.572  0.00  0.00    +0.008 C 
ATOM      6  C   UNL     1      -1.815  -1.964   0.233  0.00  0.00    +0.037 C 
ATOM      7  C   UNL     1      -0.746  -2.651   1.079  0.00  0.00    -0.023 A 
ATOM      8  C   UNL     1       0.240  -1.928   1.661  0.00  0.00    -0.004 A 
ATOM      9  S   UNL     1       1.235  -3.115   2.529  0.00  0.00    -0.073 S 
ATOM     10  C   UNL     1       0.330  -4.571   2.113  0.00  0.00    +0.116 A 
ATOM     11  C   UNL     1      -0.723  -4.085   1.307  0.00  0.00    +0.075 A 
ATOM     12  C   UNL     1      -1.656  -5.051   0.799  0.00  0.00    +0.260 A 
ATOM     13  O   UNL     1      -2.599  -4.735   0.095  0.00  0.00    -0.267 OA
ATOM     14  N   UNL     1      -1.420  -6.337   1.154  0.00  0.00    -0.309 N 
ATOM     15  H   UNL     1      -2.026  -7.023   0.833  0.00  0.00    +0.170 HD
ATOM     16  C   UNL     1      -0.378  -6.709   1.935  0.00  0.00    +0.128 A 
ATOM     17  N   UNL     1       0.496  -5.854   2.419  0.00  0.00    -0.225 NA
ATOM     18  C   UNL     1       0.444  -0.447   1.585  0.00  0.00    +0.046 C 
ENDBRANCH   1  16
BRANCH   1  19
ATOM     19  N   UNL     1       0.883  -8.334   3.229  0.00  0.00    -0.290 NA
ATOM     20  C   UNL     1       1.302  -9.739   3.316  0.00  0.00    +0.102 C 
ATOM     21  C   UNL     1       2.559  -9.841   4.187  0.00  0.00    +0.125 C 
ATOM     22  N   UNL     1       2.286  -9.193   5.479  0.00  0.00    -0.174 NA
ATOM     23  C   UNL     1       1.733  -7.830   5.470  0.00  0.00    +0.125 C 
ATOM     24  C   UNL     1       0.509  -7.807   4.548  0.00  0.00    +0.102 C 
BRANCH  22  25
ATOM     25  S   UNL     1       2.593  -9.976   6.905  0.00  0.00    +0.064 S 
ATOM     26  O   UNL     1       1.751  -9.383   7.884  0.00  0.00    -0.153 OA
ATOM     27  O   UNL     1       2.566 -11.367   6.618  0.00  0.00    -0.153 OA
BRANCH  25  28
ATOM     28  C   UNL     1       4.249  -9.589   7.365  0.00  0.00    +0.140 A 
ATOM     29  C   UNL     1       4.495  -8.863   8.515  0.00  0.00    +0.031 A 
ATOM     30  C   UNL     1       5.795  -8.559   8.877  0.00  0.00    +0.002 A 
ATOM     31  C   UNL     1       6.849  -8.981   8.089  0.00  0.00    +0.003 A 
ATOM     32  C   UNL     1       6.606  -9.707   6.939  0.00  0.00    +0.040 A 
ATOM     33  C   UNL     1       5.305 -10.017   6.579  0.00  0.00    +0.150 A 
ATOM     34  F   UNL     1       5.066 -10.731   5.457  0.00  0.00    -0.203 F 
ENDBRANCH  25  28
ENDBRANCH  22  25
ENDBRANCH   1  19
TORSDOF 4
