REMARK  Name = ZINC60319400
REMARK  6 active torsions:
REMARK  status: ('A' for Active; 'I' for Inactive)
REMARK    1  A    between atoms: C_4  and  N_23
REMARK    2  A    between atoms: C_5  and  N_7
REMARK    3  A    between atoms: C_8  and  C_10
REMARK    4  A    between atoms: C_11  and  C_12
REMARK    5  A    between atoms: C_16  and  C_18
REMARK    6  A    between atoms: C_26  and  C_29
REMARK                            x       y       z     vdW  Elec       q    Type
REMARK                         _______ _______ _______ _____ _____    ______ ____
ROOT
ATOM      1  C   UNL     1      -0.028   1.374   0.037  0.00  0.00    +0.002 A 
ATOM      2  C   UNL     1       1.155   2.089   0.033  0.00  0.00    +0.002 A 
ATOM      3  C   UNL     1       2.368   1.427   0.010  0.00  0.00    +0.025 A 
ATOM      4  C   UNL     1       2.401   0.041  -0.008  0.00  0.00    +0.051 A 
ATOM      5  C   UNL     1       1.208  -0.681  -0.003  0.00  0.00    +0.055 A 
ATOM      6  C   UNL     1      -0.005  -0.008   0.019  0.00  0.00    +0.025 A 
ENDROOT
BRANCH   4   7
ATOM      7  N   UNL     1       3.628  -0.632  -0.031  0.00  0.00    -0.328 N 
ATOM      8  C   UNL     1       4.272  -0.970  -1.307  0.00  0.00    +0.106 C 
ATOM      9  C   UNL     1       4.581  -2.471  -1.321  0.00  0.00    +0.031 C 
ATOM     10  C   UNL     1       5.409  -2.828  -0.085  0.00  0.00    +0.078 C 
ATOM     11  C   UNL     1       4.605  -2.512   1.178  0.00  0.00    +0.031 C 
ATOM     12  C   UNL     1       4.300  -1.007   1.221  0.00  0.00    +0.106 C 
BRANCH  10  13
ATOM     13  C   UNL     1       5.744  -4.298  -0.113  0.00  0.00    +0.214 C 
ATOM     14  O   UNL     1       5.358  -4.990  -1.031  0.00  0.00    -0.276 OA
ATOM     15  N   UNL     1       6.471  -4.842   0.882  0.00  0.00    -0.329 N 
ATOM     16  H   UNL     1       6.780  -4.288   1.617  0.00  0.00    +0.145 HD
ATOM     17  H   UNL     1       6.687  -5.787   0.865  0.00  0.00    +0.145 HD
ENDBRANCH  10  13
ENDBRANCH   4   7
BRANCH   5  18
ATOM     18  N   UNL     1       1.234  -2.081  -0.021  0.00  0.00    -0.280 N 
ATOM     19  C   UNL     1       0.182  -2.769  -0.509  0.00  0.00    +0.241 C 
ATOM     20  O   UNL     1      -0.747  -2.175  -1.025  0.00  0.00    -0.270 OA
ATOM     21  H   UNL     1       2.009  -2.557   0.317  0.00  0.00    +0.155 HD
BRANCH  19  22
ATOM     22  C   UNL     1       0.156  -4.229  -0.418  0.00  0.00    +0.068 C 
ATOM     23  C   UNL     1      -0.896  -4.917  -0.905  0.00  0.00    +0.013 C 
BRANCH  23  24
ATOM     24  C   UNL     1      -0.922  -6.385  -0.814  0.00  0.00    -0.024 A 
ATOM     25  C   UNL     1       0.141  -7.071  -0.217  0.00  0.00    +0.009 A 
ATOM     26  C   UNL     1       0.110  -8.446  -0.134  0.00  0.00    +0.021 A 
ATOM     27  C   UNL     1      -0.971  -9.150  -0.641  0.00  0.00    +0.053 A 
ATOM     28  C   UNL     1      -2.027  -8.477  -1.234  0.00  0.00    +0.074 A 
ATOM     29  C   UNL     1      -2.012  -7.102  -1.319  0.00  0.00    +0.021 A 
ATOM     30 CL   UNL     1      -1.001 -10.882  -0.534  0.00  0.00    -0.083 Cl
BRANCH  28  31
ATOM     31  C   UNL     1      -3.198  -9.252  -1.783  0.00  0.00    +0.419 C 
ATOM     32  F   UNL     1      -4.131  -8.363  -2.328  0.00  0.00    -0.166 F 
ATOM     33  F   UNL     1      -2.752 -10.128  -2.778  0.00  0.00    -0.166 F 
ATOM     34  F   UNL     1      -3.797  -9.983  -0.752  0.00  0.00    -0.166 F 
ENDBRANCH  28  31
ENDBRANCH  23  24
ENDBRANCH  19  22
ENDBRANCH   5  18
TORSDOF 6
