REMARK  Name = ZINC21262696
REMARK  11 active torsions:
REMARK  status: ('A' for Active; 'I' for Inactive)
REMARK    1  A    between atoms: C_1  and  C_2
REMARK    2  A    between atoms: C_2  and  C_31
REMARK    3  A    between atoms: C_4  and  N_10
REMARK    4  A    between atoms: C_6  and  C_8
REMARK    5  A    between atoms: C_6  and  C_9
REMARK    6  A    between atoms: N_10  and  C_11
REMARK    7  A    between atoms: C_11  and  N_13
REMARK    8  A    between atoms: N_13  and  C_14
REMARK    9  A    between atoms: N_13  and  C_21
REMARK   10  A    between atoms: C_14  and  C_15
REMARK   11  A    between atoms: C_21  and  C_22
REMARK                            x       y       z     vdW  Elec       q    Type
REMARK                         _______ _______ _______ _____ _____    ______ ____
ROOT
ATOM      1  N   UNL     1       5.955  -1.015   1.304  0.00  0.00    -0.304 N 
ENDROOT
BRANCH   1   2
ATOM      2  C   UNL     1       6.573   0.079   0.815  0.00  0.00    +0.134 C 
ATOM      3  S   UNL     1       6.120   1.635   1.365  0.00  0.00    -0.019 S 
BRANCH   2   4
ATOM      4  N   UNL     1       7.546  -0.054  -0.108  0.00  0.00    -0.324 N 
ATOM      5  H   UNL     1       7.837  -1.054  -0.461  0.00  0.00    +0.148 HD
BRANCH   4   9
ATOM      6  C   UNL     1      10.806   2.872  -0.581  0.00  0.00    -0.010 C 
ATOM      7  C   UNL     1      10.327   1.965  -1.721  0.00  0.00    -0.072 C 
ATOM      8  C   UNL     1       9.611   0.749  -1.139  0.00  0.00    +0.009 C 
ATOM      9  C   UNL     1       8.219   1.137  -0.641  0.00  0.00    +0.069 C 
ATOM     10  C   UNL     1       7.416   1.683  -1.821  0.00  0.00    +0.009 C 
ATOM     11  C   UNL     1       8.105   2.912  -2.409  0.00  0.00    -0.072 C 
ATOM     12  N   UNL     1       9.514   2.701  -2.667  0.00  0.00    +0.386 N 
ATOM     13  C   UNL     1       7.885   4.115  -1.484  0.00  0.00    -0.010 C 
ATOM     14  C   UNL     1       7.412   3.236  -3.752  0.00  0.00    -0.010 C 
ATOM     15  C   UNL     1      11.585   1.456  -2.459  0.00  0.00    -0.010 C 
ATOM     16  H   UNL     1       9.916   3.718  -2.783  0.00  0.00    -0.084 HD
ATOM     17  H   UNL     1       9.529   2.188  -3.640  0.00  0.00    -0.084 HD
ENDBRANCH   4   9
ENDBRANCH   2   4
ENDBRANCH   1   2
BRANCH   1  18
ATOM     18  C   UNL     1       6.342  -2.347   0.834  0.00  0.00    +0.142 C 
BRANCH  18  19
ATOM     19  C   UNL     1       5.473  -2.740  -0.333  0.00  0.00    -0.030 A 
ATOM     20  C   UNL     1       4.272  -3.387  -0.113  0.00  0.00    +0.005 A 
ATOM     21  C   UNL     1       3.472  -3.743  -1.184  0.00  0.00    +0.000 A 
ATOM     22  C   UNL     1       3.879  -3.460  -2.474  0.00  0.00    +0.000 A 
ATOM     23  C   UNL     1       5.083  -2.818  -2.694  0.00  0.00    +0.000 A 
ATOM     24  C   UNL     1       5.880  -2.457  -1.624  0.00  0.00    +0.005 A 
ENDBRANCH  18  19
ENDBRANCH   1  18
BRANCH   1  25
ATOM     25  C   UNL     1       4.897  -0.871   2.307  0.00  0.00    +0.142 C 
BRANCH  25  26
ATOM     26  C   UNL     1       5.494  -0.981   3.687  0.00  0.00    -0.026 A 
ATOM     27  C   UNL     1       5.835   0.163   4.383  0.00  0.00    +0.009 A 
ATOM     28  C   UNL     1       6.383   0.067   5.649  0.00  0.00    +0.050 A 
ATOM     29  C   UNL     1       6.591  -1.177   6.222  0.00  0.00    +0.166 A 
ATOM     30  C   UNL     1       6.246  -2.329   5.520  0.00  0.00    +0.167 A 
ATOM     31  C   UNL     1       5.697  -2.226   4.253  0.00  0.00    +0.054 A 
ATOM     32  O   UNL     1       6.545  -3.415   6.291  0.00  0.00    -0.453 OA
ATOM     33  C   UNL     1       6.696  -2.907   7.630  0.00  0.00    +0.466 C 
ATOM     34  O   UNL     1       7.106  -1.541   7.433  0.00  0.00    -0.453 OA
ENDBRANCH  25  26
ENDBRANCH   1  25
TORSDOF 7
