REMARK  Name = ZINC39995186
REMARK  7 active torsions:
REMARK  status: ('A' for Active; 'I' for Inactive)
REMARK    1  A    between atoms: C_1  and  C_2
REMARK    2  A    between atoms: C_2  and  C_4
REMARK    3  A    between atoms: C_2  and  S_15
REMARK    4  A    between atoms: N_6  and  C_7
REMARK    5  A    between atoms: S_15  and  C_16
REMARK    6  A    between atoms: C_20  and  C_25
REMARK    7  A    between atoms: N_21  and  C_22
REMARK                            x       y       z     vdW  Elec       q    Type
REMARK                         _______ _______ _______ _____ _____    ______ ____
ROOT
ATOM      1  C   UNL     1      -1.706  -1.000   2.392  0.00  0.00    +0.238 C 
ATOM      2  N   UNL     1      -2.204   0.373   2.206  0.00  0.00    -0.237 N 
ATOM      3  N   UNL     1      -1.436   1.192   3.042  0.00  0.00    -0.169 NA
ATOM      4  C   UNL     1      -0.548   0.496   3.702  0.00  0.00    +0.147 C 
ATOM      5  N   UNL     1      -0.624  -0.865   3.382  0.00  0.00    -0.282 N 
ATOM      6  H   UNL     1      -2.923   0.655   1.619  0.00  0.00    +0.171 HD
ENDROOT
BRANCH   4   7
ATOM      7  C   UNL     1       0.366   1.043   4.616  0.00  0.00    +0.022 C 
ATOM      8  C   UNL     1       0.430   2.366   5.056  0.00  0.00    +0.006 A 
ATOM      9  C   UNL     1      -0.341   3.509   4.754  0.00  0.00    +0.010 A 
ATOM     10  C   UNL     1      -0.046   4.695   5.345  0.00  0.00    +0.001 A 
ATOM     11  C   UNL     1       1.009   4.818   6.252  0.00  0.00    +0.002 A 
ATOM     12  C   UNL     1       1.790   3.762   6.588  0.00  0.00    +0.026 A 
ATOM     13  C   UNL     1       1.543   2.490   6.011  0.00  0.00    +0.043 A 
ATOM     14  N   UNL     1       2.146   1.328   6.169  0.00  0.00    -0.380 N 
ATOM     15  C   UNL     1       1.483   0.321   5.336  0.00  0.00    +0.152 C 
ATOM     16  H   UNL     1       2.907   1.165   6.749  0.00  0.00    +0.160 HD
ENDBRANCH   4   7
BRANCH   5  17
ATOM     17  C   UNL     1       0.207  -1.943   3.923  0.00  0.00    +0.078 C 
ATOM     18  C   UNL     1      -0.018  -3.353   3.373  0.00  0.00    +0.024 C 
ATOM     19  C   UNL     1      -0.481  -3.001   4.787  0.00  0.00    +0.024 C 
ENDBRANCH   5  17
BRANCH   1  20
ATOM     20  S   UNL     1      -1.058  -1.658   0.831  0.00  0.00    -0.106 S 
BRANCH  20  22
ATOM     21  C   UNL     1      -0.446   0.890   0.046  0.00  0.00    +0.029 C 
ATOM     22  C   UNL     1       0.212  -0.459   0.343  0.00  0.00    +0.133 C 
BRANCH  22  23
ATOM     23  C   UNL     1       0.923  -0.954  -0.891  0.00  0.00    +0.230 C 
ATOM     24  O   UNL     1       0.363  -1.720  -1.646  0.00  0.00    -0.274 OA
ATOM     25  N   UNL     1       2.179  -0.544  -1.155  0.00  0.00    -0.280 N 
ATOM     26  H   UNL     1       2.597   0.131  -0.597  0.00  0.00    +0.155 HD
BRANCH  25  27
ATOM     27  C   UNL     1       2.883  -1.093  -2.235  0.00  0.00    +0.105 A 
ATOM     28  C   UNL     1       4.196  -1.519  -2.068  0.00  0.00    +0.147 A 
ATOM     29  C   UNL     1       4.887  -2.061  -3.137  0.00  0.00    +0.040 A 
ATOM     30  C   UNL     1       4.273  -2.179  -4.371  0.00  0.00    +0.006 A 
ATOM     31  C   UNL     1       2.968  -1.757  -4.541  0.00  0.00    +0.040 A 
ATOM     32  C   UNL     1       2.268  -1.220  -3.475  0.00  0.00    +0.147 A 
ATOM     33  F   UNL     1       0.991  -0.813  -3.641  0.00  0.00    -0.203 F 
ATOM     34  F   UNL     1       4.796  -1.403  -0.864  0.00  0.00    -0.203 F 
ENDBRANCH  25  27
ENDBRANCH  22  23
ENDBRANCH  20  22
ENDBRANCH   1  20
TORSDOF 6
