REMARK  Name = ZINC04767695
REMARK  6 active torsions:
REMARK  status: ('A' for Active; 'I' for Inactive)
REMARK    1  A    between atoms: C_1  and  C_2
REMARK    2  A    between atoms: C_5  and  C_39
REMARK    3  A    between atoms: C_6  and  N_8
REMARK    4  A    between atoms: C_14  and  C_16
REMARK    5  A    between atoms: C_20  and  N_22
REMARK    6  A    between atoms: C_29  and  C_38
REMARK                            x       y       z     vdW  Elec       q    Type
REMARK                         _______ _______ _______ _____ _____    ______ ____
ROOT
ATOM      1  C   UNL     1      -1.235  -1.407  -4.571  0.00  0.00    +0.039 A 
ATOM      2  C   UNL     1      -2.492  -1.414  -3.963  0.00  0.00    +0.013 A 
ATOM      3  C   UNL     1      -2.667  -0.815  -2.733  0.00  0.00    +0.003 A 
ATOM      4  C   UNL     1      -1.599  -0.211  -2.095  0.00  0.00    +0.024 A 
ATOM      5  C   UNL     1      -0.345  -0.194  -2.693  0.00  0.00    +0.042 A 
ATOM      6  C   UNL     1      -0.159  -0.793  -3.930  0.00  0.00    +0.036 A 
ENDROOT
BRANCH   5   7
ATOM      7  N   UNL     1       0.731   0.424  -2.046  0.00  0.00    -0.216 N 
ATOM      8  C   UNL     1       1.193  -0.105  -0.903  0.00  0.00    +0.310 C 
ATOM      9  O   UNL     1       0.615  -1.063  -0.425  0.00  0.00    -0.252 OA
ATOM     10  N   UNL     1       2.271   0.383  -0.267  0.00  0.00    -0.292 N 
ATOM     11  C   UNL     1       3.032   1.492  -0.866  0.00  0.00    +0.114 C 
ATOM     12  C   UNL     1       2.024   2.430  -1.535  0.00  0.00    +0.096 C 
ATOM     13  C   UNL     1       1.317   1.625  -2.635  0.00  0.00    +0.185 C 
ATOM     14  O   UNL     1       2.270   1.286  -3.638  0.00  0.00    -0.468 OA
ATOM     15  C   UNL     1       3.487   0.822  -3.253  0.00  0.00    +0.128 A 
ATOM     16  C   UNL     1       3.918   0.902  -1.940  0.00  0.00    +0.016 A 
ATOM     17  C   UNL     1       5.171   0.434  -1.591  0.00  0.00    +0.029 A 
ATOM     18  C   UNL     1       5.993  -0.135  -2.551  0.00  0.00    +0.042 A 
ATOM     19  C   UNL     1       5.568  -0.211  -3.865  0.00  0.00    +0.023 A 
ATOM     20  C   UNL     1       4.321   0.264  -4.217  0.00  0.00    +0.047 A 
ATOM     21 CL   UNL     1       7.563  -0.730  -2.110  0.00  0.00    -0.084 Cl
ATOM     22  C   UNL     1       0.208   2.478  -3.256  0.00  0.00    +0.079 C 
ATOM     23  H   UNL     1       2.546   0.007   0.584  0.00  0.00    +0.151 HD
ENDBRANCH   5   7
BRANCH   1  30
ATOM     24  N   UNL     1      -3.666  -1.141  -8.873  0.00  0.00    -0.327 N 
ATOM     25  C   UNL     1      -2.296  -1.575  -9.173  0.00  0.00    +0.124 C 
ATOM     26  C   UNL     1      -1.853  -2.612  -8.135  0.00  0.00    +0.127 C 
ATOM     27  N   UNL     1      -2.044  -2.040  -6.793  0.00  0.00    -0.295 N 
ATOM     28  C   UNL     1      -3.356  -1.464  -6.463  0.00  0.00    +0.127 C 
ATOM     29  C   UNL     1      -3.738  -0.468  -7.569  0.00  0.00    +0.124 C 
ATOM     30  C   UNL     1      -1.044  -2.048  -5.889  0.00  0.00    +0.247 C 
ATOM     31  O   UNL     1       0.014  -2.583  -6.158  0.00  0.00    -0.270 OA
BRANCH  24  37
ATOM     32  C   UNL     1      -3.452   3.071 -11.396  0.00  0.00    +0.044 C 
ATOM     33  C   UNL     1      -4.081   1.727 -11.133  0.00  0.00    -0.049 A 
ATOM     34  C   UNL     1      -5.155   1.305 -11.896  0.00  0.00    +0.004 A 
ATOM     35  C   UNL     1      -5.735   0.073 -11.657  0.00  0.00    +0.005 A 
ATOM     36  C   UNL     1      -5.244  -0.741 -10.655  0.00  0.00    -0.029 A 
ATOM     37  C   UNL     1      -4.165  -0.320  -9.887  0.00  0.00    +0.033 A 
ATOM     38  C   UNL     1      -3.588   0.920 -10.126  0.00  0.00    +0.026 A 
ATOM     39  C   UNL     1      -5.877  -2.083 -10.396  0.00  0.00    +0.045 C 
ENDBRANCH  24  37
ENDBRANCH   1  30
TORSDOF 3
