REMARK  Name = ZINC62951353
REMARK  8 active torsions:
REMARK  status: ('A' for Active; 'I' for Inactive)
REMARK    1  A    between atoms: C_1  and  C_2
REMARK    2  A    between atoms: C_2  and  C_3
REMARK    3  A    between atoms: C_3  and  C_21
REMARK    4  A    between atoms: N_6  and  C_9
REMARK    5  A    between atoms: C_9  and  C_11
REMARK    6  A    between atoms: C_9  and  C_17
REMARK    7  A    between atoms: C_17  and  C_19
REMARK    8  A    between atoms: C_17  and  N_20
REMARK                            x       y       z     vdW  Elec       q    Type
REMARK                         _______ _______ _______ _____ _____    ______ ____
ROOT
ATOM      1  C   UNL     1       1.179  -2.573  -4.966  0.00  0.00    +0.079 C 
ENDROOT
BRANCH   1   5
ATOM      2  C   UNL     1       0.655  -0.308  -1.378  0.00  0.00    -0.030 C 
ATOM      3  C   UNL     1       0.064   0.212  -2.691  0.00  0.00    +0.022 C 
ATOM      4  C   UNL     1       0.782  -0.453  -3.867  0.00  0.00    +0.085 C 
ATOM      5  N   UNL     1       0.621  -1.910  -3.780  0.00  0.00    -0.296 NA
ATOM      6  C   UNL     1       1.223  -2.438  -2.550  0.00  0.00    +0.085 C 
ATOM      7  C   UNL     1       0.518  -1.832  -1.334  0.00  0.00    +0.022 C 
ATOM      8  C   UNL     1       2.134   0.075  -1.295  0.00  0.00    +0.011 C 
BRANCH   2  10
ATOM      9  C   UNL     1       0.038   1.831  -0.243  0.00  0.00    +0.004 C 
ATOM     10  C   UNL     1      -0.100   0.307  -0.198  0.00  0.00    +0.003 C 
ENDBRANCH   2  10
ENDBRANCH   1   5
BRANCH   1  11
ATOM     11  C   UNL     1       2.632  -2.202  -5.112  0.00  0.00    +0.006 A 
ATOM     12  C   UNL     1       3.288  -1.732  -6.201  0.00  0.00    +0.028 A 
ATOM     13  C   UNL     1       4.639  -1.456  -6.103  0.00  0.00    +0.025 A 
ATOM     14  C   UNL     1       5.268  -1.664  -4.920  0.00  0.00    +0.060 A 
ATOM     15  S   UNL     1       3.935  -2.261  -3.893  0.00  0.00    -0.099 S 
ATOM     16 BR   UNL     1       5.595  -0.798  -7.596  0.00  0.00    -0.050 Br
ENDBRANCH   1  11
BRANCH   1  17
ATOM     17  C   UNL     1       1.053  -4.090  -4.809  0.00  0.00    -0.056 C 
ATOM     18  C   UNL     1       1.634  -4.781  -6.044  0.00  0.00    -0.012 C 
BRANCH  17  19
ATOM     19  N   UNL     1      -0.363  -4.452  -4.667  0.00  0.00    +0.381 N 
ATOM     20  H   UNL     1      -0.870  -4.156  -5.487  0.00  0.00    -0.090 HD
ATOM     21  H   UNL     1      -0.446  -5.452  -4.563  0.00  0.00    -0.090 HD
ATOM     22  H   UNL     1      -0.747  -3.996  -3.852  0.00  0.00    -0.090 HD
ENDBRANCH  17  19
ENDBRANCH   1  17
TORSDOF 5
