REMARK  Name = ZINC17029059
REMARK  3 active torsions:
REMARK  status: ('A' for Active; 'I' for Inactive)
REMARK    1  A    between atoms: C_2  and  C_19
REMARK    2  A    between atoms: C_7  and  C_9
REMARK    3  A    between atoms: N_11  and  C_12
REMARK                            x       y       z     vdW  Elec       q    Type
REMARK                         _______ _______ _______ _____ _____    ______ ____
ROOT
ATOM      1  C   UNL     1      -0.022   1.781   0.012  0.00  0.00    +0.072 A 
ATOM      2  C   UNL     1       1.307   2.052   0.001  0.00  0.00    +0.057 A 
ATOM      3  N   UNL     1       2.129   1.020  -0.013  0.00  0.00    -0.229 NA
ATOM      4  C   UNL     1       1.672  -0.214  -0.015  0.00  0.00    +0.165 A 
ATOM      5  S   UNL     1       0.002  -0.004   0.002  0.00  0.00    -0.060 S 
ATOM      6  N   UNL     1       2.392  -1.400  -0.029  0.00  0.00    -0.257 N 
ATOM      7  C   UNL     1       1.744  -2.582  -0.029  0.00  0.00    +0.305 C 
ATOM      8  O   UNL     1       0.530  -2.608  -0.017  0.00  0.00    -0.265 OA
ATOM      9  H   UNL     1       3.361  -1.379  -0.038  0.00  0.00    +0.157 HD
ENDROOT
BRANCH   2  10
ATOM     10  C   UNL     1       1.822   3.468   0.003  0.00  0.00    +0.014 C 
ATOM     11  C   UNL     1       1.047   4.291   1.034  0.00  0.00    +0.016 C 
ATOM     12  C   UNL     1       1.570   5.729   1.037  0.00  0.00    -0.010 C 
ATOM     13  C   UNL     1       3.057   5.731   1.396  0.00  0.00    +0.007 C 
ATOM     14  C   UNL     1       3.832   4.908   0.364  0.00  0.00    -0.010 C 
ATOM     15  C   UNL     1       3.309   3.470   0.362  0.00  0.00    +0.016 C 
ATOM     16  C   UNL     1       3.642   5.522  -1.024  0.00  0.00    +0.007 C 
ATOM     17  C   UNL     1       2.155   5.520  -1.383  0.00  0.00    -0.010 C 
ATOM     18  C   UNL     1       1.380   6.343  -0.352  0.00  0.00    +0.007 C 
ATOM     19  C   UNL     1       1.632   4.082  -1.386  0.00  0.00    +0.016 C 
ENDBRANCH   2  10
BRANCH   7  20
ATOM     20  C   UNL     1       2.518  -3.858  -0.043  0.00  0.00    +0.300 C 
ATOM     21  O   UNL     1       3.731  -3.831  -0.055  0.00  0.00    -0.265 OA
ATOM     22  N   UNL     1       1.870  -5.040  -0.043  0.00  0.00    -0.305 N 
ATOM     23  H   UNL     1       0.900  -5.061  -0.034  0.00  0.00    +0.149 HD
BRANCH  22  24
ATOM     24  C   UNL     1       2.630  -6.292  -0.058  0.00  0.00    +0.073 C 
ATOM     25  C   UNL     1       3.046  -6.607  -1.509  0.00  0.00    +0.022 C 
ATOM     26  C   UNL     1       4.212  -7.557  -1.476  0.00  0.00    +0.002 C 
ATOM     27  C   UNL     1       3.775  -9.031  -1.585  0.00  0.00    +0.000 C 
ATOM     28  C   UNL     1       2.525  -9.347  -0.742  0.00  0.00    +0.000 C 
ATOM     29  C   UNL     1       2.563  -8.691   0.612  0.00  0.00    +0.002 C 
ATOM     30  C   UNL     1       1.813  -7.346   0.526  0.00  0.00    +0.022 C 
ENDBRANCH  22  24
ENDBRANCH   7  20
TORSDOF 3
