REMARK  Name = ZINC38866157
REMARK  5 active torsions:
REMARK  status: ('A' for Active; 'I' for Inactive)
REMARK    1  A    between atoms: C_1  and  C_2
REMARK    2  A    between atoms: C_4  and  N_21
REMARK    3  A    between atoms: C_9  and  C_12
REMARK    4  A    between atoms: C_22  and  C_24
REMARK    5  A    between atoms: C_24  and  C_26
REMARK                            x       y       z     vdW  Elec       q    Type
REMARK                         _______ _______ _______ _____ _____    ______ ____
ROOT
ATOM      1  C   UNL     1      -0.018   1.503   0.010  0.00  0.00    +0.067 C 
ATOM      2  C   UNL     1       0.002  -0.004   0.002  0.00  0.00    +0.062 A 
ATOM      3  C   UNL     1       0.008  -0.814  -1.137  0.00  0.00    +0.068 A 
ATOM      4  C   UNL     1       0.028  -2.112  -0.726  0.00  0.00    +0.131 A 
ATOM      5  N   UNL     1       0.035  -2.109   0.636  0.00  0.00    -0.194 N 
ATOM      6  N   UNL     1       0.023  -0.774   1.060  0.00  0.00    -0.168 NA
ATOM      7  C   UNL     1       0.054  -3.232   1.460  0.00  0.00    +0.196 A 
ATOM      8  N   UNL     1       0.056  -3.300   2.777  0.00  0.00    -0.218 NA
ATOM      9  C   UNL     1       0.076  -4.466   3.407  0.00  0.00    +0.115 A 
ATOM     10  C   UNL     1       0.096  -5.623   2.673  0.00  0.00    +0.080 A 
ATOM     11  S   UNL     1       0.075  -4.962   1.012  0.00  0.00    -0.056 S 
ENDROOT
BRANCH   9  12
ATOM     12  C   UNL     1       0.079  -4.517   4.884  0.00  0.00    +0.155 A 
ATOM     13  C   UNL     1       0.056  -3.436   5.701  0.00  0.00    +0.060 A 
ATOM     14  C   UNL     1       0.067  -3.961   7.068  0.00  0.00    +0.021 A 
ATOM     15  C   UNL     1       0.055  -3.376   8.335  0.00  0.00    +0.011 A 
ATOM     16  C   UNL     1       0.073  -4.169   9.448  0.00  0.00    +0.001 A 
ATOM     17  C   UNL     1       0.104  -5.551   9.325  0.00  0.00    +0.004 A 
ATOM     18  C   UNL     1       0.116  -6.147   8.082  0.00  0.00    +0.047 A 
ATOM     19  C   UNL     1       0.098  -5.361   6.938  0.00  0.00    +0.136 A 
ATOM     20  O   UNL     1       0.098  -5.646   5.619  0.00  0.00    -0.453 OA
ENDBRANCH   9  12
BRANCH   4  21
ATOM     21  N   UNL     1       0.039  -3.236  -1.547  0.00  0.00    -0.264 N 
ATOM     22  C   UNL     1       0.030  -3.091  -2.887  0.00  0.00    +0.290 C 
ATOM     23  O   UNL     1       0.013  -1.981  -3.378  0.00  0.00    -0.266 OA
ATOM     24  H   UNL     1       0.053  -4.123  -1.155  0.00  0.00    +0.157 HD
BRANCH  22  25
ATOM     25  C   UNL     1       0.043  -4.294  -3.767  0.00  0.00    +0.250 C 
ATOM     26  O   UNL     1       0.060  -5.406  -3.276  0.00  0.00    -0.282 OA
BRANCH  25  27
ATOM     27  C   UNL     1       0.033  -4.138  -5.221  0.00  0.00    +0.052 A 
ATOM     28  C   UNL     1       0.019  -2.950  -5.928  0.00  0.00    +0.095 A 
ATOM     29  N   UNL     1       0.015  -3.211  -7.248  0.00  0.00    -0.360 N 
ATOM     30  H   UNL     1       0.005  -2.535  -7.943  0.00  0.00    +0.165 HD
ATOM     31  C   UNL     1       0.025  -4.573  -7.477  0.00  0.00    +0.047 A 
ATOM     32  C   UNL     1       0.042  -5.215  -6.229  0.00  0.00    +0.011 A 
ATOM     33  C   UNL     1       0.061  -6.605  -6.158  0.00  0.00    +0.011 A 
ATOM     34  C   UNL     1       0.066  -7.348  -7.320  0.00  0.00    +0.001 A 
ATOM     35  C   UNL     1       0.052  -6.715  -8.553  0.00  0.00    +0.002 A 
ATOM     36  C   UNL     1       0.025  -5.339  -8.637  0.00  0.00    +0.026 A 
ENDBRANCH  25  27
ENDBRANCH  22  25
ENDBRANCH   4  21
TORSDOF 4
