REMARK  Name = ZINC09963420
REMARK  9 active torsions:
REMARK  status: ('A' for Active; 'I' for Inactive)
REMARK    1  A    between atoms: C_1  and  C_2
REMARK    2  A    between atoms: C_5  and  C_36
REMARK    3  A    between atoms: N_8  and  S_10
REMARK    4  A    between atoms: S_10  and  C_13
REMARK    5  A    between atoms: N_19  and  C_24
REMARK    6  A    between atoms: C_24  and  C_25
REMARK    7  A    between atoms: N_27  and  C_28
REMARK    8  A    between atoms: C_28  and  C_29
REMARK    9  A    between atoms: C_29  and  C_30
REMARK                            x       y       z     vdW  Elec       q    Type
REMARK                         _______ _______ _______ _____ _____    ______ ____
ROOT
ATOM      1  C   UNL     1      -2.846  -0.014  -1.929  0.00  0.00    +0.107 A 
ATOM      2  C   UNL     1      -3.947   0.690  -2.380  0.00  0.00    +0.032 A 
ATOM      3  C   UNL     1      -5.224   0.274  -2.049  0.00  0.00    +0.049 A 
ATOM      4  C   UNL     1      -5.400  -0.851  -1.262  0.00  0.00    +0.143 A 
ATOM      5  C   UNL     1      -4.290  -1.560  -0.807  0.00  0.00    +0.081 A 
ATOM      6  C   UNL     1      -3.014  -1.142  -1.148  0.00  0.00    +0.055 A 
ATOM      7  N   UNL     1      -4.482  -2.697  -0.010  0.00  0.00    -0.256 N 
ATOM      8  C   UNL     1      -5.709  -3.261   0.040  0.00  0.00    +0.258 C 
ATOM      9  O   UNL     1      -5.906  -4.227   0.748  0.00  0.00    -0.271 OA
ATOM     10  C   UNL     1      -6.831  -2.686  -0.785  0.00  0.00    +0.325 C 
ATOM     11  O   UNL     1      -6.648  -1.275  -0.928  0.00  0.00    -0.481 OA
ENDROOT
BRANCH   1  12
ATOM     12  S   UNL     1      -1.224   0.524  -2.358  0.00  0.00    +0.061 S 
ATOM     13  O   UNL     1      -1.350   1.284  -3.552  0.00  0.00    -0.153 OA
ATOM     14  O   UNL     1      -0.381  -0.616  -2.266  0.00  0.00    -0.153 OA
BRANCH  12  20
ATOM     15  C   UNL     1      -1.879   5.010  -0.075  0.00  0.00    +0.009 C 
ATOM     16  C   UNL     1      -1.712   3.490  -0.028  0.00  0.00    +0.002 C 
ATOM     17  C   UNL     1      -0.878   3.105   1.196  0.00  0.00    +0.009 C 
ATOM     18  C   UNL     1      -0.736   1.583   1.264  0.00  0.00    +0.002 C 
ATOM     19  C   UNL     1      -0.013   1.086   0.008  0.00  0.00    +0.112 C 
ATOM     20  N   UNL     1      -0.729   1.575  -1.178  0.00  0.00    -0.176 NA
ATOM     21  C   UNL     1      -0.997   3.015  -1.297  0.00  0.00    +0.112 C 
ATOM     22  C   UNL     1      -2.124   0.945   1.340  0.00  0.00    +0.009 C 
ENDBRANCH  12  20
ENDBRANCH   1  12
BRANCH   7  23
ATOM     23  C   UNL     1      -3.370  -3.265   0.756  0.00  0.00    +0.209 C 
BRANCH  23  24
ATOM     24  C   UNL     1      -2.653  -4.290  -0.084  0.00  0.00    +0.231 C 
ATOM     25  O   UNL     1      -3.033  -4.522  -1.212  0.00  0.00    -0.274 OA
ATOM     26  N   UNL     1      -1.589  -4.947   0.418  0.00  0.00    -0.314 N 
ATOM     27  H   UNL     1      -1.285  -4.761   1.320  0.00  0.00    +0.149 HD
BRANCH  26  28
ATOM     28  C   UNL     1      -0.891  -5.943  -0.399  0.00  0.00    +0.109 C 
BRANCH  28  29
ATOM     29  C   UNL     1       0.270  -6.536   0.401  0.00  0.00    +0.054 C 
BRANCH  29  30
ATOM     30  C   UNL     1       0.988  -7.561  -0.440  0.00  0.00    -0.046 A 
ATOM     31  C   UNL     1       0.595  -8.886  -0.400  0.00  0.00    +0.004 A 
ATOM     32  C   UNL     1       1.250  -9.825  -1.175  0.00  0.00    +0.000 A 
ATOM     33  C   UNL     1       2.305  -9.441  -1.981  0.00  0.00    +0.000 A 
ATOM     34  C   UNL     1       2.702  -8.117  -2.016  0.00  0.00    +0.000 A 
ATOM     35  C   UNL     1       2.043  -7.177  -1.246  0.00  0.00    +0.004 A 
ENDBRANCH  29  30
ENDBRANCH  28  29
ENDBRANCH  26  28
ENDBRANCH  23  24
ENDBRANCH   7  23
TORSDOF 7
