REMARK  Name = ZINC09257623
REMARK  6 active torsions:
REMARK  status: ('A' for Active; 'I' for Inactive)
REMARK    1  A    between atoms: C_4  and  S_7
REMARK    2  A    between atoms: S_7  and  C_8
REMARK    3  A    between atoms: C_13  and  N_14
REMARK    4  A    between atoms: C_15  and  C_17
REMARK    5  A    between atoms: C_17  and  N_65
REMARK    6  A    between atoms: C_20  and  C_23
REMARK                            x       y       z     vdW  Elec       q    Type
REMARK                         _______ _______ _______ _____ _____    ______ ____
ROOT
ATOM      1  N   UNL     1       1.739  10.011  -1.400  0.00  0.00    -0.286 N 
ATOM      2  C   UNL     1       0.856  11.029  -1.427  0.00  0.00    +0.201 C 
ATOM      3  O   UNL     1       0.938  11.880  -2.287  0.00  0.00    -0.278 OA
ATOM      4  H   UNL     1       1.704   9.357  -0.685  0.00  0.00    +0.155 HD
ENDROOT
BRANCH   1  10
ATOM      5  C   UNL     1       3.299   8.663  -2.673  0.00  0.00    +0.034 A 
ATOM      6  C   UNL     1       4.263   8.560  -3.666  0.00  0.00    +0.017 A 
ATOM      7  C   UNL     1       4.627   9.677  -4.394  0.00  0.00    +0.001 A 
ATOM      8  C   UNL     1       4.042  10.902  -4.128  0.00  0.00    +0.002 A 
ATOM      9  C   UNL     1       3.085  11.015  -3.137  0.00  0.00    +0.024 A 
ATOM     10  C   UNL     1       2.709   9.899  -2.405  0.00  0.00    +0.047 A 
BRANCH   5  11
ATOM     11  S   UNL     1       2.828   7.240  -1.748  0.00  0.00    -0.088 S 
BRANCH  11  15
ATOM     12  C   UNL     1      -1.237   6.144  -3.417  0.00  0.00    +0.000 A 
ATOM     13  C   UNL     1      -0.585   7.274  -3.876  0.00  0.00    +0.001 A 
ATOM     14  C   UNL     1       0.652   7.614  -3.365  0.00  0.00    +0.015 A 
ATOM     15  C   UNL     1       1.246   6.814  -2.397  0.00  0.00    +0.013 A 
ATOM     16  C   UNL     1       0.590   5.676  -1.942  0.00  0.00    +0.015 A 
ATOM     17  C   UNL     1      -0.649   5.345  -2.454  0.00  0.00    +0.001 A 
ENDBRANCH  11  15
ENDBRANCH   5  11
ENDBRANCH   1  10
BRANCH   2  18
ATOM     18  C   UNL     1      -0.234  11.108  -0.389  0.00  0.00    +0.019 C 
BRANCH  18  24
ATOM     19  C   UNL     1      -2.151  12.405   0.321  0.00  0.00    -0.077 C 
ATOM     20  C   UNL     1      -2.956  13.675   0.036  0.00  0.00    -0.006 C 
ATOM     21  C   UNL     1      -2.080  14.901   0.310  0.00  0.00    +0.072 C 
ATOM     22  C   UNL     1      -0.821  14.824  -0.558  0.00  0.00    -0.006 C 
ATOM     23  C   UNL     1      -0.078  13.520  -0.256  0.00  0.00    -0.077 C 
ATOM     24  N   UNL     1      -0.966  12.379  -0.564  0.00  0.00    +0.385 N 
ATOM     25  H   UNL     1      -1.278  12.453  -1.539  0.00  0.00    -0.081 HD
BRANCH  21  26
ATOM     26  C   UNL     1      -2.848  16.154  -0.026  0.00  0.00    +0.219 C 
ATOM     27  O   UNL     1      -2.601  16.761  -1.046  0.00  0.00    -0.275 OA
ATOM     28  N   UNL     1      -3.808  16.599   0.808  0.00  0.00    -0.301 N 
ATOM     29  C   UNL     1      -4.623  17.718   0.391  0.00  0.00    +0.108 C 
ATOM     30  C   UNL     1      -3.960  19.042   0.824  0.00  0.00    +0.019 C 
ATOM     31  C   UNL     1      -4.051  19.205   2.283  0.00  0.00    +0.002 C 
ATOM     32  C   UNL     1      -3.316  18.133   3.082  0.00  0.00    +0.002 C 
ATOM     33  C   UNL     1      -4.215  16.933   3.254  0.00  0.00    +0.019 C 
ATOM     34  C   UNL     1      -3.981  15.929   2.111  0.00  0.00    +0.108 C 
ENDBRANCH  21  26
ENDBRANCH  18  24
ENDBRANCH   2  18
TORSDOF 6
