REMARK  Name = ZINC16345882
REMARK  10 active torsions:
REMARK  status: ('A' for Active; 'I' for Inactive)
REMARK    1  A    between atoms: C_1  and  O_2
REMARK    2  A    between atoms: O_2  and  C_3
REMARK    3  A    between atoms: C_5  and  N_33
REMARK    4  A    between atoms: C_8  and  N_9
REMARK    5  A    between atoms: N_9  and  C_10
REMARK    6  A    between atoms: C_10  and  N_12
REMARK    7  A    between atoms: N_12  and  C_13
REMARK    8  A    between atoms: C_16  and  S_19
REMARK    9  A    between atoms: S_19  and  N_22
REMARK   10  A    between atoms: N_22  and  C_23
REMARK                            x       y       z     vdW  Elec       q    Type
REMARK                         _______ _______ _______ _____ _____    ______ ____
ROOT
ATOM      1  C   UNL     1      -6.666   5.580  -0.685  0.00  0.00    +0.033 A 
ATOM      2  C   UNL     1      -6.314   6.801  -0.126  0.00  0.00    +0.025 A 
ATOM      3  C   UNL     1      -4.984   7.097   0.102  0.00  0.00    +0.030 A 
ATOM      4  C   UNL     1      -4.004   6.178  -0.224  0.00  0.00    +0.105 A 
ATOM      5  C   UNL     1      -4.351   4.963  -0.786  0.00  0.00    +0.030 A 
ATOM      6  C   UNL     1      -5.679   4.659  -1.012  0.00  0.00    +0.025 A 
ENDROOT
BRANCH   4   7
ATOM      7  S   UNL     1      -2.309   6.559   0.069  0.00  0.00    +0.059 S 
ATOM      8  O   UNL     1      -2.164   7.956  -0.141  0.00  0.00    -0.153 OA
ATOM      9  O   UNL     1      -1.546   5.597  -0.649  0.00  0.00    -0.153 OA
BRANCH   7  10
ATOM     10  N   UNL     1      -2.017   6.289   1.677  0.00  0.00    -0.184 NA
ATOM     11  H   UNL     1      -1.913   7.039   2.283  0.00  0.00    +0.149 HD
BRANCH  10  12
ATOM     12  C   UNL     1      -1.917   4.918   2.183  0.00  0.00    +0.041 C 
ATOM     13  C   UNL     1      -0.607   4.292   1.704  0.00  0.00    +0.027 C 
ATOM     14  C   UNL     1      -0.502   2.860   2.233  0.00  0.00    -0.009 C 
ATOM     15  C   UNL     1      -0.529   2.878   3.763  0.00  0.00    +0.007 C 
ATOM     16  C   UNL     1      -1.840   3.505   4.242  0.00  0.00    -0.009 C 
ATOM     17  C   UNL     1      -1.944   4.937   3.713  0.00  0.00    +0.027 C 
ATOM     18  C   UNL     1      -3.019   2.681   3.721  0.00  0.00    +0.007 C 
ATOM     19  C   UNL     1      -2.993   2.663   2.192  0.00  0.00    -0.009 C 
ATOM     20  C   UNL     1      -1.682   2.036   1.712  0.00  0.00    +0.007 C 
ATOM     21  C   UNL     1      -3.097   4.095   1.662  0.00  0.00    +0.027 C 
ENDBRANCH  10  12
ENDBRANCH   7  10
ENDBRANCH   4   7
BRANCH   1  22
ATOM     22  N   UNL     1      -8.012   5.277  -0.917  0.00  0.00    -0.297 N 
ATOM     23  H   UNL     1      -8.341   4.378  -0.760  0.00  0.00    +0.154 HD
BRANCH  22  24
ATOM     24  C   UNL     1      -8.851   6.234  -1.360  0.00  0.00    +0.139 C 
ATOM     25  S   UNL     1      -8.248   7.790  -1.744  0.00  0.00    -0.018 S 
BRANCH  24  26
ATOM     26  N   UNL     1     -10.164   5.967  -1.499  0.00  0.00    -0.294 N 
ATOM     27  H   UNL     1     -10.518   5.111  -1.211  0.00  0.00    +0.154 HD
BRANCH  26  33
ATOM     28  C   UNL     1     -12.220   7.244  -1.432  0.00  0.00    +0.143 A 
ATOM     29  C   UNL     1     -13.058   8.196  -1.989  0.00  0.00    +0.080 A 
ATOM     30  C   UNL     1     -12.707   8.820  -3.172  0.00  0.00    +0.130 A 
ATOM     31  C   UNL     1     -11.516   8.501  -3.799  0.00  0.00    +0.035 A 
ATOM     32  C   UNL     1     -10.672   7.556  -3.247  0.00  0.00    +0.029 A 
ATOM     33  C   UNL     1     -11.018   6.926  -2.061  0.00  0.00    +0.075 A 
BRANCH  30  34
ATOM     34  N   UNL     1     -13.607   9.833  -3.768  0.00  0.00    +0.057 N 
ATOM     35  O   UNL     1     -13.299  10.383  -4.810  0.00  0.00    -0.126 OA
ATOM     36  O   UNL     1     -14.655  10.115  -3.217  0.00  0.00    -0.126 OA
ENDBRANCH  30  34
BRANCH  28  38
ATOM     37  C   UNL     1     -13.814   7.002   0.316  0.00  0.00    +0.277 C 
ATOM     38  O   UNL     1     -12.567   6.625  -0.272  0.00  0.00    -0.493 OA
ENDBRANCH  28  38
ENDBRANCH  26  33
ENDBRANCH  24  26
ENDBRANCH  22  24
ENDBRANCH   1  22
TORSDOF 9
