REMARK  Name = ZINC66716985
REMARK  9 active torsions:
REMARK  status: ('A' for Active; 'I' for Inactive)
REMARK    1  A    between atoms: C_1  and  C_2
REMARK    2  A    between atoms: C_5  and  C_9
REMARK    3  A    between atoms: C_6  and  C_8
REMARK    4  A    between atoms: C_9  and  C_10
REMARK    5  A    between atoms: C_10  and  C_12
REMARK    6  A    between atoms: C_10  and  N_13
REMARK    7  A    between atoms: N_16  and  N_17
REMARK    8  A    between atoms: C_18  and  C_20
REMARK    9  A    between atoms: C_25  and  O_26
REMARK                            x       y       z     vdW  Elec       q    Type
REMARK                         _______ _______ _______ _____ _____    ______ ____
ROOT
ATOM      1  N   UNL     1      -2.609  -4.329   1.750  0.00  0.00    -0.295 N 
ATOM      2  C   UNL     1      -3.911  -3.980   1.724  0.00  0.00    +0.316 C 
ATOM      3  O   UNL     1      -4.576  -4.188   0.728  0.00  0.00    -0.251 OA
ATOM      4  N   UNL     1      -4.475  -3.401   2.803  0.00  0.00    -0.218 N 
ATOM      5  H   UNL     1      -2.079  -4.163   2.545  0.00  0.00    +0.151 HD
ATOM      6  H   UNL     1      -5.412  -3.150   2.784  0.00  0.00    +0.174 HD
ENDROOT
BRANCH   4   7
ATOM      7  N   UNL     1      -3.708  -3.162   3.951  0.00  0.00    -0.229 N 
ATOM      8  C   UNL     1      -4.273  -2.583   5.029  0.00  0.00    +0.264 C 
ATOM      9  O   UNL     1      -5.447  -2.268   5.006  0.00  0.00    -0.269 OA
ATOM     10  H   UNL     1      -2.772  -3.413   3.970  0.00  0.00    +0.173 HD
BRANCH   8  11
ATOM     11  C   UNL     1      -3.465  -2.331   6.238  0.00  0.00    +0.079 A 
ATOM     12  C   UNL     1      -2.114  -2.686   6.267  0.00  0.00    +0.017 A 
ATOM     13  C   UNL     1      -1.366  -2.447   7.399  0.00  0.00    +0.001 A 
ATOM     14  C   UNL     1      -1.947  -1.857   8.510  0.00  0.00    +0.004 A 
ATOM     15  C   UNL     1      -3.281  -1.502   8.495  0.00  0.00    +0.046 A 
ATOM     16  C   UNL     1      -4.048  -1.729   7.362  0.00  0.00    +0.129 A 
BRANCH  16  17
ATOM     17  O   UNL     1      -5.357  -1.375   7.343  0.00  0.00    -0.506 OA
ATOM     18  H   UNL     1      -5.957  -2.069   7.650  0.00  0.00    +0.292 HD
ENDBRANCH  16  17
ENDBRANCH   8  11
ENDBRANCH   4   7
BRANCH   1  19
ATOM     19  C   UNL     1      -1.996  -4.958   0.578  0.00  0.00    +0.076 C 
ATOM     20  C   UNL     1      -2.225  -6.470   0.633  0.00  0.00    +0.028 C 
BRANCH  19  21
ATOM     21  C   UNL     1      -0.493  -4.670   0.572  0.00  0.00    +0.057 C 
BRANCH  21  26
ATOM     22  C   UNL     1       0.381   0.999  -0.128  0.00  0.00    +0.044 C 
ATOM     23  C   UNL     1       0.153  -0.479   0.055  0.00  0.00    -0.050 A 
ATOM     24  C   UNL     1       0.238  -1.042   1.315  0.00  0.00    +0.003 A 
ATOM     25  C   UNL     1       0.029  -2.397   1.482  0.00  0.00    +0.004 A 
ATOM     26  C   UNL     1      -0.266  -3.192   0.390  0.00  0.00    -0.043 A 
ATOM     27  C   UNL     1      -0.353  -2.629  -0.870  0.00  0.00    -0.047 A 
ATOM     28  C   UNL     1      -0.148  -1.272  -1.037  0.00  0.00    +0.007 A 
ATOM     29  C   UNL     1      -0.674  -3.495  -2.061  0.00  0.00    +0.044 C 
ENDBRANCH  21  26
ENDBRANCH  19  21
ENDBRANCH   1  19
TORSDOF 6
