REMARK  Name = ZINC06077255
REMARK  7 active torsions:
REMARK  status: ('A' for Active; 'I' for Inactive)
REMARK    1  A    between atoms: C_1  and  C_2
REMARK    2  A    between atoms: C_3  and  C_29
REMARK    3  A    between atoms: C_4  and  C_20
REMARK    4  A    between atoms: C_10  and  C_15
REMARK    5  A    between atoms: C_23  and  O_28
REMARK    6  A    between atoms: C_24  and  O_26
REMARK    7  A    between atoms: O_26  and  C_27
REMARK                            x       y       z     vdW  Elec       q    Type
REMARK                         _______ _______ _______ _____ _____    ______ ____
ROOT
ATOM      1  C   UNL     1       3.095   7.522  -0.157  0.00  0.00    +0.061 C 
ATOM      2  C   UNL     1       1.715   8.125  -0.101  0.00  0.00    +0.014 C 
ATOM      3  C   UNL     1       0.639   7.324  -0.036  0.00  0.00    +0.043 C 
ATOM      4  C   UNL     1      -0.750   7.888   0.020  0.00  0.00    +0.090 C 
ATOM      5  C   UNL     1      -0.727   9.343   0.416  0.00  0.00    +0.024 C 
ATOM      6  C   UNL     1       0.410  10.065   0.322  0.00  0.00    +0.016 C 
ATOM      7  N   UNL     1       1.567   9.485  -0.122  0.00  0.00    -0.321 N 
ATOM      8  C   UNL     1       0.437  11.524   0.704  0.00  0.00    +0.062 C 
ATOM      9  C   UNL     1      -0.582  11.784   1.816  0.00  0.00    +0.068 C 
ATOM     10  C   UNL     1      -1.968  11.365   1.312  0.00  0.00    +0.091 C 
ATOM     11  C   UNL     1      -1.918   9.923   0.886  0.00  0.00    +0.162 C 
ATOM     12  O   UNL     1      -2.926   9.248   0.949  0.00  0.00    -0.292 OA
ATOM     13  H   UNL     1       2.382  10.121  -0.498  0.00  0.00    +0.152 HD
ENDROOT
BRANCH   3  14
ATOM     14  C   UNL     1       0.820   5.919  -0.013  0.00  0.00    +0.248 C 
ATOM     15  O   UNL     1       0.679   5.304   1.029  0.00  0.00    -0.270 OA
ATOM     16  N   UNL     1       1.147   5.263  -1.144  0.00  0.00    -0.267 N 
ATOM     17  C   UNL     1       1.225   3.873  -1.145  0.00  0.00    +0.125 A 
ATOM     18  C   UNL     1       1.450   3.196  -2.339  0.00  0.00    +0.044 A 
ATOM     19  C   UNL     1       1.525   1.814  -2.325  0.00  0.00    +0.005 A 
ATOM     20  C   UNL     1       1.371   1.154  -1.113  0.00  0.00    +0.020 A 
ATOM     21  C   UNL     1       1.144   1.890   0.033  0.00  0.00    +0.113 A 
ATOM     22  N   UNL     1       1.084   3.207  -0.009  0.00  0.00    -0.240 NA
ATOM     23  H   UNL     1       1.353   5.826  -2.066  0.00  0.00    +0.157 HD
ENDBRANCH   3  14
BRANCH   4  24
ATOM     24  C   UNL     1      -1.393   7.756  -1.337  0.00  0.00    -0.032 A 
ATOM     25  C   UNL     1      -0.823   8.376  -2.433  0.00  0.00    +0.008 A 
ATOM     26  C   UNL     1      -1.406   8.253  -3.681  0.00  0.00    +0.049 A 
ATOM     27  C   UNL     1      -2.569   7.516  -3.832  0.00  0.00    +0.158 A 
ATOM     28  C   UNL     1      -3.146   6.896  -2.727  0.00  0.00    +0.162 A 
ATOM     29  C   UNL     1      -2.554   7.019  -1.481  0.00  0.00    +0.054 A 
BRANCH  28  30
ATOM     30  O   UNL     1      -4.288   6.173  -2.871  0.00  0.00    -0.491 OA
ATOM     31  C   UNL     1      -4.823   5.565  -1.693  0.00  0.00    +0.277 C 
ENDBRANCH  28  30
BRANCH  27  32
ATOM     32  O   UNL     1      -3.147   7.399  -5.058  0.00  0.00    -0.503 OA
ATOM     33  H   UNL     1      -4.071   6.814  -5.176  0.00  0.00    +0.292 HD
ENDBRANCH  27  32
ENDBRANCH   4  24
BRANCH   9  34
ATOM     34  C   UNL     1      -0.592  13.250   2.162  0.00  0.00    +0.109 A 
ATOM     35  C   UNL     1      -0.330  13.774   3.373  0.00  0.00    +0.045 A 
ATOM     36  C   UNL     1      -0.450  15.177   3.247  0.00  0.00    +0.041 A 
ATOM     37  C   UNL     1      -0.779  15.427   1.967  0.00  0.00    +0.195 A 
ATOM     38  O   UNL     1      -0.857  14.256   1.313  0.00  0.00    -0.468 OA
ENDBRANCH   9  34
TORSDOF 5
