REMARK  Name = ZINC37020240
REMARK  9 active torsions:
REMARK  status: ('A' for Active; 'I' for Inactive)
REMARK    1  A    between atoms: C_1  and  C_2
REMARK    2  A    between atoms: C_2  and  C_3
REMARK    3  A    between atoms: C_2  and  C_4
REMARK    4  A    between atoms: C_4  and  C_5
REMARK    5  A    between atoms: C_5  and  C_7
REMARK    6  A    between atoms: C_5  and  N_22
REMARK    7  A    between atoms: N_9  and  C_10
REMARK    8  A    between atoms: C_15  and  O_16
REMARK    9  A    between atoms: O_16  and  C_17
REMARK                            x       y       z     vdW  Elec       q    Type
REMARK                         _______ _______ _______ _____ _____    ______ ____
ROOT
ATOM      1  C   UNL     1      -2.825  -2.520  -0.255  0.00  0.00    +0.203 C 
ATOM      2  O   UNL     1      -3.524  -2.877   0.670  0.00  0.00    -0.277 OA
ATOM      3  N   UNL     1      -3.300  -2.565  -1.516  0.00  0.00    -0.284 N 
ATOM      4  H   UNL     1      -2.719  -2.345  -2.261  0.00  0.00    +0.155 HD
ENDROOT
BRANCH   3   5
ATOM      5  C   UNL     1      -4.632  -2.930  -1.750  0.00  0.00    +0.078 A 
ATOM      6  C   UNL     1      -5.617  -2.593  -0.833  0.00  0.00    +0.047 A 
ATOM      7  C   UNL     1      -6.931  -2.954  -1.065  0.00  0.00    +0.044 A 
ATOM      8  C   UNL     1      -7.267  -3.652  -2.212  0.00  0.00    +0.039 A 
ATOM      9  C   UNL     1      -6.290  -3.992  -3.130  0.00  0.00    +0.063 A 
ATOM     10  C   UNL     1      -4.972  -3.628  -2.906  0.00  0.00    +0.162 A 
ATOM     11 BR   UNL     1      -6.755  -4.946  -4.696  0.00  0.00    -0.046 Br
ATOM     12 CL   UNL     1      -8.162  -2.532   0.084  0.00  0.00    -0.083 Cl
BRANCH  10  13
ATOM     13  O   UNL     1      -4.011  -3.956  -3.811  0.00  0.00    -0.431 OA
BRANCH  13  14
ATOM     14  C   UNL     1      -3.357  -5.215  -3.635  0.00  0.00    +0.541 C 
ATOM     15  F   UNL     1      -2.724  -5.241  -2.388  0.00  0.00    -0.166 F 
ATOM     16  F   UNL     1      -4.302  -6.244  -3.700  0.00  0.00    -0.166 F 
ENDBRANCH  13  14
ENDBRANCH  10  13
ENDBRANCH   3   5
BRANCH   1  17
ATOM     17  C   UNL     1      -1.425  -2.026   0.006  0.00  0.00    +0.013 C 
BRANCH  17  18
ATOM     18  N   UNL     1      -0.974  -2.504   1.320  0.00  0.00    +0.386 N 
ATOM     19  H   UNL     1      -1.063  -3.508   1.361  0.00  0.00    -0.089 HD
ATOM     20  H   UNL     1      -0.009  -2.245   1.458  0.00  0.00    -0.089 HD
ATOM     21  H   UNL     1      -1.541  -2.086   2.042  0.00  0.00    -0.089 HD
ENDBRANCH  17  18
BRANCH  17  22
ATOM     22  C   UNL     1      -1.412  -0.496  -0.013  0.00  0.00    -0.004 C 
BRANCH  22  24
ATOM     23  C   UNL     1       0.845  -0.409  -1.081  0.00  0.00    +0.007 C 
ATOM     24  C   UNL     1       0.025   0.003   0.143  0.00  0.00    -0.018 C 
ATOM     25  C   UNL     1       0.025   1.528   0.266  0.00  0.00    +0.007 C 
ENDBRANCH  22  24
ENDBRANCH  17  22
ENDBRANCH   1  17
TORSDOF 7
