REMARK  Name = ZINC01934118
REMARK  10 active torsions:
REMARK  status: ('A' for Active; 'I' for Inactive)
REMARK    1  A    between atoms: C_1  and  C_2
REMARK    2  A    between atoms: C_2  and  C_3
REMARK    3  A    between atoms: C_8  and  N_9
REMARK    4  A    between atoms: C_10  and  C_12
REMARK    5  A    between atoms: C_12  and  O_13
REMARK    6  A    between atoms: O_13  and  C_14
REMARK    7  A    between atoms: C_21  and  C_33
REMARK    8  A    between atoms: C_22  and  O_25
REMARK    9  A    between atoms: O_25  and  C_26
REMARK   10  A    between atoms: C_30  and  C_32
REMARK                            x       y       z     vdW  Elec       q    Type
REMARK                         _______ _______ _______ _____ _____    ______ ____
ROOT
ATOM      1  C   UNL     1      -7.731   0.416   1.015  0.00  0.00    +0.125 A 
ATOM      2  C   UNL     1      -7.216   0.744   2.268  0.00  0.00    +0.046 A 
ATOM      3  C   UNL     1      -6.075   1.487   2.373  0.00  0.00    +0.019 A 
ATOM      4  C   UNL     1      -5.423   1.921   1.217  0.00  0.00    +0.068 A 
ATOM      5  C   UNL     1      -5.936   1.595  -0.051  0.00  0.00    +0.143 A 
ATOM      6  C   UNL     1      -7.096   0.839  -0.141  0.00  0.00    +0.092 A 
ATOM      7  O   UNL     1      -5.298   2.020  -1.160  0.00  0.00    -0.447 OA
ATOM      8  C   UNL     1      -4.179   2.756  -1.108  0.00  0.00    +0.254 A 
ATOM      9  C   UNL     1      -3.599   3.119   0.053  0.00  0.00    +0.222 A 
ATOM     10  C   UNL     1      -4.190   2.724   1.287  0.00  0.00    +0.235 A 
ATOM     11  O   UNL     1      -3.697   3.038   2.357  0.00  0.00    -0.283 OA
ENDROOT
BRANCH   8  12
ATOM     12  C   UNL     1      -3.539   3.190  -2.401  0.00  0.00    +0.454 C 
ATOM     13  F   UNL     1      -2.621   2.220  -2.816  0.00  0.00    -0.163 F 
ATOM     14  F   UNL     1      -4.526   3.346  -3.380  0.00  0.00    -0.163 F 
ATOM     15  F   UNL     1      -2.877   4.407  -2.208  0.00  0.00    -0.163 F 
ENDBRANCH   8  12
BRANCH   1  16
ATOM     16  O   UNL     1      -8.866  -0.324   0.926  0.00  0.00    -0.483 OA
BRANCH  16  17
ATOM     17  C   UNL     1      -9.473  -0.729   2.155  0.00  0.00    +0.324 C 
BRANCH  17  19
ATOM     18  N   UNL     1     -11.453  -2.026   2.873  0.00  0.00    -0.282 N 
ATOM     19  C   UNL     1     -10.712  -1.535   1.860  0.00  0.00    +0.255 C 
ATOM     20  O   UNL     1     -11.042  -1.742   0.712  0.00  0.00    -0.272 OA
ATOM     21  H   UNL     1     -11.147  -1.929   3.789  0.00  0.00    +0.155 HD
BRANCH  18  27
ATOM     22  C   UNL     1     -13.172  -3.600   3.506  0.00  0.00    -0.026 A 
ATOM     23  C   UNL     1     -14.367  -4.239   3.238  0.00  0.00    +0.005 A 
ATOM     24  C   UNL     1     -15.057  -3.957   2.073  0.00  0.00    +0.000 A 
ATOM     25  C   UNL     1     -14.553  -3.036   1.173  0.00  0.00    +0.002 A 
ATOM     26  C   UNL     1     -13.361  -2.390   1.438  0.00  0.00    +0.023 A 
ATOM     27  C   UNL     1     -12.663  -2.675   2.605  0.00  0.00    +0.037 A 
BRANCH  22  29
ATOM     28  C   UNL     1     -12.791  -2.880   5.848  0.00  0.00    +0.009 C 
ATOM     29  C   UNL     1     -12.421  -3.907   4.776  0.00  0.00    +0.033 C 
ENDBRANCH  22  29
ENDBRANCH  18  27
ENDBRANCH  17  19
ENDBRANCH  16  17
ENDBRANCH   1  16
BRANCH   9  30
ATOM     30  O   UNL     1      -2.459   3.862   0.047  0.00  0.00    -0.448 OA
BRANCH  30  31
ATOM     31  C   UNL     1      -1.270   3.206   0.036  0.00  0.00    +0.129 A 
ATOM     32  C   UNL     1      -1.241   1.819   0.028  0.00  0.00    +0.046 A 
ATOM     33  C   UNL     1      -0.030   1.154   0.022  0.00  0.00    +0.004 A 
ATOM     34  C   UNL     1       1.153   1.870   0.015  0.00  0.00    +0.003 A 
ATOM     35  C   UNL     1       1.127   3.252   0.019  0.00  0.00    -0.047 A 
ATOM     36  C   UNL     1      -0.081   3.922   0.029  0.00  0.00    +0.049 A 
ATOM     37  C   UNL     1       2.419   4.029   0.011  0.00  0.00    +0.044 C 
ENDBRANCH  30  31
ENDBRANCH   9  30
TORSDOF 8
