REMARK  Name = ZINC38899432
REMARK  10 active torsions:
REMARK  status: ('A' for Active; 'I' for Inactive)
REMARK    1  A    between atoms: C_1  and  O_2
REMARK    2  A    between atoms: O_2  and  C_3
REMARK    3  A    between atoms: C_6  and  C_11
REMARK    4  A    between atoms: C_8  and  O_9
REMARK    5  A    between atoms: O_9  and  C_10
REMARK    6  A    between atoms: N_17  and  N_18
REMARK    7  A    between atoms: C_19  and  C_20
REMARK    8  A    between atoms: C_22  and  O_28
REMARK    9  A    between atoms: C_23  and  O_27
REMARK   10  A    between atoms: O_28  and  C_29
REMARK                            x       y       z     vdW  Elec       q    Type
REMARK                         _______ _______ _______ _____ _____    ______ ____
ROOT
ATOM      1  C   UNL     1       2.588  -2.554   4.331  0.00  0.00    +0.264 C 
ATOM      2  N   UNL     1       3.234  -3.796   3.880  0.00  0.00    -0.189 NA
ATOM      3  N   UNL     1       4.449  -3.683   4.061  0.00  0.00    -0.219 N 
ATOM      4  C   UNL     1       4.806  -2.488   4.603  0.00  0.00    +0.174 C 
ATOM      5  S   UNL     1       6.410  -2.020   4.975  0.00  0.00    -0.015 S 
ATOM      6  N   UNL     1       3.708  -1.721   4.806  0.00  0.00    -0.172 N 
ATOM      7  H   UNL     1       5.088  -4.379   3.839  0.00  0.00    +0.176 HD
ENDROOT
BRANCH   1  11
ATOM      8  C   UNL     1       0.573  -0.639   1.081  0.00  0.00    +0.162 A 
ATOM      9  C   UNL     1       1.157   0.120   2.082  0.00  0.00    +0.050 A 
ATOM     10  C   UNL     1       1.808  -0.502   3.131  0.00  0.00    +0.011 A 
ATOM     11  C   UNL     1       1.877  -1.881   3.185  0.00  0.00    +0.001 A 
ATOM     12  C   UNL     1       1.296  -2.645   2.190  0.00  0.00    +0.056 A 
ATOM     13  C   UNL     1       0.637  -2.028   1.139  0.00  0.00    +0.162 A 
BRANCH   8  15
ATOM     14  C   UNL     1      -0.095   1.399   0.055  0.00  0.00    +0.277 C 
ATOM     15  O   UNL     1      -0.068  -0.029   0.049  0.00  0.00    -0.491 OA
ENDBRANCH   8  15
BRANCH  13  16
ATOM     16  O   UNL     1       0.060  -2.778   0.162  0.00  0.00    -0.491 OA
ATOM     17  C   UNL     1       0.166  -4.198   0.286  0.00  0.00    +0.277 C 
ENDBRANCH  13  16
ENDBRANCH   1  11
BRANCH   6  18
ATOM     18  N   UNL     1       3.648  -0.429   5.345  0.00  0.00    -0.183 NA
ATOM     19  C   UNL     1       4.721   0.126   5.822  0.00  0.00    +0.138 C 
BRANCH  19  20
ATOM     20  C   UNL     1       4.638   1.438   6.488  0.00  0.00    -0.001 A 
ATOM     21  C   UNL     1       5.793   2.039   6.997  0.00  0.00    +0.059 A 
ATOM     22  C   UNL     1       5.710   3.270   7.621  0.00  0.00    +0.163 A 
ATOM     23  C   UNL     1       4.477   3.908   7.742  0.00  0.00    +0.173 A 
ATOM     24  C   UNL     1       3.330   3.311   7.238  0.00  0.00    +0.063 A 
ATOM     25  C   UNL     1       3.406   2.085   6.608  0.00  0.00    +0.028 A 
ATOM     26 BR   UNL     1       1.660   4.182   7.408  0.00  0.00    -0.046 Br
BRANCH  23  27
ATOM     27  O   UNL     1       4.397   5.118   8.357  0.00  0.00    -0.503 OA
ATOM     28  H   UNL     1       4.506   5.870   7.759  0.00  0.00    +0.292 HD
ENDBRANCH  23  27
BRANCH  22  29
ATOM     29  O   UNL     1       6.831   3.858   8.116  0.00  0.00    -0.491 OA
ATOM     30  C   UNL     1       8.061   3.147   7.957  0.00  0.00    +0.277 C 
ENDBRANCH  22  29
ENDBRANCH  19  20
ENDBRANCH   6  18
TORSDOF 7
