REMARK  Name = ZINC20875721
REMARK  8 active torsions:
REMARK  status: ('A' for Active; 'I' for Inactive)
REMARK    1  A    between atoms: C_4  and  N_7
REMARK    2  A    between atoms: C_8  and  S_12
REMARK    3  A    between atoms: S_12  and  C_13
REMARK    4  A    between atoms: C_13  and  C_14
REMARK    5  A    between atoms: C_14  and  N_15
REMARK    6  A    between atoms: N_15  and  C_16
REMARK    7  A    between atoms: C_16  and  C_17
REMARK    8  A    between atoms: C_20  and  C_22
REMARK                            x       y       z     vdW  Elec       q    Type
REMARK                         _______ _______ _______ _____ _____    ______ ____
ROOT
ATOM      1  N   UNL     1      -4.591   3.764  -2.327  0.00  0.00    +0.384 N 
ATOM      2  H   UNL     1      -3.811   3.423  -3.024  0.00  0.00    -0.085 HD
ATOM      3  H   UNL     1      -4.319   4.752  -1.927  0.00  0.00    -0.085 HD
ENDROOT
BRANCH   1   4
ATOM      4  C   UNL     1      -5.874   3.858  -3.035  0.00  0.00    -0.071 C 
BRANCH   4   5
ATOM      5  C   UNL     1      -5.749   4.857  -4.188  0.00  0.00    +0.058 C 
BRANCH   5   6
ATOM      6  S   UNL     1      -7.330   4.973  -5.060  0.00  0.00    -0.086 S 
BRANCH   6   8
ATOM      7  N   UNL     1      -7.730   6.634  -7.267  0.00  0.00    -0.187 N 
ATOM      8  C   UNL     1      -6.910   6.155  -6.298  0.00  0.00    +0.214 A 
ATOM      9  N   UNL     1      -5.741   6.735  -6.461  0.00  0.00    -0.101 NA
ATOM     10  N   UNL     1      -5.775   7.544  -7.458  0.00  0.00    -0.022 NA
ATOM     11  N   UNL     1      -6.945   7.543  -7.998  0.00  0.00    -0.038 NA
BRANCH   7  15
ATOM     12  C   UNL     1     -11.722   5.631  -7.932  0.00  0.00    +0.000 A 
ATOM     13  C   UNL     1     -11.287   6.922  -8.166  0.00  0.00    +0.002 A 
ATOM     14  C   UNL     1      -9.965   7.258  -7.947  0.00  0.00    +0.028 A 
ATOM     15  C   UNL     1      -9.073   6.297  -7.491  0.00  0.00    +0.070 A 
ATOM     16  C   UNL     1      -9.511   5.000  -7.262  0.00  0.00    +0.028 A 
ATOM     17  C   UNL     1     -10.835   4.672  -7.477  0.00  0.00    +0.002 A 
ENDBRANCH   7  15
ENDBRANCH   6   8
ENDBRANCH   5   6
ENDBRANCH   4   5
ENDBRANCH   1   4
BRANCH   1  18
ATOM     18  C   UNL     1      -4.674   2.812  -1.211  0.00  0.00    -0.007 C 
BRANCH  18  19
ATOM     19  C   UNL     1      -3.342   2.742  -0.510  0.00  0.00    +0.089 A 
ATOM     20  C   UNL     1      -2.957   3.516   0.524  0.00  0.00    +0.043 A 
ATOM     21  C   UNL     1      -1.649   3.120   0.870  0.00  0.00    +0.050 A 
ATOM     22  C   UNL     1      -1.305   2.117   0.020  0.00  0.00    +0.136 A 
ATOM     23  O   UNL     1      -2.339   1.902  -0.816  0.00  0.00    -0.462 OA
BRANCH  22  24
ATOM     24  C   UNL     1      -0.017   1.393   0.010  0.00  0.00    +0.036 A 
ATOM     25  C   UNL     1       1.186   2.101   0.002  0.00  0.00    +0.014 A 
ATOM     26  C   UNL     1       2.385   1.419  -0.013  0.00  0.00    +0.016 A 
ATOM     27  C   UNL     1       2.398   0.035  -0.021  0.00  0.00    +0.019 A 
ATOM     28  C   UNL     1       1.209  -0.675  -0.013  0.00  0.00    +0.036 A 
ATOM     29  C   UNL     1       0.002  -0.004   0.002  0.00  0.00    +0.053 A 
ATOM     30 CL   UNL     1      -1.488  -0.895   0.011  0.00  0.00    -0.083 Cl
ATOM     31 BR   UNL     1       4.046  -0.892  -0.041  0.00  0.00    -0.050 Br
ENDBRANCH  22  24
ENDBRANCH  18  19
ENDBRANCH   1  18
TORSDOF 8
