REMARK  Name = ZINC03640815
REMARK  8 active torsions:
REMARK  status: ('A' for Active; 'I' for Inactive)
REMARK    1  A    between atoms: C_1  and  C_2
REMARK    2  A    between atoms: C_2  and  O_3
REMARK    3  A    between atoms: O_3  and  C_4
REMARK    4  A    between atoms: C_6  and  C_12
REMARK    5  A    between atoms: C_9  and  O_10
REMARK    6  A    between atoms: C_24  and  S_27
REMARK    7  A    between atoms: S_27  and  C_28
REMARK    8  A    between atoms: C_28  and  C_29
REMARK                            x       y       z     vdW  Elec       q    Type
REMARK                         _______ _______ _______ _____ _____    ______ ____
ROOT
ATOM      1  C   UNL     1      -2.448  -6.148   2.656  0.00  0.00    +0.294 C 
ATOM      2  N   UNL     1      -2.485  -6.653   1.287  0.00  0.00    -0.305 N 
ATOM      3  C   UNL     1      -1.333  -7.240   0.755  0.00  0.00    +0.039 A 
ATOM      4  C   UNL     1      -1.275  -8.595   0.483  0.00  0.00    +0.024 A 
ATOM      5  C   UNL     1      -0.114  -9.145  -0.029  0.00  0.00    +0.002 A 
ATOM      6  C   UNL     1       0.992  -8.348  -0.270  0.00  0.00    +0.001 A 
ATOM      7  C   UNL     1       0.948  -6.992  -0.009  0.00  0.00    +0.012 A 
ATOM      8  C   UNL     1      -0.215  -6.425   0.499  0.00  0.00    +0.028 A 
ATOM      9  C   UNL     1      -0.317  -4.974   0.761  0.00  0.00    +0.156 A 
ATOM     10  C   UNL     1      -0.853  -4.523   1.989  0.00  0.00    +0.248 A 
ATOM     11  N   UNL     1      -0.946  -3.221   2.200  0.00  0.00    -0.184 NA
ATOM     12  C   UNL     1      -0.532  -2.377   1.259  0.00  0.00    +0.213 A 
ATOM     13  N   UNL     1      -0.033  -2.822   0.113  0.00  0.00    -0.122 NA
ATOM     14  N   UNL     1       0.080  -4.082  -0.133  0.00  0.00    -0.141 NA
ATOM     15  O   UNL     1      -1.254  -5.420   2.920  0.00  0.00    -0.449 OA
ATOM     16  H   UNL     1      -3.294  -6.582   0.756  0.00  0.00    +0.150 HD
ENDROOT
BRANCH   1  19
ATOM     17  C   UNL     1      -1.893  -8.359   5.669  0.00  0.00    +0.163 A 
ATOM     18  C   UNL     1      -1.814  -7.290   4.790  0.00  0.00    +0.058 A 
ATOM     19  C   UNL     1      -2.535  -7.311   3.611  0.00  0.00    +0.016 A 
ATOM     20  C   UNL     1      -3.340  -8.393   3.308  0.00  0.00    +0.028 A 
ATOM     21  C   UNL     1      -3.419  -9.465   4.178  0.00  0.00    +0.063 A 
ATOM     22  C   UNL     1      -2.699  -9.451   5.362  0.00  0.00    +0.173 A 
ATOM     23 BR   UNL     1      -4.515 -10.947   3.756  0.00  0.00    -0.046 Br
BRANCH  22  24
ATOM     24  O   UNL     1      -2.779 -10.502   6.222  0.00  0.00    -0.503 OA
ATOM     25  H   UNL     1      -3.482 -10.419   6.880  0.00  0.00    +0.292 HD
ENDBRANCH  22  24
BRANCH  17  26
ATOM     26  O   UNL     1      -1.184  -8.340   6.830  0.00  0.00    -0.489 OA
BRANCH  26  28
ATOM     27  C   UNL     1       0.339  -7.346   8.421  0.00  0.00    +0.048 C 
ATOM     28  C   UNL     1      -0.378  -7.187   7.079  0.00  0.00    +0.226 C 
ENDBRANCH  26  28
ENDBRANCH  17  26
ENDBRANCH   1  19
BRANCH  12  29
ATOM     29  S   UNL     1      -0.656  -0.642   1.536  0.00  0.00    -0.080 S 
BRANCH  29  30
ATOM     30  C   UNL     1       0.030  -0.026  -0.022  0.00  0.00    +0.104 C 
BRANCH  30  31
ATOM     31  C   UNL     1       0.024   1.481  -0.012  0.00  0.00    -0.023 C 
ATOM     32  C   UNL     1       1.156   2.141  -0.032  0.00  0.00    +0.005 C 
ENDBRANCH  30  31
ENDBRANCH  29  30
ENDBRANCH  12  29
TORSDOF 7
