REMARK  Name = ZINC03365589
REMARK  14 active torsions:
REMARK  status: ('A' for Active; 'I' for Inactive)
REMARK    1  A    between atoms: C_1  and  C_2
REMARK    2  A    between atoms: C_2  and  C_3
REMARK    3  A    between atoms: C_3  and  C_4
REMARK    4  A    between atoms: C_4  and  N_5
REMARK    5  A    between atoms: N_5  and  C_6
REMARK    6  A    between atoms: C_7  and  N_22
REMARK    7  A    between atoms: N_8  and  C_15
REMARK    8  A    between atoms: C_15  and  C_16
REMARK    9  A    between atoms: C_23  and  C_25
REMARK   10  A    between atoms: C_25  and  S_26
REMARK   11  A    between atoms: S_26  and  C_27
REMARK   12  A    between atoms: C_29  and  C_39
REMARK   13  A    between atoms: C_33  and  O_37
REMARK   14  A    between atoms: O_37  and  C_38
REMARK                            x       y       z     vdW  Elec       q    Type
REMARK                         _______ _______ _______ _____ _____    ______ ____
ROOT
ATOM      1  N   UNL     1       2.359   3.681   0.046  0.00  0.00    -0.264 N 
ATOM      2  C   UNL     1       2.319   5.023  -0.093  0.00  0.00    +0.230 C 
ATOM      3  O   UNL     1       1.252   5.598  -0.129  0.00  0.00    -0.274 OA
ENDROOT
BRANCH   1   4
ATOM      4  C   UNL     1       1.160   2.937   0.045  0.00  0.00    +0.140 A 
ATOM      5  C   UNL     1       0.748   2.269   1.181  0.00  0.00    +0.128 A 
ATOM      6  N   UNL     1      -0.425   1.552   1.149  0.00  0.00    -0.276 N 
ATOM      7  C   UNL     1      -1.165   1.506   0.027  0.00  0.00    +0.331 A 
ATOM      8  O   UNL     1      -2.202   0.870   0.021  0.00  0.00    -0.246 OA
ATOM      9  N   UNL     1      -0.777   2.146  -1.090  0.00  0.00    -0.273 N 
ATOM     10  H   UNL     1      -1.342   2.090  -1.914  0.00  0.00    +0.173 HD
ATOM     11  C   UNL     1       0.364   2.863  -1.113  0.00  0.00    +0.277 A 
ATOM     12  O   UNL     1       0.704   3.443  -2.130  0.00  0.00    -0.266 OA
BRANCH   5  13
ATOM     13  N   UNL     1       1.502   2.319   2.329  0.00  0.00    -0.343 N 
ATOM     14  H   UNL     1       2.349   2.791   2.333  0.00  0.00    +0.144 HD
ATOM     15  H   UNL     1       1.187   1.883   3.135  0.00  0.00    +0.144 HD
ENDBRANCH   5  13
BRANCH   6  16
ATOM     16  C   UNL     1      -0.874   0.838   2.347  0.00  0.00    +0.163 C 
BRANCH  16  17
ATOM     17  C   UNL     1      -1.744   1.746   3.177  0.00  0.00    -0.028 A 
ATOM     18  C   UNL     1      -1.178   2.544   4.153  0.00  0.00    +0.005 A 
ATOM     19  C   UNL     1      -1.975   3.381   4.911  0.00  0.00    +0.000 A 
ATOM     20  C   UNL     1      -3.341   3.412   4.699  0.00  0.00    +0.000 A 
ATOM     21  C   UNL     1      -3.908   2.611   3.726  0.00  0.00    +0.000 A 
ATOM     22  C   UNL     1      -3.110   1.778   2.965  0.00  0.00    +0.005 A 
ENDBRANCH  16  17
ENDBRANCH   6  16
ENDBRANCH   1   4
BRANCH   1  23
ATOM     23  C   UNL     1       3.646   2.998   0.198  0.00  0.00    +0.114 C 
BRANCH  23  24
ATOM     24  C   UNL     1       4.247   2.731  -1.183  0.00  0.00    +0.019 C 
BRANCH  24  26
ATOM     25  C   UNL     1       6.193   1.750  -2.406  0.00  0.00    +0.004 C 
ATOM     26  C   UNL     1       5.591   2.017  -1.024  0.00  0.00    -0.002 C 
ENDBRANCH  24  26
ENDBRANCH  23  24
ENDBRANCH   1  23
BRANCH   2  27
ATOM     27  C   UNL     1       3.602   5.806  -0.205  0.00  0.00    +0.172 C 
BRANCH  27  28
ATOM     28  S   UNL     1       3.220   7.567  -0.380  0.00  0.00    -0.097 S 
BRANCH  28  29
ATOM     29  C   UNL     1       4.851   8.225  -0.486  0.00  0.00    +0.098 A 
ATOM     30  C   UNL     1       5.023   9.609  -0.635  0.00  0.00    +0.038 A 
ATOM     31  C   UNL     1       6.278  10.132  -0.718  0.00  0.00    -0.039 A 
ATOM     32  C   UNL     1       7.376   9.250  -0.650  0.00  0.00    +0.004 A 
ATOM     33  C   UNL     1       8.695   9.726  -0.729  0.00  0.00    +0.014 A 
ATOM     34  C   UNL     1       9.735   8.852  -0.662  0.00  0.00    +0.046 A 
ATOM     35  C   UNL     1       9.510   7.481  -0.513  0.00  0.00    +0.122 A 
ATOM     36  C   UNL     1       8.229   6.983  -0.432  0.00  0.00    +0.074 A 
ATOM     37  C   UNL     1       7.137   7.862  -0.500  0.00  0.00    +0.076 A 
ATOM     38  N   UNL     1       5.881   7.406  -0.419  0.00  0.00    -0.240 NA
ATOM     39  C   UNL     1       6.487  11.616  -0.878  0.00  0.00    +0.044 C 
BRANCH  35  40
ATOM     40  O   UNL     1      10.567   6.630  -0.449  0.00  0.00    -0.495 OA
ATOM     41  C   UNL     1      11.871   7.207  -0.538  0.00  0.00    +0.277 C 
ENDBRANCH  35  40
ENDBRANCH  28  29
ENDBRANCH  27  28
ENDBRANCH   2  27
TORSDOF 11
