REMARK  Name = ZINC45411988
REMARK  14 active torsions:
REMARK  status: ('A' for Active; 'I' for Inactive)
REMARK    1  A    between atoms: C_1  and  C_2
REMARK    2  A    between atoms: C_3  and  C_33
REMARK    3  A    between atoms: C_4  and  C_32
REMARK    4  A    between atoms: N_5  and  C_7
REMARK    5  A    between atoms: C_10  and  C_13
REMARK    6  A    between atoms: C_13  and  O_15
REMARK    7  A    between atoms: O_15  and  C_16
REMARK    8  A    between atoms: C_16  and  C_18
REMARK    9  A    between atoms: C_16  and  C_19
REMARK   10  A    between atoms: N_21  and  C_22
REMARK   11  A    between atoms: C_33  and  C_34
REMARK   12  A    between atoms: C_34  and  C_35
REMARK   13  A    between atoms: C_35  and  O_37
REMARK   14  A    between atoms: O_37  and  C_38
REMARK                            x       y       z     vdW  Elec       q    Type
REMARK                         _______ _______ _______ _____ _____    ______ ____
ROOT
ATOM      1  C   UNL     1      -0.025  -3.218   1.527  0.00  0.00    +0.066 A 
ATOM      2  C   UNL     1      -0.611  -4.395   1.074  0.00  0.00    +0.028 A 
ATOM      3  C   UNL     1      -0.597  -5.522   1.866  0.00  0.00    +0.017 A 
ATOM      4  C   UNL     1       0.006  -5.481   3.126  0.00  0.00    +0.059 A 
ATOM      5  C   UNL     1       0.593  -4.296   3.578  0.00  0.00    +0.017 A 
ATOM      6  C   UNL     1       0.581  -3.175   2.778  0.00  0.00    +0.028 A 
ENDROOT
BRANCH   1  11
ATOM      7  C   UNL     1       1.466   0.910  -0.776  0.00  0.00    +0.068 C 
ATOM      8  C   UNL     1       0.631  -0.248  -0.295  0.00  0.00    +0.064 A 
ATOM      9  C   UNL     1      -0.701  -0.499  -0.645  0.00  0.00    -0.003 A 
ATOM     10  C   UNL     1      -1.094  -1.627  -0.011  0.00  0.00    +0.045 A 
ATOM     11  N   UNL     1      -0.041  -2.076   0.720  0.00  0.00    -0.236 N 
ATOM     12  N   UNL     1       1.028  -1.194   0.517  0.00  0.00    -0.171 NA
ATOM     13  C   UNL     1      -2.455  -2.268  -0.097  0.00  0.00    +0.066 C 
BRANCH   9  14
ATOM     14  C   UNL     1      -1.548   0.341  -1.567  0.00  0.00    +0.050 C 
BRANCH  14  15
ATOM     15  C   UNL     1      -1.391  -0.163  -3.003  0.00  0.00    +0.125 C 
BRANCH  15  16
ATOM     16  C   UNL     1      -2.237   0.676  -3.925  0.00  0.00    +0.307 C 
ATOM     17  O   UNL     1      -2.898   1.584  -3.479  0.00  0.00    -0.251 OA
BRANCH  16  18
ATOM     18  O   UNL     1      -2.257   0.415  -5.242  0.00  0.00    -0.468 OA
ATOM     19  C   UNL     1      -3.082   1.251  -6.056  0.00  0.00    +0.280 C 
ENDBRANCH  16  18
ENDBRANCH  15  16
ENDBRANCH  14  15
ENDBRANCH   9  14
ENDBRANCH   1  11
BRANCH   4  20
ATOM     20  C   UNL     1       0.021  -6.685   3.978  0.00  0.00    +0.340 C 
ATOM     21  O   UNL     1      -0.490  -7.714   3.584  0.00  0.00    -0.245 OA
BRANCH  20  22
ATOM     22  O   UNL     1       0.603  -6.644   5.193  0.00  0.00    -0.449 OA
BRANCH  22  23
ATOM     23  C   UNL     1       0.582  -7.847   5.963  0.00  0.00    +0.259 C 
ATOM     24  C   UNL     1      -0.681  -7.877   6.826  0.00  0.00    +0.062 C 
BRANCH  23  25
ATOM     25  C   UNL     1       1.798  -7.896   6.852  0.00  0.00    +0.258 C 
ATOM     26  O   UNL     1       2.557  -6.951   6.894  0.00  0.00    -0.271 OA
ATOM     27  N   UNL     1       2.043  -8.991   7.598  0.00  0.00    -0.282 N 
ATOM     28  H   UNL     1       1.482  -9.776   7.507  0.00  0.00    +0.155 HD
BRANCH  27  29
ATOM     29  C   UNL     1       3.106  -8.995   8.504  0.00  0.00    +0.041 A 
ATOM     30  C   UNL     1       3.589  -7.809   9.015  0.00  0.00    +0.024 A 
ATOM     31  C   UNL     1       4.648  -7.802   9.918  0.00  0.00    +0.002 A 
ATOM     32  C   UNL     1       5.235  -8.962  10.321  0.00  0.00    +0.008 A 
ATOM     33  C   UNL     1       4.773 -10.192   9.824  0.00  0.00    -0.016 A 
ATOM     34  C   UNL     1       3.692 -10.213   8.908  0.00  0.00    +0.003 A 
ATOM     35  C   UNL     1       3.229 -11.443   8.416  0.00  0.00    +0.010 A 
ATOM     36  C   UNL     1       3.819 -12.599   8.828  0.00  0.00    +0.001 A 
ATOM     37  C   UNL     1       4.878 -12.580   9.733  0.00  0.00    +0.001 A 
ATOM     38  C   UNL     1       5.361 -11.406  10.223  0.00  0.00    +0.008 A 
ENDBRANCH  27  29
ENDBRANCH  23  25
ENDBRANCH  22  23
ENDBRANCH  20  22
ENDBRANCH   4  20
TORSDOF 10
