REMARK  Name = ZINC46657491
REMARK  9 active torsions:
REMARK  status: ('A' for Active; 'I' for Inactive)
REMARK    1  A    between atoms: C_1  and  C_2
REMARK    2  A    between atoms: C_2  and  O_3
REMARK    3  A    between atoms: O_3  and  C_4
REMARK    4  A    between atoms: C_11  and  C_18
REMARK    5  A    between atoms: C_13  and  O_14
REMARK    6  A    between atoms: C_18  and  O_19
REMARK    7  A    between atoms: O_19  and  C_20
REMARK    8  A    between atoms: C_20  and  C_22
REMARK    9  A    between atoms: C_26  and  C_27
REMARK                            x       y       z     vdW  Elec       q    Type
REMARK                         _______ _______ _______ _____ _____    ______ ____
ROOT
ATOM      1  C   UNL     1      -0.003  -1.906   1.712  0.00  0.00    +0.405 C 
ATOM      2  O   UNL     1      -0.677  -2.704   1.082  0.00  0.00    -0.226 OA
ATOM      3  N   UNL     1       0.834  -2.337   2.646  0.00  0.00    -0.251 N 
ATOM      4  C   UNL     1       1.040  -3.671   2.811  0.00  0.00    +0.040 A 
ATOM      5  C   UNL     1       1.625  -4.147   3.999  0.00  0.00    +0.024 A 
ATOM      6  C   UNL     1       1.836  -5.477   4.175  0.00  0.00    +0.014 A 
ATOM      7  C   UNL     1       1.469  -6.386   3.166  0.00  0.00    +0.024 A 
ATOM      8  C   UNL     1       1.680  -7.771   3.330  0.00  0.00    +0.007 A 
ATOM      9  C   UNL     1       1.301  -8.621   2.310  0.00  0.00    +0.095 A 
ATOM     10  C   UNL     1       0.728  -8.106   1.157  0.00  0.00    +0.285 A 
ATOM     11  O   UNL     1       0.530  -6.792   1.005  0.00  0.00    -0.425 OA
ATOM     12  C   UNL     1       0.881  -5.917   1.970  0.00  0.00    +0.141 A 
ATOM     13  C   UNL     1       0.665  -4.561   1.803  0.00  0.00    +0.070 A 
ATOM     14  H   UNL     1       1.298  -1.701   3.212  0.00  0.00    +0.158 HD
ENDROOT
BRANCH  10  15
ATOM     15  O   UNL     1       0.363  -8.947   0.170  0.00  0.00    -0.480 OA
ATOM     16  H   UNL     1      -0.027  -8.506  -0.597  0.00  0.00    +0.295 HD
ENDBRANCH  10  15
BRANCH   1  17
ATOM     17  O   UNL     1      -0.109  -0.583   1.458  0.00  0.00    -0.450 OA
BRANCH  17  19
ATOM     18  C   UNL     1      -1.011   1.334   0.295  0.00  0.00    +0.048 C 
ATOM     19  C   UNL     1      -1.029  -0.189   0.439  0.00  0.00    +0.230 C 
ENDBRANCH  17  19
ENDBRANCH   1  17
BRANCH   8  20
ATOM     20  C   UNL     1       2.305  -8.310   4.591  0.00  0.00    +0.269 C 
BRANCH  20  21
ATOM     21  O   UNL     1       3.473  -9.062   4.259  0.00  0.00    -0.456 OA
BRANCH  21  22
ATOM     22  C   UNL     1       4.154  -9.617   5.281  0.00  0.00    +0.343 C 
ATOM     23  O   UNL     1       3.767  -9.466   6.423  0.00  0.00    -0.245 OA
BRANCH  22  24
ATOM     24  C   UNL     1       5.369 -10.406   5.014  0.00  0.00    +0.100 A 
ATOM     25  C   UNL     1       5.942 -10.663   3.747  0.00  0.00    +0.150 A 
ATOM     26  N   UNL     1       7.006 -11.396   3.925  0.00  0.00    -0.172 NA
ATOM     27  N   UNL     1       7.164 -11.642   5.294  0.00  0.00    -0.218 N 
ATOM     28  C   UNL     1       6.165 -11.030   5.955  0.00  0.00    +0.058 A 
ATOM     29  C   UNL     1       5.951 -11.029   7.447  0.00  0.00    +0.066 C 
ATOM     30  C   UNL     1       8.191 -12.392   5.876  0.00  0.00    +0.154 A 
ATOM     31  C   UNL     1       8.843 -13.364   5.127  0.00  0.00    +0.048 A 
ATOM     32  C   UNL     1       9.858 -14.098   5.715  0.00  0.00    +0.005 A 
ATOM     33  C   UNL     1      10.186 -13.834   7.038  0.00  0.00    +0.020 A 
ATOM     34  C   UNL     1       9.495 -12.852   7.722  0.00  0.00    +0.113 A 
ATOM     35  N   UNL     1       8.536 -12.165   7.133  0.00  0.00    -0.236 NA
ENDBRANCH  22  24
ENDBRANCH  21  22
ENDBRANCH  20  21
ENDBRANCH   8  20
TORSDOF 7
