REMARK  Name = ZINC35759221
REMARK  10 active torsions:
REMARK  status: ('A' for Active; 'I' for Inactive)
REMARK    1  A    between atoms: C_1  and  C_2
REMARK    2  A    between atoms: C_2  and  C_3
REMARK    3  A    between atoms: C_3  and  C_4
REMARK    4  A    between atoms: C_4  and  N_5
REMARK    5  A    between atoms: C_6  and  C_8
REMARK    6  A    between atoms: C_8  and  N_9
REMARK    7  A    between atoms: N_11  and  C_30
REMARK    8  A    between atoms: N_17  and  S_20
REMARK    9  A    between atoms: S_20  and  C_23
REMARK   10  A    between atoms: C_26  and  C_29
REMARK                            x       y       z     vdW  Elec       q    Type
REMARK                         _______ _______ _______ _____ _____    ______ ____
ROOT
ATOM      1  N   UNL     1       2.336  -5.776  -4.036  0.00  0.00    -0.275 N 
ATOM      2  C   UNL     1       3.422  -6.604  -3.512  0.00  0.00    +0.217 C 
ATOM      3  N   UNL     1       2.993  -8.007  -3.568  0.00  0.00    -0.300 N 
ATOM      4  C   UNL     1       1.638  -7.990  -4.134  0.00  0.00    +0.115 C 
ATOM      5  C   UNL     1       1.296  -6.547  -4.396  0.00  0.00    +0.241 C 
ATOM      6  O   UNL     1       0.250  -6.144  -4.860  0.00  0.00    -0.273 OA
ATOM      7  C   UNL     1       0.648  -8.585  -3.132  0.00  0.00    +0.052 C 
ATOM      8  C   UNL     1       1.041 -10.034  -2.830  0.00  0.00    +0.112 C 
ATOM      9  N   UNL     1       1.143 -10.771  -4.097  0.00  0.00    -0.176 NA
ATOM     10  C   UNL     1       2.010 -10.238  -5.156  0.00  0.00    +0.112 C 
ATOM     11  C   UNL     1       1.609  -8.786  -5.438  0.00  0.00    +0.052 C 
ENDROOT
BRANCH   3  12
ATOM     12  C   UNL     1       3.723  -9.128  -3.166  0.00  0.00    +0.032 A 
ATOM     13  C   UNL     1       4.966  -8.970  -2.567  0.00  0.00    +0.023 A 
ATOM     14  C   UNL     1       5.686 -10.080  -2.171  0.00  0.00    +0.002 A 
ATOM     15  C   UNL     1       5.169 -11.348  -2.369  0.00  0.00    +0.000 A 
ATOM     16  C   UNL     1       3.931 -11.508  -2.964  0.00  0.00    +0.002 A 
ATOM     17  C   UNL     1       3.204 -10.402  -3.358  0.00  0.00    +0.023 A 
ENDBRANCH   3  12
BRANCH   9  18
ATOM     18  S   UNL     1       0.297 -12.175  -4.327  0.00  0.00    +0.061 S 
ATOM     19  O   UNL     1       0.990 -12.908  -5.327  0.00  0.00    -0.153 OA
ATOM     20  O   UNL     1       0.036 -12.708  -3.035  0.00  0.00    -0.153 OA
BRANCH  18  21
ATOM     21  C   UNL     1      -1.265 -11.736  -5.015  0.00  0.00    +0.105 A 
ATOM     22  C   UNL     1      -2.334 -11.462  -4.184  0.00  0.00    +0.029 A 
ATOM     23  C   UNL     1      -3.559 -11.118  -4.724  0.00  0.00    +0.005 A 
ATOM     24  C   UNL     1      -3.714 -11.047  -6.096  0.00  0.00    -0.050 A 
ATOM     25  C   UNL     1      -2.644 -11.320  -6.927  0.00  0.00    +0.005 A 
ATOM     26  C   UNL     1      -1.418 -11.660  -6.387  0.00  0.00    +0.029 A 
ATOM     27  C   UNL     1      -5.050 -10.672  -6.684  0.00  0.00    +0.044 C 
ENDBRANCH  18  21
ENDBRANCH   9  18
BRANCH   1  28
ATOM     28  C   UNL     1       2.375  -4.316  -4.148  0.00  0.00    +0.205 C 
BRANCH  28  30
ATOM     29  N   UNL     1       1.792  -2.361  -2.750  0.00  0.00    -0.314 N 
ATOM     30  C   UNL     1       1.850  -3.701  -2.876  0.00  0.00    +0.230 C 
ATOM     31  O   UNL     1       1.480  -4.412  -1.966  0.00  0.00    -0.274 OA
ATOM     32  H   UNL     1       2.088  -1.792  -3.478  0.00  0.00    +0.149 HD
BRANCH  29  33
ATOM     33  C   UNL     1       1.282  -1.763  -1.514  0.00  0.00    +0.104 C 
BRANCH  33  34
ATOM     34  C   UNL     1       1.323  -0.237  -1.630  0.00  0.00    +0.018 C 
BRANCH  34  36
ATOM     35  C   UNL     1       0.831   1.912  -0.456  0.00  0.00    +0.004 C 
ATOM     36  C   UNL     1       0.790   0.387  -0.339  0.00  0.00    -0.002 C 
ENDBRANCH  34  36
ENDBRANCH  33  34
ENDBRANCH  29  33
ENDBRANCH  28  30
ENDBRANCH   1  28
TORSDOF 8
