REMARK  Name = ZINC38597734
REMARK  7 active torsions:
REMARK  status: ('A' for Active; 'I' for Inactive)
REMARK    1  A    between atoms: C_3  and  C_6
REMARK    2  A    between atoms: C_6  and  C_8
REMARK    3  A    between atoms: C_6  and  N_24
REMARK    4  A    between atoms: C_8  and  N_9
REMARK    5  A    between atoms: C_10  and  C_12
REMARK    6  A    between atoms: C_12  and  C_17
REMARK    7  A    between atoms: N_27  and  C_30
REMARK                            x       y       z     vdW  Elec       q    Type
REMARK                         _______ _______ _______ _____ _____    ______ ____
ROOT
ATOM      1  C   UNL     1       5.990   3.351   0.117  0.00  0.00    +0.017 C 
ENDROOT
BRANCH   1   2
ATOM      2  N   UNL     1       5.968   2.769   1.466  0.00  0.00    +0.389 N 
ATOM      3  C   UNL     1       6.310   3.804   2.449  0.00  0.00    -0.059 C 
ATOM      4  C   UNL     1       6.176   3.228   3.863  0.00  0.00    +0.086 C 
ATOM      5  N   UNL     1       6.997   2.011   3.951  0.00  0.00    -0.333 N 
ATOM      6  C   UNL     1       6.835   0.988   2.907  0.00  0.00    +0.086 C 
ATOM      7  C   UNL     1       6.938   1.669   1.538  0.00  0.00    -0.059 C 
ATOM      8  H   UNL     1       5.044   2.414   1.662  0.00  0.00    -0.081 HD
BRANCH   5   9
ATOM      9  C   UNL     1       7.907   1.832   4.997  0.00  0.00    +0.030 A 
ATOM     10  C   UNL     1       9.272   1.832   4.740  0.00  0.00    +0.026 A 
ATOM     11  C   UNL     1      10.169   1.655   5.776  0.00  0.00    +0.040 A 
ATOM     12  C   UNL     1       9.708   1.479   7.069  0.00  0.00    +0.124 A 
ATOM     13  C   UNL     1       8.348   1.478   7.328  0.00  0.00    +0.040 A 
ATOM     14  C   UNL     1       7.448   1.660   6.297  0.00  0.00    +0.026 A 
ATOM     15  F   UNL     1      10.587   1.306   8.081  0.00  0.00    -0.205 F 
ENDBRANCH   5   9
ENDBRANCH   1   2
BRANCH   1  18
ATOM     16  C   UNL     1       4.292   6.591  -0.328  0.00  0.00    +0.041 A 
ATOM     17  C   UNL     1       5.382   5.722  -0.561  0.00  0.00    +0.043 A 
ATOM     18  C   UNL     1       5.109   4.573   0.083  0.00  0.00    +0.093 A 
ATOM     19  O   UNL     1       3.917   4.700   0.690  0.00  0.00    -0.469 OA
ATOM     20  C   UNL     1       3.417   5.922   0.444  0.00  0.00    +0.195 A 
ENDBRANCH   1  18
BRANCH   1  21
ATOM     21  C   UNL     1       5.474   2.322  -0.891  0.00  0.00    +0.096 C 
BRANCH  21  22
ATOM     22  N   UNL     1       6.476   1.268  -1.070  0.00  0.00    -0.316 N 
ATOM     23  C   UNL     1       6.180   0.173  -1.798  0.00  0.00    +0.224 C 
ATOM     24  O   UNL     1       5.056   0.015  -2.225  0.00  0.00    -0.275 OA
ATOM     25  H   UNL     1       7.353   1.359  -0.664  0.00  0.00    +0.149 HD
BRANCH  23  26
ATOM     26  C   UNL     1       7.246  -0.854  -2.081  0.00  0.00    +0.072 C 
ATOM     27  C   UNL     1       8.418  -0.202  -2.836  0.00  0.00    +0.021 C 
ATOM     28  C   UNL     1       8.530  -0.931  -4.191  0.00  0.00    +0.001 C 
ATOM     29  C   UNL     1       7.114  -1.514  -4.426  0.00  0.00    +0.001 C 
ATOM     30  C   UNL     1       6.686  -1.955  -3.004  0.00  0.00    +0.021 C 
BRANCH  26  31
ATOM     31  C   UNL     1       7.734  -1.460  -0.791  0.00  0.00    -0.032 A 
ATOM     32  C   UNL     1       7.419  -2.769  -0.480  0.00  0.00    +0.006 A 
ATOM     33  C   UNL     1       7.867  -3.326   0.703  0.00  0.00    +0.020 A 
ATOM     34  C   UNL     1       8.630  -2.572   1.577  0.00  0.00    +0.041 A 
ATOM     35  C   UNL     1       8.946  -1.262   1.265  0.00  0.00    +0.020 A 
ATOM     36  C   UNL     1       8.502  -0.708   0.079  0.00  0.00    +0.006 A 
ATOM     37 CL   UNL     1       9.192  -3.270   3.063  0.00  0.00    -0.084 Cl
ENDBRANCH  26  31
ENDBRANCH  23  26
ENDBRANCH  21  22
ENDBRANCH   1  21
TORSDOF 7
