REMARK  Name = ZINC64480243
REMARK  12 active torsions:
REMARK  status: ('A' for Active; 'I' for Inactive)
REMARK    1  A    between atoms: C_1  and  C_2
REMARK    2  A    between atoms: C_7  and  O_14
REMARK    3  A    between atoms: C_9  and  O_10
REMARK    4  A    between atoms: O_10  and  C_11
REMARK    5  A    between atoms: C_11  and  C_13
REMARK    6  A    between atoms: O_14  and  C_15
REMARK    7  A    between atoms: C_15  and  C_17
REMARK    8  A    between atoms: C_21  and  C_23
REMARK    9  A    between atoms: C_23  and  C_24
REMARK   10  A    between atoms: N_26  and  C_27
REMARK   11  A    between atoms: C_27  and  C_28
REMARK   12  A    between atoms: C_28  and  C_29
REMARK                            x       y       z     vdW  Elec       q    Type
REMARK                         _______ _______ _______ _____ _____    ______ ____
ROOT
ATOM      1  C   UNL     1      -0.240   1.921  -0.495  0.00  0.00    +0.013 C 
ATOM      2  C   UNL     1       0.076   0.476  -0.104  0.00  0.00    +0.037 C 
ATOM      3  C   UNL     1       0.765  -0.216  -1.253  0.00  0.00    +0.041 A 
ATOM      4  C   UNL     1       2.138  -0.383  -1.287  0.00  0.00    +0.142 A 
ATOM      5  C   UNL     1       2.732  -1.017  -2.373  0.00  0.00    +0.093 A 
ATOM      6  C   UNL     1       1.954  -1.488  -3.418  0.00  0.00    +0.139 A 
ATOM      7  C   UNL     1       0.577  -1.326  -3.382  0.00  0.00    +0.093 A 
ATOM      8  C   UNL     1      -0.015  -0.692  -2.302  0.00  0.00    +0.142 A 
ATOM      9  O   UNL     1       2.939   0.047  -0.275  0.00  0.00    -0.425 OA
ATOM     10  C   UNL     1       2.383   0.835   0.667  0.00  0.00    +0.317 C 
ATOM     11  O   UNL     1       2.971   1.788   1.123  0.00  0.00    -0.250 OA
ATOM     12  C   UNL     1       0.988   0.470   1.127  0.00  0.00    +0.114 C 
ENDROOT
BRANCH   8  13
ATOM     13  O   UNL     1      -1.364  -0.533  -2.268  0.00  0.00    -0.425 OA
BRANCH  13  14
ATOM     14  C   UNL     1      -2.090  -1.449  -1.608  0.00  0.00    +0.309 C 
ATOM     15  O   UNL     1      -1.538  -2.349  -1.021  0.00  0.00    -0.251 OA
ATOM     16  C   UNL     1      -3.594  -1.356  -1.601  0.00  0.00    +0.136 C 
ENDBRANCH  13  14
ENDBRANCH   8  13
BRANCH   6  17
ATOM     17  O   UNL     1       2.539  -2.107  -4.478  0.00  0.00    -0.426 OA
BRANCH  17  18
ATOM     18  C   UNL     1       2.958  -3.373  -4.316  0.00  0.00    +0.309 C 
ATOM     19  O   UNL     1       2.874  -3.903  -3.233  0.00  0.00    -0.251 OA
ATOM     20  C   UNL     1       3.533  -4.131  -5.484  0.00  0.00    +0.136 C 
ENDBRANCH  17  18
ENDBRANCH   6  17
BRANCH  12  21
ATOM     21  C   UNL     1       0.998  -0.924   1.759  0.00  0.00    +0.111 C 
BRANCH  21  22
ATOM     22  C   UNL     1       1.797  -0.891   3.036  0.00  0.00    +0.214 C 
ATOM     23  O   UNL     1       2.309   0.145   3.404  0.00  0.00    -0.276 OA
ATOM     24  N   UNL     1       1.944  -2.013   3.769  0.00  0.00    -0.315 N 
ATOM     25  H   UNL     1       1.534  -2.841   3.474  0.00  0.00    +0.149 HD
BRANCH  24  26
ATOM     26  C   UNL     1       2.721  -1.980   5.010  0.00  0.00    +0.108 C 
BRANCH  26  27
ATOM     27  C   UNL     1       2.731  -3.374   5.642  0.00  0.00    +0.052 C 
BRANCH  27  28
ATOM     28  C   UNL     1       3.530  -3.341   6.919  0.00  0.00    -0.040 C 
ATOM     29  C   UNL     1       3.053  -3.176   8.173  0.00  0.00    +0.000 A 
ATOM     30  C   UNL     1       1.697  -2.985   8.704  0.00  0.00    +0.030 A 
ATOM     31  C   UNL     1       1.529  -2.844  10.039  0.00  0.00    +0.042 A 
ATOM     32  C   UNL     1       2.615  -2.876  10.926  0.00  0.00    +0.022 A 
ATOM     33  C   UNL     1       3.889  -3.048  10.514  0.00  0.00    +0.027 A 
ATOM     34  C   UNL     1       4.181  -3.206   9.131  0.00  0.00    +0.043 A 
ATOM     35  N   UNL     1       5.313  -3.383   8.493  0.00  0.00    -0.380 N 
ATOM     36  C   UNL     1       5.029  -3.491   7.058  0.00  0.00    +0.144 C 
ATOM     37 CL   UNL     1      -0.072  -2.618  10.671  0.00  0.00    -0.084 Cl
ATOM     38  H   UNL     1       6.191  -3.437   8.902  0.00  0.00    +0.160 HD
ENDBRANCH  27  28
ENDBRANCH  26  27
ENDBRANCH  24  26
ENDBRANCH  21  22
ENDBRANCH  12  21
TORSDOF 9
