REMARK  Name = ZINC63403670
REMARK  12 active torsions:
REMARK  status: ('A' for Active; 'I' for Inactive)
REMARK    1  A    between atoms: C_1  and  C_2
REMARK    2  A    between atoms: C_5  and  C_8
REMARK    3  A    between atoms: C_8  and  C_10
REMARK    4  A    between atoms: C_8  and  N_34
REMARK    5  A    between atoms: C_10  and  C_11
REMARK    6  A    between atoms: N_13  and  C_14
REMARK    7  A    between atoms: C_14  and  C_15
REMARK    8  A    between atoms: C_15  and  C_17
REMARK    9  A    between atoms: C_15  and  C_25
REMARK   10  A    between atoms: C_20  and  O_23
REMARK   11  A    between atoms: O_23  and  C_24
REMARK   12  A    between atoms: C_35  and  C_37
REMARK                            x       y       z     vdW  Elec       q    Type
REMARK                         _______ _______ _______ _____ _____    ______ ____
ROOT
ATOM      1  C   UNL     1       3.062  -8.149   0.232  0.00  0.00    +0.116 C 
ENDROOT
BRANCH   1   4
ATOM      2  C   UNL     1       1.690  -6.138   0.127  0.00  0.00    +0.215 C 
ATOM      3  O   UNL     1       0.719  -6.845  -0.042  0.00  0.00    -0.276 OA
ATOM      4  N   UNL     1       2.909  -6.692   0.275  0.00  0.00    -0.314 N 
ATOM      5  H   UNL     1       3.686  -6.127   0.409  0.00  0.00    +0.149 HD
BRANCH   2   6
ATOM      6  C   UNL     1       1.533  -4.640   0.171  0.00  0.00    +0.122 C 
BRANCH   6   7
ATOM      7  C   UNL     1       0.059  -4.275  -0.021  0.00  0.00    +0.112 C 
BRANCH   7  12
ATOM      8  C   UNL     1      -0.484   1.470  -0.325  0.00  0.00    +0.044 C 
ATOM      9  C   UNL     1      -0.342  -0.029  -0.245  0.00  0.00    -0.050 A 
ATOM     10  C   UNL     1      -0.387  -0.789  -1.399  0.00  0.00    +0.004 A 
ATOM     11  C   UNL     1      -0.257  -2.163  -1.327  0.00  0.00    +0.006 A 
ATOM     12  C   UNL     1      -0.081  -2.777  -0.101  0.00  0.00    -0.027 A 
ATOM     13  C   UNL     1      -0.035  -2.017   1.053  0.00  0.00    +0.006 A 
ATOM     14  C   UNL     1      -0.161  -0.642   0.980  0.00  0.00    +0.004 A 
ENDBRANCH   7  12
BRANCH   7  15
ATOM     15  N   UNL     1      -0.720  -4.780   1.112  0.00  0.00    -0.308 N 
ATOM     16  C   UNL     1      -2.038  -5.021   0.969  0.00  0.00    +0.210 C 
ATOM     17  O   UNL     1      -2.561  -4.907  -0.120  0.00  0.00    -0.276 OA
ATOM     18  C   UNL     1      -2.863  -5.432   2.161  0.00  0.00    +0.109 C 
ATOM     19  H   UNL     1      -0.287  -4.941   1.965  0.00  0.00    +0.149 HD
ENDBRANCH   7  15
ENDBRANCH   6   7
ENDBRANCH   2   6
ENDBRANCH   1   4
BRANCH   1  20
ATOM     20  C   UNL     1       4.535  -8.513   0.424  0.00  0.00    +0.064 C 
BRANCH  20  21
ATOM     21  C   UNL     1       5.337  -7.994  -0.741  0.00  0.00    -0.033 C 
ATOM     22  C   UNL     1       6.364  -7.114  -0.695  0.00  0.00    -0.000 A 
ATOM     23  C   UNL     1       7.015  -6.404   0.412  0.00  0.00    +0.010 A 
ATOM     24  C   UNL     1       8.043  -5.568   0.141  0.00  0.00    +0.001 A 
ATOM     25  C   UNL     1       8.500  -5.362  -1.168  0.00  0.00    +0.002 A 
ATOM     26  C   UNL     1       7.952  -5.979  -2.237  0.00  0.00    +0.026 A 
ATOM     27  C   UNL     1       6.865  -6.880  -2.068  0.00  0.00    +0.043 A 
ATOM     28  N   UNL     1       6.176  -7.588  -2.929  0.00  0.00    -0.380 N 
ATOM     29  C   UNL     1       5.162  -8.356  -2.199  0.00  0.00    +0.145 C 
ATOM     30  H   UNL     1       6.316  -7.604  -3.889  0.00  0.00    +0.160 HD
ENDBRANCH  20  21
BRANCH  20  31
ATOM     31  C   UNL     1       4.676 -10.011   0.503  0.00  0.00    -0.038 A 
ATOM     32  C   UNL     1       4.277 -10.799  -0.561  0.00  0.00    +0.008 A 
ATOM     33  C   UNL     1       4.405 -12.173  -0.490  0.00  0.00    +0.046 A 
ATOM     34  C   UNL     1       4.934 -12.762   0.649  0.00  0.00    +0.120 A 
ATOM     35  C   UNL     1       5.334 -11.969   1.715  0.00  0.00    +0.046 A 
ATOM     36  C   UNL     1       5.209 -10.595   1.638  0.00  0.00    +0.008 A 
BRANCH  34  37
ATOM     37  O   UNL     1       5.061 -14.113   0.720  0.00  0.00    -0.495 OA
ATOM     38  C   UNL     1       5.614 -14.650   1.924  0.00  0.00    +0.277 C 
ENDBRANCH  34  37
ENDBRANCH  20  31
ENDBRANCH   1  20
TORSDOF 9
