REMARK  Name = ZINC14199475
REMARK  10 active torsions:
REMARK  status: ('A' for Active; 'I' for Inactive)
REMARK    1  A    between atoms: C_1  and  C_2
REMARK    2  A    between atoms: N_5  and  S_11
REMARK    3  A    between atoms: C_7  and  C_10
REMARK    4  A    between atoms: S_11  and  C_14
REMARK    5  A    between atoms: C_17  and  C_20
REMARK    6  A    between atoms: N_22  and  C_23
REMARK    7  A    between atoms: C_28  and  C_29
REMARK    8  A    between atoms: C_29  and  N_30
REMARK    9  A    between atoms: N_30  and  C_31
REMARK   10  A    between atoms: N_30  and  C_32
REMARK                            x       y       z     vdW  Elec       q    Type
REMARK                         _______ _______ _______ _____ _____    ______ ____
ROOT
ATOM      1  C   UNL     1       1.438  -4.374  -5.379  0.00  0.00    +0.248 C 
ATOM      2  O   UNL     1       1.450  -3.680  -6.377  0.00  0.00    -0.270 OA
ATOM      3  N   UNL     1       2.237  -5.456  -5.300  0.00  0.00    -0.281 N 
ATOM      4  H   UNL     1       2.276  -5.972  -4.479  0.00  0.00    +0.155 HD
ENDROOT
BRANCH   1   8
ATOM      5  C   UNL     1      -1.126  -3.386  -2.140  0.00  0.00    +0.106 A 
ATOM      6  C   UNL     1      -1.114  -2.595  -3.275  0.00  0.00    +0.029 A 
ATOM      7  C   UNL     1      -0.283  -2.910  -4.330  0.00  0.00    +0.015 A 
ATOM      8  C   UNL     1       0.546  -4.030  -4.252  0.00  0.00    +0.037 A 
ATOM      9  C   UNL     1       0.529  -4.824  -3.104  0.00  0.00    +0.015 A 
ATOM     10  C   UNL     1      -0.302  -4.495  -2.053  0.00  0.00    +0.029 A 
BRANCH   5  11
ATOM     11  S   UNL     1      -2.189  -2.977  -0.796  0.00  0.00    +0.061 S 
ATOM     12  O   UNL     1      -2.409  -4.179  -0.071  0.00  0.00    -0.153 OA
ATOM     13  O   UNL     1      -3.255  -2.210  -1.341  0.00  0.00    -0.153 OA
BRANCH  11  17
ATOM     14  C   UNL     1       0.039   1.549   0.004  0.00  0.00    +0.039 C 
ATOM     15  C   UNL     1       0.054   0.019   0.000  0.00  0.00    +0.131 C 
ATOM     16  C   UNL     1      -1.386  -0.507   0.023  0.00  0.00    +0.140 C 
ATOM     17  N   UNL     1      -1.344  -1.966   0.207  0.00  0.00    -0.172 NA
ATOM     18  C   UNL     1      -0.529  -2.502   1.310  0.00  0.00    +0.140 C 
ATOM     19  C   UNL     1       0.869  -1.878   1.224  0.00  0.00    +0.131 C 
ATOM     20  O   UNL     1       0.748  -0.456   1.157  0.00  0.00    -0.371 OA
ATOM     21  C   UNL     1       1.677  -2.265   2.464  0.00  0.00    +0.039 C 
ENDBRANCH  11  17
ENDBRANCH   5  11
ENDBRANCH   1   8
BRANCH   3  22
ATOM     22  C   UNL     1       3.011  -5.836  -6.402  0.00  0.00    +0.035 A 
ATOM     23  C   UNL     1       3.548  -4.869  -7.241  0.00  0.00    +0.023 A 
ATOM     24  C   UNL     1       4.311  -5.247  -8.328  0.00  0.00    +0.002 A 
ATOM     25  C   UNL     1       4.541  -6.587  -8.581  0.00  0.00    +0.000 A 
ATOM     26  C   UNL     1       4.008  -7.552  -7.747  0.00  0.00    +0.003 A 
ATOM     27  C   UNL     1       3.249  -7.180  -6.655  0.00  0.00    -0.043 A 
BRANCH  27  28
ATOM     28  C   UNL     1       2.673  -8.233  -5.742  0.00  0.00    -0.041 C 
BRANCH  28  29
ATOM     29  N   UNL     1       1.262  -8.457  -6.082  0.00  0.00    +0.382 N 
ATOM     30  C   UNL     1       1.167  -9.021  -7.435  0.00  0.00    -0.095 C 
ATOM     31  H   UNL     1       0.764  -7.579  -6.048  0.00  0.00    -0.081 HD
BRANCH  29  32
ATOM     32  C   UNL     1       0.668  -9.393  -5.119  0.00  0.00    -0.069 C 
ATOM     33  C   UNL     1      -0.802  -9.626  -5.473  0.00  0.00    -0.015 C 
ATOM     34  C   UNL     1      -1.420 -10.602  -4.469  0.00  0.00    -0.002 C 
ATOM     35  C   UNL     1      -1.321 -10.014  -3.060  0.00  0.00    -0.000 C 
ATOM     36  C   UNL     1       0.149  -9.781  -2.706  0.00  0.00    -0.002 C 
ATOM     37  C   UNL     1       0.767  -8.805  -3.709  0.00  0.00    -0.015 C 
ENDBRANCH  29  32
ENDBRANCH  28  29
ENDBRANCH  27  28
ENDBRANCH   3  22
TORSDOF 7
