REMARK  Name = ZINC13423777
REMARK  11 active torsions:
REMARK  status: ('A' for Active; 'I' for Inactive)
REMARK    1  A    between atoms: C_1  and  C_2
REMARK    2  A    between atoms: C_2  and  C_3
REMARK    3  A    between atoms: C_2  and  C_4
REMARK    4  A    between atoms: C_4  and  C_5
REMARK    5  A    between atoms: C_5  and  C_6
REMARK    6  A    between atoms: C_6  and  C_7
REMARK    7  A    between atoms: C_7  and  C_9
REMARK    8  A    between atoms: C_7  and  C_10
REMARK    9  A    between atoms: C_16  and  C_34
REMARK   10  A    between atoms: C_26  and  O_33
REMARK   11  A    between atoms: C_27  and  C_32
REMARK                            x       y       z     vdW  Elec       q    Type
REMARK                         _______ _______ _______ _____ _____    ______ ____
ROOT
ATOM      1  C   UNL     1      -0.403  -2.237   4.146  0.00  0.00    -0.002 C 
ATOM      2  C   UNL     1      -1.243  -1.008   4.546  0.00  0.00    +0.004 C 
ATOM      3  C   UNL     1      -0.255   0.168   4.697  0.00  0.00    +0.004 C 
ATOM      4  C   UNL     1       0.951  -0.240   3.800  0.00  0.00    -0.001 C 
ATOM      5  C   UNL     1       1.051  -1.750   4.081  0.00  0.00    -0.026 C 
ATOM      6  C   UNL     1       1.870  -2.495   3.052  0.00  0.00    +0.007 C 
ATOM      7  C   UNL     1       1.375  -2.211   1.634  0.00  0.00    +0.005 C 
ATOM      8  C   UNL     1       1.469  -0.701   1.386  0.00  0.00    +0.002 C 
ATOM      9  C   UNL     1       0.519   0.008   2.351  0.00  0.00    +0.004 C 
ATOM     10  C   UNL     1      -0.907  -0.516   2.156  0.00  0.00    +0.081 C 
ATOM     11  C   UNL     1      -1.281  -0.387   0.694  0.00  0.00    +0.165 C 
ATOM     12  O   UNL     1      -2.307   0.154   0.357  0.00  0.00    -0.294 OA
ATOM     13  C   UNL     1      -0.327  -0.958  -0.329  0.00  0.00    +0.129 C 
ATOM     14  C   UNL     1       1.069  -0.389  -0.053  0.00  0.00    +0.007 C 
ATOM     15  C   UNL     1       2.053  -1.012  -1.041  0.00  0.00    +0.010 C 
ATOM     16  C   UNL     1       1.651  -0.648  -2.460  0.00  0.00    +0.001 C 
ATOM     17  C   UNL     1       0.244  -1.175  -2.744  0.00  0.00    +0.003 C 
ATOM     18  C   UNL     1      -0.749  -0.572  -1.746  0.00  0.00    +0.043 C 
ATOM     19  C   UNL     1       1.045   1.128  -0.253  0.00  0.00    +0.015 C 
ATOM     20  C   UNL     1       1.680  -1.956   5.461  0.00  0.00    +0.012 C 
ENDROOT
BRANCH   1  21
ATOM     21  C   UNL     1      -0.543  -3.339   5.198  0.00  0.00    -0.010 C 
ATOM     22  C   UNL     1       0.226  -4.581   4.743  0.00  0.00    +0.008 C 
BRANCH  21  23
ATOM     23  C   UNL     1      -2.022  -3.691   5.373  0.00  0.00    +0.003 C 
BRANCH  23  24
ATOM     24  C   UNL     1      -2.174  -4.701   6.512  0.00  0.00    +0.001 C 
BRANCH  24  25
ATOM     25  C   UNL     1      -3.653  -5.053   6.687  0.00  0.00    +0.003 C 
BRANCH  25  27
ATOM     26  C   UNL     1      -5.291  -6.321   8.084  0.00  0.00    +0.007 C 
ATOM     27  C   UNL     1      -3.805  -6.064   7.826  0.00  0.00    -0.017 C 
ATOM     28  C   UNL     1      -3.120  -7.376   7.439  0.00  0.00    +0.007 C 
ENDBRANCH  25  27
ENDBRANCH  24  25
ENDBRANCH  23  24
ENDBRANCH  21  23
ENDBRANCH   1  21
BRANCH  13  29
ATOM     29  O   UNL     1      -0.298  -2.380  -0.198  0.00  0.00    -0.381 OA
ATOM     30  H   UNL     1      -1.151  -2.807  -0.360  0.00  0.00    +0.211 HD
ENDBRANCH  13  29
TORSDOF 6
