REMARK  Name = ZINC13500080
REMARK  11 active torsions:
REMARK  status: ('A' for Active; 'I' for Inactive)
REMARK    1  A    between atoms: C_1  and  C_2
REMARK    2  A    between atoms: C_2  and  C_3
REMARK    3  A    between atoms: C_3  and  C_4
REMARK    4  A    between atoms: C_4  and  C_6
REMARK    5  A    between atoms: C_4  and  N_75
REMARK    6  A    between atoms: N_10  and  C_11
REMARK    7  A    between atoms: C_16  and  C_17
REMARK    8  A    between atoms: C_16  and  N_75
REMARK    9  A    between atoms: C_21  and  C_30
REMARK   10  A    between atoms: C_23  and  C_29
REMARK   11  A    between atoms: C_31  and  N_75
REMARK                            x       y       z     vdW  Elec       q    Type
REMARK                         _______ _______ _______ _____ _____    ______ ____
ROOT
ATOM      1  N   UNL     1      -1.525   7.726  -1.268  0.00  0.00    +0.391 N 
ATOM      2  H   UNL     1      -0.840   7.339  -1.928  0.00  0.00    -0.080 HD
ENDROOT
BRANCH   1   3
ATOM      3  C   UNL     1      -2.886   7.397  -1.742  0.00  0.00    -0.067 C 
ATOM      4  C   UNL     1      -3.928   8.242  -1.006  0.00  0.00    -0.015 C 
ATOM      5  C   UNL     1      -5.326   7.888  -1.519  0.00  0.00    -0.002 C 
ATOM      6  C   UNL     1      -5.601   6.404  -1.266  0.00  0.00    -0.000 C 
ATOM      7  C   UNL     1      -4.559   5.559  -2.002  0.00  0.00    -0.002 C 
ATOM      8  C   UNL     1      -3.162   5.913  -1.489  0.00  0.00    -0.015 C 
ENDBRANCH   1   3
BRANCH   1   9
ATOM      9  C   UNL     1      -1.354   9.192  -1.203  0.00  0.00    +0.003 C 
BRANCH   9  10
ATOM     10  C   UNL     1      -2.208   9.845  -2.260  0.00  0.00    +0.138 A 
ATOM     11  N   UNL     1      -2.396   9.421  -3.486  0.00  0.00    -0.115 NA
ATOM     12  N   UNL     1      -3.189  10.248  -4.075  0.00  0.00    -0.023 NA
ATOM     13  N   UNL     1      -3.505  11.192  -3.260  0.00  0.00    -0.044 NA
ATOM     14  N   UNL     1      -2.920  10.979  -2.130  0.00  0.00    -0.228 N 
BRANCH  14  15
ATOM     15  C   UNL     1      -3.014  11.815  -0.930  0.00  0.00    +0.111 C 
ATOM     16  C   UNL     1      -4.487  11.947  -0.492  0.00  0.00    +0.027 C 
ATOM     17  C   UNL     1      -4.603  13.407   0.015  0.00  0.00    +0.002 C 
ATOM     18  C   UNL     1      -3.706  14.186  -0.979  0.00  0.00    +0.002 C 
ATOM     19  C   UNL     1      -2.517  13.238  -1.239  0.00  0.00    +0.027 C 
ENDBRANCH  14  15
ENDBRANCH   9  10
BRANCH   9  20
ATOM     20  C   UNL     1       0.118   9.523  -1.460  0.00  0.00    -0.008 C 
BRANCH  20  22
ATOM     21  C   UNL     1       2.446   9.246  -0.596  0.00  0.00    +0.004 C 
ATOM     22  C   UNL     1       0.989   8.811  -0.423  0.00  0.00    -0.005 C 
ENDBRANCH  20  22
ENDBRANCH   9  20
ENDBRANCH   1   9
BRANCH   1  23
ATOM     23  C   UNL     1      -1.297   7.130   0.065  0.00  0.00    -0.036 C 
BRANCH  23  24
ATOM     24  C   UNL     1      -2.262   7.703   1.071  0.00  0.00    +0.001 A 
ATOM     25  C   UNL     1      -3.405   7.035   1.367  0.00  0.00    +0.017 A 
ATOM     26  C   UNL     1      -4.322   7.618   2.348  0.00  0.00    -0.001 A 
ATOM     27  C   UNL     1      -5.516   6.977   2.693  0.00  0.00    +0.013 A 
ATOM     28  C   UNL     1      -6.350   7.547   3.612  0.00  0.00    -0.050 A 
ATOM     29  C   UNL     1      -6.023   8.757   4.208  0.00  0.00    +0.008 A 
ATOM     30  C   UNL     1      -4.854   9.410   3.880  0.00  0.00    -0.026 A 
ATOM     31  C   UNL     1      -3.986   8.845   2.950  0.00  0.00    +0.052 A 
ATOM     32  N   UNL     1      -2.808   9.474   2.607  0.00  0.00    -0.322 N 
ATOM     33  H   UNL     1      -2.579  10.319   3.022  0.00  0.00    +0.169 HD
ATOM     34  C   UNL     1      -1.973   8.931   1.704  0.00  0.00    +0.251 A 
ATOM     35  O   UNL     1      -0.940   9.514   1.424  0.00  0.00    -0.268 OA
ATOM     36  C   UNL     1      -4.514  10.726   4.530  0.00  0.00    +0.046 C 
ATOM     37  C   UNL     1      -7.636   6.856   3.984  0.00  0.00    +0.044 C 
ENDBRANCH  23  24
ENDBRANCH   1  23
TORSDOF 8
