REMARK  Name = ZINC08791668
REMARK  7 active torsions:
REMARK  status: ('A' for Active; 'I' for Inactive)
REMARK    1  A    between atoms: C_1  and  C_2
REMARK    2  A    between atoms: C_13  and  C_15
REMARK    3  A    between atoms: C_15  and  C_16
REMARK    4  A    between atoms: N_28  and  C_31
REMARK    5  A    between atoms: C_31  and  C_32
REMARK    6  A    between atoms: C_32  and  O_33
REMARK    7  A    between atoms: O_33  and  C_34
REMARK                            x       y       z     vdW  Elec       q    Type
REMARK                         _______ _______ _______ _____ _____    ______ ____
ROOT
ATOM      1  C   UNL     1      -3.459   8.411   0.341  0.00  0.00    +0.044 C 
ATOM      2  C   UNL     1      -2.472   7.646  -0.503  0.00  0.00    -0.050 A 
ATOM      3  C   UNL     1      -1.642   8.319  -1.381  0.00  0.00    +0.005 A 
ATOM      4  C   UNL     1      -0.736   7.623  -2.154  0.00  0.00    +0.024 A 
ATOM      5  C   UNL     1      -0.650   6.237  -2.057  0.00  0.00    +0.036 A 
ATOM      6  C   UNL     1      -1.492   5.570  -1.171  0.00  0.00    -0.027 A 
ATOM      7  C   UNL     1      -2.394   6.268  -0.400  0.00  0.00    +0.008 A 
ATOM      8  C   UNL     1      -1.155   4.112  -1.304  0.00  0.00    +0.050 C 
ATOM      9  C   UNL     1      -0.698   3.514   0.031  0.00  0.00    +0.088 C 
ATOM     10  C   UNL     1      -1.260   2.065   0.019  0.00  0.00    +0.073 C 
ATOM     11  C   UNL     1      -1.986   1.928  -1.330  0.00  0.00    -0.053 C 
ATOM     12  C   UNL     1      -0.014   1.208   0.009  0.00  0.00    +0.224 C 
ATOM     13  O   UNL     1       0.002  -0.004   0.002  0.00  0.00    -0.275 OA
ATOM     14  N   UNL     1       1.067   1.996   0.003  0.00  0.00    -0.240 N 
ATOM     15  C   UNL     1       0.799   3.307   0.013  0.00  0.00    +0.225 C 
ATOM     16  O   UNL     1       1.629   4.191   0.009  0.00  0.00    -0.275 OA
ATOM     17  C   UNL     1      -0.062   4.055  -2.336  0.00  0.00    +0.211 C 
ATOM     18  O   UNL     1       0.501   3.060  -2.741  0.00  0.00    -0.277 OA
ATOM     19  N   UNL     1       0.171   5.324  -2.722  0.00  0.00    -0.286 N 
ATOM     20  H   UNL     1       0.833   5.575  -3.385  0.00  0.00    +0.155 HD
ATOM     21  N   UNL     1      -2.298   3.309  -1.705  0.00  0.00    +0.394 N 
ATOM     22  H   UNL     1      -2.442   3.378  -2.719  0.00  0.00    -0.083 HD
ATOM     23  H   UNL     1      -3.144   3.627  -1.217  0.00  0.00    -0.083 HD
ENDROOT
BRANCH  11  24
ATOM     24  C   UNL     1      -3.258   1.092  -1.171  0.00  0.00    +0.022 C 
BRANCH  24  25
ATOM     25  C   UNL     1      -3.926   0.933  -2.513  0.00  0.00    -0.024 A 
ATOM     26  C   UNL     1      -4.915   1.694  -3.007  0.00  0.00    +0.087 A 
ATOM     27  N   UNL     1      -5.266   1.250  -4.253  0.00  0.00    -0.360 N 
ATOM     28  H   UNL     1      -5.957   1.642  -4.810  0.00  0.00    +0.165 HD
ATOM     29  C   UNL     1      -4.492   0.165  -4.599  0.00  0.00    +0.047 A 
ATOM     30  C   UNL     1      -3.615  -0.078  -3.526  0.00  0.00    +0.003 A 
ATOM     31  C   UNL     1      -2.706  -1.135  -3.595  0.00  0.00    +0.010 A 
ATOM     32  C   UNL     1      -2.666  -1.923  -4.711  0.00  0.00    +0.001 A 
ATOM     33  C   UNL     1      -3.525  -1.684  -5.774  0.00  0.00    +0.002 A 
ATOM     34  C   UNL     1      -4.434  -0.649  -5.725  0.00  0.00    +0.026 A 
ENDBRANCH  24  25
ENDBRANCH  11  24
BRANCH  14  35
ATOM     35  C   UNL     1       2.433   1.466  -0.014  0.00  0.00    +0.144 C 
BRANCH  35  36
ATOM     36  C   UNL     1       2.894   1.291  -1.462  0.00  0.00    +0.179 C 
BRANCH  36  37
ATOM     37  O   UNL     1       2.977   2.570  -2.094  0.00  0.00    -0.381 OA
ATOM     38  C   UNL     1       3.402   2.518  -3.457  0.00  0.00    +0.194 C 
ENDBRANCH  36  37
ENDBRANCH  35  36
ENDBRANCH  14  35
TORSDOF 5
