REMARK  Name = ZINC39007551
REMARK  8 active torsions:
REMARK  status: ('A' for Active; 'I' for Inactive)
REMARK    1  A    between atoms: C_1  and  O_2
REMARK    2  A    between atoms: O_2  and  C_3
REMARK    3  A    between atoms: C_6  and  C_9
REMARK    4  A    between atoms: C_11  and  C_15
REMARK    5  A    between atoms: C_19  and  S_23
REMARK    6  A    between atoms: N_21  and  N_22
REMARK    7  A    between atoms: S_23  and  C_24
REMARK    8  A    between atoms: C_24  and  C_25
REMARK                            x       y       z     vdW  Elec       q    Type
REMARK                         _______ _______ _______ _____ _____    ______ ____
ROOT
ATOM      1  C   UNL     1      -7.083  -4.879   1.310  0.00  0.00    +0.185 C 
ATOM      2  N   UNL     1      -6.433  -6.213   1.395  0.00  0.00    -0.234 NA
ATOM      3  N   UNL     1      -7.332  -7.006   2.237  0.00  0.00    -0.228 NA
ATOM      4  C   UNL     1      -8.669  -6.386   2.139  0.00  0.00    +0.214 C 
ATOM      5  N   UNL     1      -8.529  -5.216   1.237  0.00  0.00    -0.197 NA
ATOM      6  H   UNL     1      -6.335  -6.627   0.480  0.00  0.00    +0.143 HD
ATOM      7  H   UNL     1      -7.011  -7.024   3.193  0.00  0.00    +0.143 HD
ENDROOT
BRANCH   1  10
ATOM      8  C   UNL     1      -4.963  -2.620   0.035  0.00  0.00    +0.091 C 
ATOM      9  C   UNL     1      -5.128  -3.957   0.039  0.00  0.00    +0.034 C 
ATOM     10  C   UNL     1      -6.635  -4.138   0.048  0.00  0.00    +0.187 C 
ATOM     11  N   UNL     1      -7.139  -2.755   0.047  0.00  0.00    -0.176 NA
ATOM     12  N   UNL     1      -6.170  -1.994   0.045  0.00  0.00    -0.154 NA
BRANCH   8  16
ATOM     13  C   UNL     1      -1.200  -0.637   0.010  0.00  0.00    +0.120 A 
ATOM     14  C   UNL     1      -2.374   0.104   0.019  0.00  0.00    +0.046 A 
ATOM     15  C   UNL     1      -3.595  -0.536   0.027  0.00  0.00    +0.013 A 
ATOM     16  C   UNL     1      -3.651  -1.928   0.026  0.00  0.00    +0.002 A 
ATOM     17  C   UNL     1      -2.471  -2.670   0.016  0.00  0.00    +0.013 A 
ATOM     18  C   UNL     1      -1.252  -2.025   0.003  0.00  0.00    +0.046 A 
BRANCH  13  20
ATOM     19  C   UNL     1      -0.017   1.425   0.010  0.00  0.00    +0.277 C 
ATOM     20  O   UNL     1       0.002  -0.004   0.002  0.00  0.00    -0.495 OA
ENDBRANCH  13  20
ENDBRANCH   8  16
ENDBRANCH   1  10
BRANCH   5  21
ATOM     21  N   UNL     1      -9.347  -4.103   1.690  0.00  0.00    -0.264 NA
ATOM     22  H   UNL     1     -10.329  -4.332   1.641  0.00  0.00    +0.137 HD
ATOM     23  H   UNL     1      -9.088  -3.820   2.623  0.00  0.00    +0.137 HD
ENDBRANCH   5  21
BRANCH   4  24
ATOM     24  S   UNL     1      -9.856  -7.571   1.447  0.00  0.00    -0.119 S 
BRANCH  24  25
ATOM     25  C   UNL     1      -9.152  -8.005  -0.168  0.00  0.00    +0.107 C 
BRANCH  25  26
ATOM     26  C   UNL     1     -10.052  -8.997  -0.858  0.00  0.00    -0.037 A 
ATOM     27  C   UNL     1      -9.863 -10.352  -0.664  0.00  0.00    +0.005 A 
ATOM     28  C   UNL     1     -10.689 -11.263  -1.296  0.00  0.00    +0.015 A 
ATOM     29  C   UNL     1     -11.704 -10.817  -2.124  0.00  0.00    +0.018 A 
ATOM     30  C   UNL     1     -11.892  -9.460  -2.317  0.00  0.00    +0.015 A 
ATOM     31  C   UNL     1     -11.069  -8.551  -1.680  0.00  0.00    +0.005 A 
ATOM     32 BR   UNL     1     -12.834 -12.062  -2.990  0.00  0.00    -0.050 Br
ENDBRANCH  25  26
ENDBRANCH  24  25
ENDBRANCH   4  24
TORSDOF 7
