REMARK  Name = ZINC40957217
REMARK  8 active torsions:
REMARK  status: ('A' for Active; 'I' for Inactive)
REMARK    1  A    between atoms: C_1  and  C_2
REMARK    2  A    between atoms: C_7  and  O_8
REMARK    3  A    between atoms: O_8  and  C_9
REMARK    4  A    between atoms: C_9  and  C_10
REMARK    5  A    between atoms: N_12  and  C_13
REMARK    6  A    between atoms: N_16  and  C_19
REMARK    7  A    between atoms: C_19  and  C_20
REMARK    8  A    between atoms: C_22  and  C_25
REMARK                            x       y       z     vdW  Elec       q    Type
REMARK                         _______ _______ _______ _____ _____    ______ ____
ROOT
ATOM      1  C   UNL     1       0.066   0.451   7.185  0.00  0.00    +0.070 C 
ATOM      2  C   UNL     1       1.502   0.872   7.509  0.00  0.00    +0.003 C 
ATOM      3  C   UNL     1       1.503   1.730   8.776  0.00  0.00    -0.076 C 
ATOM      4  N   UNL     1       0.953   0.956   9.896  0.00  0.00    +0.386 N 
ATOM      5  C   UNL     1      -0.447   0.611   9.623  0.00  0.00    -0.076 C 
ATOM      6  C   UNL     1      -0.523  -0.291   8.388  0.00  0.00    +0.003 C 
ATOM      7  H   UNL     1       1.490   0.110  10.014  0.00  0.00    -0.081 HD
ENDROOT
BRANCH   1  10
ATOM      8  C   UNL     1       0.047   0.090   4.775  0.00  0.00    +0.251 C 
ATOM      9  O   UNL     1       0.030   1.294   4.625  0.00  0.00    -0.272 OA
ATOM     10  N   UNL     1       0.066  -0.433   6.017  0.00  0.00    -0.310 N 
ATOM     11  H   UNL     1       0.080  -1.396   6.137  0.00  0.00    +0.149 HD
BRANCH   8  12
ATOM     12  C   UNL     1       0.048  -0.820   3.574  0.00  0.00    +0.324 C 
BRANCH  12  13
ATOM     13  O   UNL     1       0.025  -0.033   2.381  0.00  0.00    -0.483 OA
BRANCH  13  20
ATOM     14  C   UNL     1      -0.018   1.503   0.010  0.00  0.00    +0.047 C 
ATOM     15  C   UNL     1       0.002  -0.004   0.002  0.00  0.00    -0.009 A 
ATOM     16  C   UNL     1       0.006  -0.689  -1.198  0.00  0.00    +0.007 A 
ATOM     17  C   UNL     1       0.024  -2.071  -1.206  0.00  0.00    +0.000 A 
ATOM     18  C   UNL     1       0.039  -2.772  -0.014  0.00  0.00    +0.004 A 
ATOM     19  C   UNL     1       0.036  -2.092   1.188  0.00  0.00    +0.046 A 
ATOM     20  C   UNL     1       0.023  -0.705   1.199  0.00  0.00    +0.124 A 
ENDBRANCH  13  20
ENDBRANCH  12  13
ENDBRANCH   8  12
ENDBRANCH   1  10
BRANCH   4  21
ATOM     21  C   UNL     1       1.028   1.756  11.125  0.00  0.00    +0.022 C 
BRANCH  21  22
ATOM     22  C   UNL     1       0.578   0.921  12.296  0.00  0.00    +0.211 A 
ATOM     23  N   UNL     1       1.347   0.180  13.041  0.00  0.00    -0.192 NA
ATOM     24  C   UNL     1       0.618  -0.428  13.995  0.00  0.00    +0.209 A 
ATOM     25  N   UNL     1      -0.637  -0.068  13.856  0.00  0.00    -0.056 NA
ATOM     26  O   UNL     1      -0.678   0.821  12.749  0.00  0.00    -0.340 OA
BRANCH  24  27
ATOM     27  C   UNL     1       1.141  -1.347  15.027  0.00  0.00    +0.060 A 
ATOM     28  C   UNL     1       0.465  -2.005  16.021  0.00  0.00    +0.019 A 
ATOM     29  C   UNL     1       1.172  -2.820  16.875  0.00  0.00    +0.008 A 
ATOM     30  C   UNL     1       2.514  -2.948  16.708  0.00  0.00    +0.046 A 
ATOM     31  S   UNL     1       2.818  -1.897  15.298  0.00  0.00    -0.093 S 
ENDBRANCH  24  27
ENDBRANCH  21  22
ENDBRANCH   4  21
TORSDOF 7
