REMARK  Name = ZINC63140701
REMARK  5 active torsions:
REMARK  status: ('A' for Active; 'I' for Inactive)
REMARK    1  A    between atoms: C_1  and  O_2
REMARK    2  A    between atoms: O_2  and  C_3
REMARK    3  A    between atoms: C_8  and  C_9
REMARK    4  A    between atoms: N_28  and  C_31
REMARK    5  A    between atoms: C_31  and  C_32
REMARK                            x       y       z     vdW  Elec       q    Type
REMARK                         _______ _______ _______ _____ _____    ______ ____
ROOT
ATOM      1  C   UNL     1       0.018  -2.829  -0.013  0.00  0.00    +0.137 C 
ATOM      2  C   UNL     1       0.499  -3.010  -1.455  0.00  0.00    +0.131 C 
ATOM      3  C   UNL     1      -0.487  -3.953  -2.131  0.00  0.00    -0.034 C 
ATOM      4  C   UNL     1      -0.936  -3.318  -3.208  0.00  0.00    -0.001 A 
ATOM      5  C   UNL     1      -1.845  -3.739  -4.285  0.00  0.00    +0.010 A 
ATOM      6  C   UNL     1      -2.105  -2.813  -5.246  0.00  0.00    +0.001 A 
ATOM      7  C   UNL     1      -1.559  -1.526  -5.242  0.00  0.00    +0.002 A 
ATOM      8  C   UNL     1      -0.710  -1.056  -4.293  0.00  0.00    +0.026 A 
ATOM      9  C   UNL     1      -0.357  -1.940  -3.232  0.00  0.00    +0.043 A 
ATOM     10  N   UNL     1       0.455  -1.756  -2.209  0.00  0.00    -0.375 N 
ATOM     11  C   UNL     1      -0.859  -5.292  -1.542  0.00  0.00    +0.065 C 
ATOM     12  C   UNL     1      -1.233  -5.036  -0.071  0.00  0.00    +0.167 C 
ATOM     13  N   UNL     1      -0.232  -4.174   0.552  0.00  0.00    -0.279 N 
ATOM     14  C   UNL     1       0.482  -4.547   1.621  0.00  0.00    +0.234 C 
ATOM     15  O   UNL     1       1.304  -3.765   2.050  0.00  0.00    -0.274 OA
ATOM     16  C   UNL     1       0.338  -5.857   2.322  0.00  0.00    +0.204 C 
ATOM     17  N   UNL     1      -0.682  -6.696   1.715  0.00  0.00    -0.287 N 
ATOM     18  C   UNL     1      -1.391  -6.338   0.642  0.00  0.00    +0.237 C 
ATOM     19  O   UNL     1      -2.217  -7.120   0.220  0.00  0.00    -0.274 OA
ATOM     20  H   UNL     1       0.935  -0.943  -1.985  0.00  0.00    +0.160 HD
ENDROOT
BRANCH   1  26
ATOM     21  C   UNL     1      -1.308  -0.821   0.692  0.00  0.00    +0.125 A 
ATOM     22  C   UNL     1      -2.480  -0.079   0.701  0.00  0.00    +0.046 A 
ATOM     23  C   UNL     1      -3.594  -0.542   0.028  0.00  0.00    +0.004 A 
ATOM     24  C   UNL     1      -3.541  -1.744  -0.654  0.00  0.00    +0.001 A 
ATOM     25  C   UNL     1      -2.374  -2.485  -0.664  0.00  0.00    +0.009 A 
ATOM     26  C   UNL     1      -1.255  -2.023   0.003  0.00  0.00    +0.017 A 
BRANCH  21  28
ATOM     27  C   UNL     1      -0.337   0.879   2.042  0.00  0.00    +0.277 C 
ATOM     28  O   UNL     1      -0.210  -0.367   1.353  0.00  0.00    -0.495 OA
ENDBRANCH  21  28
ENDBRANCH   1  26
BRANCH  17  29
ATOM     29  C   UNL     1      -0.946  -8.007   2.313  0.00  0.00    +0.143 C 
BRANCH  29  30
ATOM     30  C   UNL     1      -2.018  -7.874   3.364  0.00  0.00    -0.029 A 
ATOM     31  C   UNL     1      -1.671  -7.597   4.673  0.00  0.00    +0.007 A 
ATOM     32  C   UNL     1      -2.654  -7.475   5.638  0.00  0.00    +0.022 A 
ATOM     33  C   UNL     1      -3.984  -7.629   5.293  0.00  0.00    +0.059 A 
ATOM     34  C   UNL     1      -4.332  -7.905   3.982  0.00  0.00    +0.060 A 
ATOM     35  C   UNL     1      -3.347  -8.022   3.017  0.00  0.00    +0.026 A 
ATOM     36 CL   UNL     1      -6.001  -8.099   3.547  0.00  0.00    -0.082 Cl
ATOM     37 CL   UNL     1      -5.219  -7.476   6.504  0.00  0.00    -0.082 Cl
ENDBRANCH  29  30
ENDBRANCH  17  29
TORSDOF 4
