REMARK  Name = ZINC06894547
REMARK  4 active torsions:
REMARK  status: ('A' for Active; 'I' for Inactive)
REMARK    1  A    between atoms: C_8  and  C_16
REMARK    2  A    between atoms: N_18  and  C_19
REMARK    3  A    between atoms: C_19  and  C_20
REMARK    4  A    between atoms: C_20  and  C_21
REMARK                            x       y       z     vdW  Elec       q    Type
REMARK                         _______ _______ _______ _____ _____    ______ ____
ROOT
ATOM      1  C   UNL     1      -1.467   1.234  -0.547  0.00  0.00    +0.000 A 
ATOM      2  C   UNL     1      -1.668   2.598  -0.659  0.00  0.00    +0.002 A 
ATOM      3  C   UNL     1      -0.598   3.467  -0.602  0.00  0.00    +0.023 A 
ATOM      4  C   UNL     1       0.694   2.976  -0.427  0.00  0.00    +0.036 A 
ATOM      5  C   UNL     1       0.883   1.603  -0.310  0.00  0.00    -0.027 A 
ATOM      6  C   UNL     1      -0.187   0.739  -0.368  0.00  0.00    +0.004 A 
ATOM      7  C   UNL     1       2.364   1.401  -0.131  0.00  0.00    +0.052 C 
ATOM      8  C   UNL     1       2.941   0.544  -1.268  0.00  0.00    +0.076 C 
ATOM      9  C   UNL     1       4.031  -0.296  -0.547  0.00  0.00    -0.003 C 
ATOM     10  C   UNL     1       3.382  -0.532   0.837  0.00  0.00    -0.066 C 
ATOM     11  C   UNL     1       3.604   1.558   1.935  0.00  0.00    -0.077 C 
ATOM     12  C   UNL     1       4.334   0.526   2.829  0.00  0.00    -0.020 C 
ATOM     13  C   UNL     1       4.487  -0.694   1.893  0.00  0.00    -0.017 C 
ATOM     14  C   UNL     1       2.947   2.791  -0.164  0.00  0.00    +0.212 C 
ATOM     15  O   UNL     1       4.119   3.086  -0.053  0.00  0.00    -0.277 OA
ATOM     16  N   UNL     1       1.919   3.641  -0.338  0.00  0.00    -0.286 N 
ATOM     17  H   UNL     1       2.017   4.605  -0.396  0.00  0.00    +0.155 HD
ATOM     18  N   UNL     1       2.694   0.719   1.136  0.00  0.00    +0.394 N 
ATOM     19  H   UNL     1       1.834   0.532   1.665  0.00  0.00    -0.079 HD
ENDROOT
BRANCH   8  20
ATOM     20  C   UNL     1       3.556   1.415  -2.334  0.00  0.00    +0.216 C 
ATOM     21  O   UNL     1       4.749   1.631  -2.326  0.00  0.00    -0.276 OA
ATOM     22  N   UNL     1       2.780   1.952  -3.295  0.00  0.00    -0.315 N 
ATOM     23  H   UNL     1       1.825   1.780  -3.301  0.00  0.00    +0.149 HD
BRANCH  22  24
ATOM     24  C   UNL     1       3.377   2.799  -4.331  0.00  0.00    +0.109 C 
BRANCH  24  25
ATOM     25  C   UNL     1       2.286   3.277  -5.291  0.00  0.00    +0.054 C 
BRANCH  25  26
ATOM     26  C   UNL     1       2.901   4.148  -6.356  0.00  0.00    -0.046 A 
ATOM     27  C   UNL     1       2.998   5.513  -6.162  0.00  0.00    +0.005 A 
ATOM     28  C   UNL     1       3.567   6.311  -7.137  0.00  0.00    +0.020 A 
ATOM     29  C   UNL     1       4.028   5.745  -8.312  0.00  0.00    +0.041 A 
ATOM     30  C   UNL     1       3.925   4.379  -8.508  0.00  0.00    +0.020 A 
ATOM     31  C   UNL     1       3.362   3.581  -7.530  0.00  0.00    +0.005 A 
ATOM     32 CL   UNL     1       4.736   6.747  -9.539  0.00  0.00    -0.084 Cl
ENDBRANCH  25  26
ENDBRANCH  24  25
ENDBRANCH  22  24
ENDBRANCH   8  20
TORSDOF 4
