REMARK  Name = ZINC12537754
REMARK  14 active torsions:
REMARK  status: ('A' for Active; 'I' for Inactive)
REMARK    1  A    between atoms: C_1  and  C_2
REMARK    2  A    between atoms: C_2  and  C_3
REMARK    3  A    between atoms: C_3  and  C_4
REMARK    4  A    between atoms: C_4  and  N_5
REMARK    5  A    between atoms: N_13  and  C_29
REMARK    6  A    between atoms: C_16  and  C_17
REMARK    7  A    between atoms: C_20  and  O_25
REMARK    8  A    between atoms: C_21  and  O_23
REMARK    9  A    between atoms: O_23  and  C_24
REMARK   10  A    between atoms: O_25  and  C_26
REMARK   11  A    between atoms: C_26  and  C_27
REMARK   12  A    between atoms: C_29  and  C_30
REMARK   13  A    between atoms: C_30  and  C_31
REMARK   14  A    between atoms: C_30  and  C_32
REMARK                            x       y       z     vdW  Elec       q    Type
REMARK                         _______ _______ _______ _____ _____    ______ ____
ROOT
ATOM      1  N   UNL     1      -2.619  -0.341   0.205  0.00  0.00    -0.318 N 
ATOM      2  C   UNL     1      -3.967  -0.638   0.123  0.00  0.00    +0.152 A 
ATOM      3  C   UNL     1      -4.723  -1.825   0.218  0.00  0.00    +0.280 A 
ATOM      4  O   UNL     1      -4.170  -2.892   0.416  0.00  0.00    -0.265 OA
ATOM      5  N   UNL     1      -6.064  -1.765   0.087  0.00  0.00    -0.273 N 
ATOM      6  H   UNL     1      -6.603  -2.604   0.154  0.00  0.00    +0.173 HD
ATOM      7  C   UNL     1      -6.687  -0.594  -0.132  0.00  0.00    +0.331 A 
ATOM      8  O   UNL     1      -7.897  -0.579  -0.244  0.00  0.00    -0.246 OA
ATOM      9  N   UNL     1      -6.004   0.562  -0.230  0.00  0.00    -0.276 N 
ATOM     10  C   UNL     1      -4.623   0.568  -0.105  0.00  0.00    +0.169 A 
ATOM     11  N   UNL     1      -3.700   1.527  -0.147  0.00  0.00    -0.209 NA
ATOM     12  C   UNL     1      -2.502   1.005   0.029  0.00  0.00    +0.144 A 
ENDROOT
BRANCH  12  13
ATOM     13  C   UNL     1      -1.233   1.761   0.040  0.00  0.00    +0.021 A 
ATOM     14  C   UNL     1      -0.104   1.223   0.661  0.00  0.00    +0.015 A 
ATOM     15  C   UNL     1       1.081   1.927   0.665  0.00  0.00    +0.050 A 
ATOM     16  C   UNL     1       1.154   3.173   0.058  0.00  0.00    +0.163 A 
ATOM     17  C   UNL     1       0.029   3.718  -0.559  0.00  0.00    +0.162 A 
ATOM     18  C   UNL     1      -1.162   3.017  -0.566  0.00  0.00    +0.061 A 
BRANCH  17  19
ATOM     19  O   UNL     1       0.104   4.938  -1.154  0.00  0.00    -0.491 OA
ATOM     20  C   UNL     1      -1.087   5.436  -1.766  0.00  0.00    +0.277 C 
ENDBRANCH  17  19
BRANCH  16  21
ATOM     21  O   UNL     1       2.325   3.863   0.064  0.00  0.00    -0.474 OA
BRANCH  21  22
ATOM     22  C   UNL     1       3.438   3.246   0.713  0.00  0.00    +0.347 C 
BRANCH  22  23
ATOM     23  C   UNL     1       4.611   4.130   0.622  0.00  0.00    +0.104 C 
ATOM     24  N   UNL     1       5.517   4.812   0.551  0.00  0.00    -0.193 NA
ENDBRANCH  22  23
ENDBRANCH  21  22
ENDBRANCH  16  21
ENDBRANCH  12  13
BRANCH   1  25
ATOM     25  C   UNL     1      -1.528  -1.290   0.437  0.00  0.00    +0.124 C 
BRANCH  25  26
ATOM     26  C   UNL     1      -1.353  -1.507   1.941  0.00  0.00    +0.021 C 
BRANCH  26  28
ATOM     27  C   UNL     1      -0.037  -2.716   3.688  0.00  0.00    +0.004 C 
ATOM     28  C   UNL     1      -0.212  -2.499   2.183  0.00  0.00    -0.002 C 
ENDBRANCH  26  28
ENDBRANCH  25  26
ENDBRANCH   1  25
BRANCH   9  29
ATOM     29  C   UNL     1      -6.721   1.817  -0.470  0.00  0.00    +0.131 C 
BRANCH  29  30
ATOM     30  C   UNL     1      -7.101   2.451   0.870  0.00  0.00    +0.003 C 
ATOM     31  C   UNL     1      -7.739   3.820   0.624  0.00  0.00    +0.009 C 
ATOM     32  C   UNL     1      -8.098   1.548   1.598  0.00  0.00    +0.009 C 
ENDBRANCH  29  30
ENDBRANCH   9  29
TORSDOF 10
