REMARK  Name = ZINC63142029
REMARK  6 active torsions:
REMARK  status: ('A' for Active; 'I' for Inactive)
REMARK    1  A    between atoms: C_4  and  C_7
REMARK    2  A    between atoms: C_7  and  C_9
REMARK    3  A    between atoms: C_7  and  O_41
REMARK    4  A    between atoms: C_9  and  N_10
REMARK    5  A    between atoms: C_30  and  C_32
REMARK    6  A    between atoms: C_36  and  N_38
REMARK                            x       y       z     vdW  Elec       q    Type
REMARK                         _______ _______ _______ _____ _____    ______ ____
ROOT
ATOM      1  N   UNL     1       5.381  -1.791   1.383  0.00  0.00    -0.288 N 
ATOM      2  C   UNL     1       5.574  -3.231   1.127  0.00  0.00    +0.203 C 
ATOM      3  C   UNL     1       6.718  -3.395   0.147  0.00  0.00    +0.234 C 
ATOM      4  O   UNL     1       6.648  -4.168  -0.785  0.00  0.00    -0.274 OA
ATOM      5  N   UNL     1       7.836  -2.627   0.363  0.00  0.00    -0.279 N 
ATOM      6  C   UNL     1       7.808  -1.811   1.558  0.00  0.00    +0.167 C 
ATOM      7  C   UNL     1       6.506  -1.054   1.620  0.00  0.00    +0.237 C 
ATOM      8  O   UNL     1       6.460   0.133   1.868  0.00  0.00    -0.274 OA
ATOM      9  C   UNL     1       8.996  -0.932   1.851  0.00  0.00    +0.065 C 
ATOM     10  C   UNL     1       9.926  -0.916   0.669  0.00  0.00    -0.034 C 
ATOM     11  C   UNL     1      10.617   0.058   0.094  0.00  0.00    -0.001 A 
ATOM     12  C   UNL     1      10.767   1.484   0.428  0.00  0.00    +0.010 A 
ATOM     13  C   UNL     1      11.562   2.213  -0.398  0.00  0.00    +0.001 A 
ATOM     14  C   UNL     1      12.216   1.675  -1.510  0.00  0.00    +0.002 A 
ATOM     15  C   UNL     1      12.139   0.374  -1.889  0.00  0.00    +0.026 A 
ATOM     16  C   UNL     1      11.334  -0.494  -1.096  0.00  0.00    +0.043 A 
ATOM     17  N   UNL     1      11.095  -1.765  -1.221  0.00  0.00    -0.375 N 
ATOM     18  C   UNL     1      10.221  -2.190  -0.119  0.00  0.00    +0.131 C 
ATOM     19  C   UNL     1       8.883  -2.687  -0.646  0.00  0.00    +0.133 C 
ATOM     20  H   UNL     1      11.436  -2.338  -1.925  0.00  0.00    +0.160 HD
ENDROOT
BRANCH  19  21
ATOM     21  C   UNL     1       8.498  -1.804  -1.805  0.00  0.00    -0.023 A 
ATOM     22  C   UNL     1       7.904  -0.577  -1.572  0.00  0.00    +0.005 A 
ATOM     23  C   UNL     1       7.551   0.233  -2.634  0.00  0.00    +0.003 A 
ATOM     24  C   UNL     1       7.792  -0.183  -3.931  0.00  0.00    +0.033 A 
ATOM     25  C   UNL     1       8.386  -1.409  -4.164  0.00  0.00    +0.127 A 
ATOM     26  C   UNL     1       8.744  -2.217  -3.100  0.00  0.00    +0.038 A 
BRANCH  25  27
ATOM     27  N   UNL     1       8.644  -1.855  -5.551  0.00  0.00    +0.056 N 
ATOM     28  O   UNL     1       8.334  -1.147  -6.481  0.00  0.00    -0.126 OA
ATOM     29  O   UNL     1       9.164  -2.927  -5.755  0.00  0.00    -0.126 OA
ENDBRANCH  25  27
ENDBRANCH  19  21
BRANCH   1  30
ATOM     30  C   UNL     1       4.049  -1.182   1.377  0.00  0.00    +0.144 C 
BRANCH  30  31
ATOM     31  C   UNL     1       3.711  -0.707  -0.038  0.00  0.00    +0.162 C 
BRANCH  31  35
ATOM     32  C   UNL     1      -0.017   1.378   0.010  0.00  0.00    +0.000 A 
ATOM     33  C   UNL     1       1.171   2.086   0.002  0.00  0.00    +0.000 A 
ATOM     34  C   UNL     1       2.377   1.411  -0.013  0.00  0.00    +0.006 A 
ATOM     35  C   UNL     1       2.396   0.029  -0.020  0.00  0.00    -0.018 A 
ATOM     36  C   UNL     1       1.208  -0.679  -0.012  0.00  0.00    +0.006 A 
ATOM     37  C   UNL     1       0.002  -0.004   0.002  0.00  0.00    +0.000 A 
ENDBRANCH  31  35
BRANCH  31  38
ATOM     38  O   UNL     1       3.614  -1.836  -0.908  0.00  0.00    -0.386 OA
ATOM     39  H   UNL     1       2.934  -2.474  -0.651  0.00  0.00    +0.210 HD
ENDBRANCH  31  38
ENDBRANCH  30  31
ENDBRANCH   1  30
TORSDOF 6
