REMARK  Name = ZINC34756182
REMARK  9 active torsions:
REMARK  status: ('A' for Active; 'I' for Inactive)
REMARK    1  A    between atoms: C_1  and  C_2
REMARK    2  A    between atoms: C_5  and  C_9
REMARK    3  A    between atoms: C_6  and  C_8
REMARK    4  A    between atoms: C_9  and  N_10
REMARK    5  A    between atoms: C_23  and  S_25
REMARK    6  A    between atoms: S_25  and  C_26
REMARK    7  A    between atoms: C_26  and  C_27
REMARK    8  A    between atoms: C_27  and  C_28
REMARK    9  A    between atoms: C_27  and  C_29
REMARK                            x       y       z     vdW  Elec       q    Type
REMARK                         _______ _______ _______ _____ _____    ______ ____
ROOT
ATOM      1  N   UNL     1      -2.286  -3.907   0.424  0.00  0.00    +0.384 N 
ATOM      2  C   UNL     1      -3.686  -4.094   0.827  0.00  0.00    -0.059 C 
ATOM      3  C   UNL     1      -3.979  -5.590   0.974  0.00  0.00    +0.088 C 
ATOM      4  N   UNL     1      -3.614  -6.262  -0.284  0.00  0.00    -0.318 N 
ATOM      5  C   UNL     1      -2.281  -6.000  -0.848  0.00  0.00    +0.088 C 
ATOM      6  C   UNL     1      -2.068  -4.484  -0.908  0.00  0.00    -0.059 C 
ATOM      7  C   UNL     1      -4.499  -7.115  -0.917  0.00  0.00    +0.134 A 
ATOM      8  C   UNL     1      -4.425  -8.520  -0.699  0.00  0.00    +0.051 A 
ATOM      9  C   UNL     1      -3.493  -9.267   0.149  0.00  0.00    -0.025 A 
ATOM     10  C   UNL     1      -3.635 -10.606   0.183  0.00  0.00    -0.004 A 
ATOM     11  S   UNL     1      -4.999 -10.954  -0.896  0.00  0.00    -0.073 S 
ATOM     12  C   UNL     1      -5.376  -9.293  -1.393  0.00  0.00    +0.115 A 
ATOM     13  N   UNL     1      -6.269  -8.739  -2.190  0.00  0.00    -0.215 NA
ATOM     14  C   UNL     1      -6.291  -7.423  -2.356  0.00  0.00    +0.191 A 
ATOM     15  N   UNL     1      -5.427  -6.635  -1.727  0.00  0.00    -0.206 NA
ATOM     16  C   UNL     1      -2.815 -11.588   0.964  0.00  0.00    +0.043 C 
ATOM     17  C   UNL     1      -1.539 -10.880   1.442  0.00  0.00    +0.005 C 
ATOM     18  C   UNL     1      -1.926  -9.534   2.060  0.00  0.00    +0.005 C 
ATOM     19  C   UNL     1      -2.402  -8.578   0.966  0.00  0.00    +0.037 C 
ATOM     20  H   UNL     1      -1.683  -4.365   1.091  0.00  0.00    -0.081 HD
ENDROOT
BRANCH   1  21
ATOM     21  C   UNL     1      -1.975  -2.471   0.391  0.00  0.00    -0.043 C 
BRANCH  21  26
ATOM     22  C   UNL     1      -2.378  -0.293   5.728  0.00  0.00    +0.044 C 
ATOM     23  C   UNL     1      -2.273  -0.861   4.337  0.00  0.00    -0.050 A 
ATOM     24  C   UNL     1      -3.311  -0.691   3.440  0.00  0.00    +0.003 A 
ATOM     25  C   UNL     1      -3.215  -1.212   2.164  0.00  0.00    +0.002 A 
ATOM     26  C   UNL     1      -2.080  -1.903   1.783  0.00  0.00    -0.061 A 
ATOM     27  C   UNL     1      -1.041  -2.072   2.679  0.00  0.00    -0.049 A 
ATOM     28  C   UNL     1      -1.135  -1.547   3.954  0.00  0.00    +0.007 A 
ATOM     29  C   UNL     1       0.196  -2.826   2.264  0.00  0.00    +0.044 C 
ENDBRANCH  21  26
ENDBRANCH   1  21
BRANCH  14  30
ATOM     30  S   UNL     1      -7.493  -6.707  -3.427  0.00  0.00    -0.086 S 
BRANCH  30  31
ATOM     31  C   UNL     1      -8.436  -8.130  -4.042  0.00  0.00    +0.080 C 
BRANCH  31  32
ATOM     32  C   UNL     1      -9.529  -7.643  -4.996  0.00  0.00    -0.007 C 
ATOM     33  C   UNL     1      -8.883  -7.019  -6.235  0.00  0.00    +0.008 C 
ATOM     34  C   UNL     1     -10.402  -8.827  -5.418  0.00  0.00    +0.008 C 
ENDBRANCH  31  32
ENDBRANCH  30  31
ENDBRANCH  14  30
TORSDOF 5
