REMARK  Name = ZINC30947162
REMARK  9 active torsions:
REMARK  status: ('A' for Active; 'I' for Inactive)
REMARK    1  A    between atoms: C_1  and  C_2
REMARK    2  A    between atoms: C_2  and  C_3
REMARK    3  A    between atoms: C_2  and  C_4
REMARK    4  A    between atoms: C_2  and  C_5
REMARK    5  A    between atoms: N_11  and  S_35
REMARK    6  A    between atoms: C_13  and  C_16
REMARK    7  A    between atoms: N_18  and  C_19
REMARK    8  A    between atoms: C_22  and  C_25
REMARK    9  A    between atoms: S_35  and  C_38
REMARK                            x       y       z     vdW  Elec       q    Type
REMARK                         _______ _______ _______ _____ _____    ______ ____
ROOT
ATOM      1  C   UNL     1      -0.014   1.209   0.007  0.00  0.00    +0.260 C 
ATOM      2  O   UNL     1       0.002  -0.004  -0.008  0.00  0.00    -0.271 OA
ATOM      3  N   UNL     1      -1.191   1.867   0.018  0.00  0.00    -0.282 N 
ATOM      4  H   UNL     1      -1.207   2.963   0.108  0.00  0.00    +0.155 HD
ENDROOT
BRANCH   1  13
ATOM      5  C   UNL     1       6.189   2.547  -0.523  0.00  0.00    -0.040 A 
ATOM      6  C   UNL     1       6.004   1.363   0.166  0.00  0.00    +0.008 A 
ATOM      7  C   UNL     1       4.729   0.871   0.377  0.00  0.00    +0.048 A 
ATOM      8  C   UNL     1       3.629   1.564  -0.104  0.00  0.00    +0.144 A 
ATOM      9  C   UNL     1       3.818   2.757  -0.796  0.00  0.00    +0.093 A 
ATOM     10  C   UNL     1       5.098   3.246  -1.005  0.00  0.00    +0.032 A 
ATOM     11  N   UNL     1       2.706   3.467  -1.277  0.00  0.00    -0.200 N 
ATOM     12  C   UNL     1       1.408   2.771  -1.302  0.00  0.00    +0.185 C 
ATOM     13  C   UNL     1       1.280   1.980   0.007  0.00  0.00    +0.278 C 
ATOM     14  O   UNL     1       2.380   1.071   0.105  0.00  0.00    -0.476 OA
BRANCH   5  16
ATOM     15  C   UNL     1       8.599   2.122  -0.120  0.00  0.00    +0.015 C 
ATOM     16  C   UNL     1       7.582   3.076  -0.750  0.00  0.00    -0.013 C 
ATOM     17  C   UNL     1       7.848   3.187  -2.252  0.00  0.00    +0.015 C 
ATOM     18  C   UNL     1       7.713   4.458  -0.106  0.00  0.00    +0.015 C 
ENDBRANCH   5  16
BRANCH  11  19
ATOM     19  S   UNL     1       2.849   5.033  -1.797  0.00  0.00    +0.043 S 
ATOM     20  O   UNL     1       1.558   5.596  -1.613  0.00  0.00    -0.155 OA
ATOM     21  O   UNL     1       3.971   5.548  -1.093  0.00  0.00    -0.155 OA
ATOM     22  C   UNL     1       3.228   4.904  -3.566  0.00  0.00    +0.218 C 
ENDBRANCH  11  19
ENDBRANCH   1  13
BRANCH   3  23
ATOM     23  C   UNL     1      -2.391   1.155  -0.086  0.00  0.00    +0.034 A 
ATOM     24  C   UNL     1      -3.468   1.704  -0.769  0.00  0.00    +0.023 A 
ATOM     25  C   UNL     1      -4.650   0.997  -0.875  0.00  0.00    +0.006 A 
ATOM     26  C   UNL     1      -4.764  -0.252  -0.292  0.00  0.00    -0.041 A 
ATOM     27  C   UNL     1      -3.696  -0.798   0.395  0.00  0.00    +0.006 A 
ATOM     28  C   UNL     1      -2.510  -0.099   0.499  0.00  0.00    +0.023 A 
BRANCH  26  29
ATOM     29  C   UNL     1      -6.057  -1.018  -0.404  0.00  0.00    -0.003 C 
ATOM     30  C   UNL     1      -6.614  -1.286   0.996  0.00  0.00    +0.015 C 
ATOM     31  C   UNL     1      -7.927  -2.064   0.883  0.00  0.00    -0.010 C 
ATOM     32  C   UNL     1      -8.938  -1.243   0.080  0.00  0.00    +0.007 C 
ATOM     33  C   UNL     1      -8.382  -0.975  -1.319  0.00  0.00    -0.010 C 
ATOM     34  C   UNL     1      -7.069  -0.197  -1.206  0.00  0.00    +0.015 C 
ATOM     35  C   UNL     1      -8.126  -2.306  -2.030  0.00  0.00    +0.007 C 
ATOM     36  C   UNL     1      -7.114  -3.127  -1.228  0.00  0.00    -0.010 C 
ATOM     37  C   UNL     1      -7.671  -3.395   0.172  0.00  0.00    +0.007 C 
ATOM     38  C   UNL     1      -5.802  -2.349  -1.114  0.00  0.00    +0.015 C 
ENDBRANCH  26  29
ENDBRANCH   3  23
TORSDOF 5
