REMARK  Name = ZINC63409358
REMARK  6 active torsions:
REMARK  status: ('A' for Active; 'I' for Inactive)
REMARK    1  A    between atoms: C_4  and  C_7
REMARK    2  A    between atoms: C_10  and  N_33
REMARK    3  A    between atoms: C_15  and  C_17
REMARK    4  A    between atoms: N_19  and  N_20
REMARK    5  A    between atoms: C_21  and  C_22
REMARK    6  A    between atoms: C_31  and  O_32
REMARK                            x       y       z     vdW  Elec       q    Type
REMARK                         _______ _______ _______ _____ _____    ______ ____
ROOT
ATOM      1  C   UNL     1       3.702  -0.666  -0.023  0.00  0.00    -0.000 C 
ATOM      2  C   UNL     1       4.972  -0.122  -0.125  0.00  0.00    +0.006 A 
ATOM      3  C   UNL     1       5.436   1.212  -0.228  0.00  0.00    +0.043 A 
ATOM      4  C   UNL     1       6.766   1.455  -0.317  0.00  0.00    +0.127 A 
ATOM      5  C   UNL     1       7.704   0.417  -0.309  0.00  0.00    +0.035 A 
ATOM      6  C   UNL     1       7.335  -0.881  -0.213  0.00  0.00    +0.028 A 
ATOM      7  C   UNL     1       5.958  -1.219  -0.116  0.00  0.00    +0.044 A 
ATOM      8  N   UNL     1       5.352  -2.381  -0.015  0.00  0.00    -0.370 N 
ATOM      9  C   UNL     1       3.904  -2.163   0.059  0.00  0.00    +0.199 C 
ATOM     10  H   UNL     1       5.792  -3.245   0.011  0.00  0.00    +0.161 HD
ENDROOT
BRANCH   1  14
ATOM     11  C   UNL     1       0.022   1.429   0.060  0.00  0.00    +0.000 A 
ATOM     12  C   UNL     1       1.142   1.981   0.659  0.00  0.00    +0.001 A 
ATOM     13  C   UNL     1       2.343   1.307   0.637  0.00  0.00    +0.008 A 
ATOM     14  C   UNL     1       2.430   0.058   0.006  0.00  0.00    -0.019 A 
ATOM     15  C   UNL     1       1.291  -0.493  -0.598  0.00  0.00    +0.008 A 
ATOM     16  C   UNL     1       0.098   0.196  -0.566  0.00  0.00    +0.001 A 
ENDBRANCH   1  14
BRANCH   9  17
ATOM     17  C   UNL     1       3.362  -2.689   1.363  0.00  0.00    +0.259 C 
ATOM     18  O   UNL     1       4.101  -2.823   2.317  0.00  0.00    -0.271 OA
ATOM     19  N   UNL     1       2.058  -3.010   1.471  0.00  0.00    -0.205 N 
ATOM     20  H   UNL     1       1.484  -2.975   0.690  0.00  0.00    +0.177 HD
BRANCH  19  21
ATOM     21  N   UNL     1       1.531  -3.395   2.711  0.00  0.00    -0.188 NA
ATOM     22  C   UNL     1       0.273  -3.704   2.815  0.00  0.00    +0.142 C 
BRANCH  22  23
ATOM     23  C   UNL     1      -0.279  -4.108   4.116  0.00  0.00    +0.044 A 
ATOM     24  C   UNL     1      -1.690  -4.465   4.249  0.00  0.00    -0.006 A 
ATOM     25  C   UNL     1      -2.558  -4.436   3.151  0.00  0.00    +0.009 A 
ATOM     26  C   UNL     1      -3.868  -4.778   3.318  0.00  0.00    +0.001 A 
ATOM     27  C   UNL     1      -4.354  -5.155   4.567  0.00  0.00    +0.001 A 
ATOM     28  C   UNL     1      -3.538  -5.194   5.656  0.00  0.00    +0.008 A 
ATOM     29  C   UNL     1      -2.182  -4.849   5.521  0.00  0.00    -0.017 A 
ATOM     30  C   UNL     1      -1.308  -4.879   6.622  0.00  0.00    +0.012 A 
ATOM     31  C   UNL     1       0.001  -4.543   6.480  0.00  0.00    +0.046 A 
ATOM     32  C   UNL     1       0.533  -4.163   5.248  0.00  0.00    +0.126 A 
BRANCH  32  33
ATOM     33  O   UNL     1       1.848  -3.842   5.152  0.00  0.00    -0.506 OA
ATOM     34  H   UNL     1       2.037  -2.906   5.303  0.00  0.00    +0.292 HD
ENDBRANCH  32  33
ENDBRANCH  22  23
ENDBRANCH  19  21
ENDBRANCH   9  17
BRANCH   4  35
ATOM     35  N   UNL     1       7.237   2.855  -0.424  0.00  0.00    +0.056 N 
ATOM     36  O   UNL     1       6.439   3.763  -0.433  0.00  0.00    -0.126 OA
ATOM     37  O   UNL     1       8.421   3.089  -0.504  0.00  0.00    -0.126 OA
ENDBRANCH   4  35
TORSDOF 6
