REMARK  Name = ZINC35189323
REMARK  4 active torsions:
REMARK  status: ('A' for Active; 'I' for Inactive)
REMARK    1  A    between atoms: C_5  and  N_7
REMARK    2  A    between atoms: C_8  and  C_10
REMARK    3  A    between atoms: C_10  and  C_11
REMARK    4  A    between atoms: C_11  and  C_12
REMARK                            x       y       z     vdW  Elec       q    Type
REMARK                         _______ _______ _______ _____ _____    ______ ____
ROOT
ATOM      1  N   UNL     1      -1.603  -1.779   0.001  0.00  0.00    -0.176 NA
ATOM      2  C   UNL     1      -0.693  -2.710  -0.009  0.00  0.00    +0.250 C 
ATOM      3  O   UNL     1       0.612  -2.377  -0.014  0.00  0.00    -0.271 OA
ENDROOT
BRANCH   1   8
ATOM      4  C   UNL     1      -0.016   1.327   0.009  0.00  0.00    +0.247 A 
ATOM      5  N   UNL     1      -1.256   1.741   0.018  0.00  0.00    -0.159 NA
ATOM      6  H   UNL     1      -3.042   0.576   0.020  0.00  0.00    +0.192 HD
ATOM      7  N   UNL     1      -2.072   0.599   0.015  0.00  0.00    -0.243 N 
ATOM      8  C   UNL     1      -1.235  -0.466   0.006  0.00  0.00    +0.249 A 
ATOM      9  N   UNL     1       0.002  -0.004   0.002  0.00  0.00    -0.198 NA
ENDBRANCH   1   8
BRANCH   2  10
ATOM     10  C   UNL     1      -1.100  -4.161  -0.014  0.00  0.00    +0.112 C 
BRANCH  10  11
ATOM     11  C   UNL     1      -2.626  -4.263  -0.007  0.00  0.00    +0.134 C 
BRANCH  11  12
ATOM     12  C   UNL     1      -3.033  -5.714  -0.012  0.00  0.00    +0.356 C 
ATOM     13  O   UNL     1      -2.181  -6.586  -0.021  0.00  0.00    -0.246 OA
ATOM     14  O   UNL     1      -4.215  -6.016  -0.008  0.00  0.00    -0.246 OA
ENDBRANCH  11  12
ENDBRANCH  10  11
ENDBRANCH   2  10
TORSDOF 4
