REMARK  Name = ZINC31159148
REMARK  10 active torsions:
REMARK  status: ('A' for Active; 'I' for Inactive)
REMARK    1  A    between atoms: C_1  and  C_2
REMARK    2  A    between atoms: C_2  and  C_28
REMARK    3  A    between atoms: C_3  and  C_4
REMARK    4  A    between atoms: C_4  and  C_5
REMARK    5  A    between atoms: C_6  and  O_27
REMARK    6  A    between atoms: C_10  and  O_11
REMARK    7  A    between atoms: C_15  and  C_18
REMARK    8  A    between atoms: C_21  and  O_26
REMARK    9  A    between atoms: C_22  and  O_24
REMARK   10  A    between atoms: O_24  and  C_25
REMARK                            x       y       z     vdW  Elec       q    Type
REMARK                         _______ _______ _______ _____ _____    ______ ____
ROOT
ATOM      1  C   UNL     1       1.883   1.929   1.342  0.00  0.00    +0.040 A 
ATOM      2  C   UNL     1       1.526   2.532   2.542  0.00  0.00    +0.127 A 
ATOM      3  C   UNL     1       2.281   2.328   3.690  0.00  0.00    +0.092 A 
ATOM      4  C   UNL     1       3.409   1.528   3.648  0.00  0.00    +0.139 A 
ATOM      5  C   UNL     1       3.774   0.915   2.435  0.00  0.00    +0.101 A 
ATOM      6  C   UNL     1       3.005   1.123   1.278  0.00  0.00    +0.138 A 
ATOM      7  C   UNL     1       4.962   0.056   2.399  0.00  0.00    +0.174 C 
ATOM      8  O   UNL     1       5.200  -0.665   1.452  0.00  0.00    -0.292 OA
ATOM      9  C   UNL     1       5.879   0.114   3.608  0.00  0.00    +0.129 C 
ATOM     10  C   UNL     1       4.984   0.189   4.854  0.00  0.00    +0.211 C 
ATOM     11  O   UNL     1       4.150   1.345   4.766  0.00  0.00    -0.483 OA
ENDROOT
BRANCH  10  12
ATOM     12  C   UNL     1       5.845   0.283   6.087  0.00  0.00    -0.003 A 
ATOM     13  C   UNL     1       6.317   1.512   6.507  0.00  0.00    +0.011 A 
ATOM     14  C   UNL     1       7.102   1.604   7.641  0.00  0.00    +0.049 A 
ATOM     15  C   UNL     1       7.428   0.460   8.352  0.00  0.00    +0.158 A 
ATOM     16  C   UNL     1       6.958  -0.778   7.926  0.00  0.00    +0.162 A 
ATOM     17  C   UNL     1       6.166  -0.862   6.792  0.00  0.00    +0.056 A 
BRANCH  16  18
ATOM     18  O   UNL     1       7.275  -1.903   8.621  0.00  0.00    -0.491 OA
ATOM     19  C   UNL     1       6.757  -3.140   8.125  0.00  0.00    +0.277 C 
ENDBRANCH  16  18
BRANCH  15  20
ATOM     20  O   UNL     1       8.206   0.548   9.465  0.00  0.00    -0.503 OA
ATOM     21  H   UNL     1       8.463  -0.361  10.029  0.00  0.00    +0.292 HD
ENDBRANCH  15  20
ENDBRANCH  10  12
BRANCH   6  22
ATOM     22  O   UNL     1       3.362   0.540   0.107  0.00  0.00    -0.506 OA
ATOM     23  H   UNL     1       4.255  -0.100   0.061  0.00  0.00    +0.292 HD
ENDBRANCH   6  22
BRANCH   2  24
ATOM     24  O   UNL     1       0.424   3.322   2.595  0.00  0.00    -0.506 OA
ATOM     25  H   UNL     1       0.137   3.802   3.542  0.00  0.00    +0.292 HD
ENDBRANCH   2  24
BRANCH   1  26
ATOM     26  C   UNL     1       1.049   2.158   0.108  0.00  0.00    +0.069 C 
BRANCH  26  29
ATOM     27  C   UNL     1      -2.363   0.411  -0.044  0.00  0.00    +0.038 C 
ATOM     28  C   UNL     1      -1.276   1.452  -0.124  0.00  0.00    -0.079 C 
ATOM     29  C   UNL     1      -0.022   1.102   0.022  0.00  0.00    -0.023 C 
ATOM     30  C   UNL     1      -1.632   2.895  -0.373  0.00  0.00    +0.038 C 
ENDBRANCH  26  29
ENDBRANCH   1  26
TORSDOF 7
