REMARK  Name = ZINC39021693
REMARK  15 active torsions:
REMARK  status: ('A' for Active; 'I' for Inactive)
REMARK    1  A    between atoms: C_1  and  C_2
REMARK    2  A    between atoms: C_2  and  N_3
REMARK    3  A    between atoms: N_3  and  C_4
REMARK    4  A    between atoms: N_3  and  C_6
REMARK    5  A    between atoms: C_4  and  C_5
REMARK    6  A    between atoms: C_9  and  C_13
REMARK    7  A    between atoms: C_10  and  O_12
REMARK    8  A    between atoms: N_14  and  N_15
REMARK    9  A    between atoms: C_16  and  C_22
REMARK   10  A    between atoms: C_24  and  O_32
REMARK   11  A    between atoms: C_25  and  O_30
REMARK   12  A    between atoms: C_26  and  O_28
REMARK   13  A    between atoms: O_28  and  C_29
REMARK   14  A    between atoms: O_30  and  C_31
REMARK   15  A    between atoms: O_32  and  C_33
REMARK                            x       y       z     vdW  Elec       q    Type
REMARK                         _______ _______ _______ _____ _____    ______ ____
ROOT
ATOM      1  N   UNL     1       8.277  -2.098   1.947  0.00  0.00    -0.172 N 
ATOM      2  C   UNL     1       9.129  -2.700   2.989  0.00  0.00    +0.264 C 
ATOM      3  N   UNL     1      10.451  -2.796   2.351  0.00  0.00    -0.189 NA
ATOM      4  N   UNL     1      10.357  -2.348   1.205  0.00  0.00    -0.219 N 
ATOM      5  C   UNL     1       9.104  -1.922   0.893  0.00  0.00    +0.174 C 
ATOM      6  S   UNL     1       8.642  -1.256  -0.615  0.00  0.00    -0.015 S 
ATOM      7  H   UNL     1      11.104  -2.306   0.587  0.00  0.00    +0.176 HD
ENDROOT
BRANCH   2   8
ATOM      8  C   UNL     1       8.619  -4.067   3.365  0.00  0.00    +0.005 A 
ATOM      9  C   UNL     1       7.269  -4.350   3.270  0.00  0.00    +0.057 A 
ATOM     10  C   UNL     1       6.796  -5.606   3.615  0.00  0.00    +0.166 A 
ATOM     11  C   UNL     1       7.680  -6.583   4.057  0.00  0.00    +0.204 A 
ATOM     12  C   UNL     1       9.037  -6.295   4.152  0.00  0.00    +0.166 A 
ATOM     13  C   UNL     1       9.503  -5.037   3.799  0.00  0.00    +0.057 A 
BRANCH  12  14
ATOM     14  O   UNL     1       9.906  -7.247   4.584  0.00  0.00    -0.491 OA
ATOM     15  C   UNL     1      11.286  -6.881   4.655  0.00  0.00    +0.277 C 
ENDBRANCH  12  14
BRANCH  11  16
ATOM     16  O   UNL     1       7.220  -7.817   4.398  0.00  0.00    -0.488 OA
ATOM     17  C   UNL     1       7.166  -8.799   3.361  0.00  0.00    +0.277 C 
ENDBRANCH  11  16
BRANCH  10  18
ATOM     18  O   UNL     1       5.468  -5.883   3.522  0.00  0.00    -0.491 OA
ATOM     19  C   UNL     1       4.617  -4.831   3.060  0.00  0.00    +0.277 C 
ENDBRANCH  10  18
ENDBRANCH   2   8
BRANCH   1  21
ATOM     20  C   UNL     1       6.277  -1.373   0.974  0.00  0.00    +0.142 C 
ATOM     21  N   UNL     1       6.914  -1.785   2.029  0.00  0.00    -0.183 NA
BRANCH  20  25
ATOM     22  C   UNL     1       2.270  -0.005   1.310  0.00  0.00    +0.033 A 
ATOM     23  C   UNL     1       2.902  -0.012   0.070  0.00  0.00    +0.024 A 
ATOM     24  C   UNL     1       4.201  -0.455  -0.043  0.00  0.00    +0.015 A 
ATOM     25  C   UNL     1       4.888  -0.898   1.091  0.00  0.00    +0.036 A 
ATOM     26  C   UNL     1       4.250  -0.890   2.340  0.00  0.00    +0.127 A 
ATOM     27  C   UNL     1       2.946  -0.439   2.443  0.00  0.00    +0.069 A 
BRANCH  26  28
ATOM     28  O   UNL     1       4.911  -1.320   3.445  0.00  0.00    -0.506 OA
ATOM     29  H   UNL     1       5.395  -0.623   3.910  0.00  0.00    +0.292 HD
ENDBRANCH  26  28
BRANCH  22  30
ATOM     30  N   UNL     1       0.954   0.444   1.416  0.00  0.00    -0.330 N 
BRANCH  30  32
ATOM     31  C   UNL     1       0.466   2.404   0.037  0.00  0.00    +0.024 C 
ATOM     32  C   UNL     1       0.238   0.903   0.223  0.00  0.00    +0.102 C 
ENDBRANCH  30  32
BRANCH  30  33
ATOM     33  C   UNL     1       0.288   0.458   2.721  0.00  0.00    +0.102 C 
ATOM     34  C   UNL     1      -0.421  -0.879   2.946  0.00  0.00    +0.024 C 
ENDBRANCH  30  33
ENDBRANCH  22  30
ENDBRANCH  20  25
ENDBRANCH   1  21
TORSDOF 10
