REMARK  Name = ZINC64044141
REMARK  9 active torsions:
REMARK  status: ('A' for Active; 'I' for Inactive)
REMARK    1  A    between atoms: C_1  and  C_2
REMARK    2  A    between atoms: C_5  and  C_7
REMARK    3  A    between atoms: C_7  and  N_8
REMARK    4  A    between atoms: C_10  and  N_19
REMARK    5  A    between atoms: C_13  and  C_15
REMARK    6  A    between atoms: C_15  and  O_17
REMARK    7  A    between atoms: O_17  and  C_18
REMARK    8  A    between atoms: C_20  and  C_22
REMARK    9  A    between atoms: C_24  and  C_33
REMARK                            x       y       z     vdW  Elec       q    Type
REMARK                         _______ _______ _______ _____ _____    ______ ____
ROOT
ATOM      1  N   UNL     1      -1.099  -6.684  -3.413  0.00  0.00    -0.309 N 
ATOM      2  C   UNL     1      -1.947  -6.165  -4.322  0.00  0.00    +0.240 C 
ATOM      3  O   UNL     1      -1.695  -5.102  -4.849  0.00  0.00    -0.273 OA
ATOM      4  H   UNL     1      -1.332  -7.501  -2.944  0.00  0.00    +0.149 HD
ENDROOT
BRANCH   2   5
ATOM      5  C   UNL     1      -3.208  -6.906  -4.686  0.00  0.00    +0.198 C 
ATOM      6  C   UNL     1      -4.351  -6.453  -3.803  0.00  0.00    -0.000 C 
ATOM      7  C   UNL     1      -5.298  -5.921  -4.660  0.00  0.00    +0.006 A 
ATOM      8  C   UNL     1      -6.572  -5.342  -4.438  0.00  0.00    +0.030 A 
ATOM      9  C   UNL     1      -7.299  -4.894  -5.491  0.00  0.00    +0.042 A 
ATOM     10  C   UNL     1      -6.824  -4.989  -6.805  0.00  0.00    +0.022 A 
ATOM     11  C   UNL     1      -5.618  -5.530  -7.093  0.00  0.00    +0.027 A 
ATOM     12  C   UNL     1      -4.795  -6.022  -6.044  0.00  0.00    +0.044 A 
ATOM     13  N   UNL     1      -3.605  -6.583  -6.060  0.00  0.00    -0.370 N 
ATOM     14 CL   UNL     1      -8.858  -4.187  -5.203  0.00  0.00    -0.084 Cl
ATOM     15  H   UNL     1      -3.075  -6.756  -6.854  0.00  0.00    +0.161 HD
BRANCH   6  16
ATOM     16  C   UNL     1      -4.436  -6.557  -2.345  0.00  0.00    -0.019 A 
ATOM     17  C   UNL     1      -5.273  -5.693  -1.624  0.00  0.00    +0.008 A 
ATOM     18  C   UNL     1      -5.348  -5.799  -0.252  0.00  0.00    +0.001 A 
ATOM     19  C   UNL     1      -4.599  -6.755   0.414  0.00  0.00    +0.000 A 
ATOM     20  C   UNL     1      -3.770  -7.612  -0.289  0.00  0.00    +0.001 A 
ATOM     21  C   UNL     1      -3.686  -7.525  -1.661  0.00  0.00    +0.008 A 
ENDBRANCH   6  16
ENDBRANCH   2   5
BRANCH   1  24
ATOM     22  N   UNL     1       1.338  -4.777  -1.440  0.00  0.00    -0.283 NA
ATOM     23  C   UNL     1      -0.001  -4.922  -2.049  0.00  0.00    +0.108 C 
ATOM     24  C   UNL     1       0.174  -6.016  -3.132  0.00  0.00    +0.089 C 
ATOM     25  C   UNL     1       1.171  -6.984  -2.442  0.00  0.00    +0.054 C 
ATOM     26  C   UNL     1       2.087  -6.030  -1.647  0.00  0.00    +0.168 C 
BRANCH  26  27
ATOM     27  C   UNL     1       3.344  -5.753  -2.431  0.00  0.00    +0.324 C 
ATOM     28  O   UNL     1       3.598  -4.627  -2.786  0.00  0.00    -0.249 OA
BRANCH  27  29
ATOM     29  O   UNL     1       4.180  -6.758  -2.734  0.00  0.00    -0.467 OA
ATOM     30  C   UNL     1       5.353  -6.423  -3.480  0.00  0.00    +0.280 C 
ENDBRANCH  27  29
ENDBRANCH  26  27
BRANCH  22  31
ATOM     31  C   UNL     1       1.234  -4.455  -0.010  0.00  0.00    +0.127 C 
BRANCH  31  36
ATOM     32  C   UNL     1       0.123   1.069   0.577  0.00  0.00    +0.051 C 
ATOM     33  C   UNL     1       0.158  -0.431   0.432  0.00  0.00    -0.013 A 
ATOM     34  C   UNL     1      -0.874  -1.309   0.404  0.00  0.00    +0.011 A 
ATOM     35  C   UNL     1      -0.603  -2.657   0.260  0.00  0.00    +0.013 A 
ATOM     36  C   UNL     1       0.687  -3.061   0.152  0.00  0.00    +0.004 A 
ATOM     37  S   UNL     1       1.567  -1.510   0.246  0.00  0.00    -0.097 S 
ENDBRANCH  31  36
ENDBRANCH  22  31
ENDBRANCH   1  24
TORSDOF 7
