REMARK  Name = ZINC08762699
REMARK  9 active torsions:
REMARK  status: ('A' for Active; 'I' for Inactive)
REMARK    1  A    between atoms: C_1  and  C_2
REMARK    2  A    between atoms: C_5  and  O_44
REMARK    3  A    between atoms: C_18  and  C_43
REMARK    4  A    between atoms: C_23  and  C_24
REMARK    5  A    between atoms: C_24  and  C_26
REMARK    6  A    between atoms: C_26  and  C_27
REMARK    7  A    between atoms: C_34  and  O_35
REMARK    8  A    between atoms: O_35  and  C_36
REMARK    9  A    between atoms: C_42  and  N_84
REMARK                            x       y       z     vdW  Elec       q    Type
REMARK                         _______ _______ _______ _____ _____    ______ ____
ROOT
ATOM      1  C   UNL     1      -2.381   4.740   0.800  0.00  0.00    +0.012 C 
ATOM      2  C   UNL     1      -2.546   3.254   1.109  0.00  0.00    -0.026 C 
ATOM      3  C   UNL     1      -4.044   2.921   1.095  0.00  0.00    +0.010 C 
ATOM      4  C   UNL     1      -4.788   3.727   2.155  0.00  0.00    +0.032 C 
ATOM      5  C   UNL     1      -4.209   3.465   3.543  0.00  0.00    +0.115 C 
ATOM      6  C   UNL     1      -2.713   3.776   3.562  0.00  0.00    +0.035 C 
ATOM      7  C   UNL     1      -1.994   2.948   2.505  0.00  0.00    -0.002 C 
ATOM      8  C   UNL     1      -0.492   3.221   2.538  0.00  0.00    +0.004 C 
ATOM      9  C   UNL     1       0.215   2.280   1.564  0.00  0.00    +0.004 C 
ATOM     10  C   UNL     1      -0.319   2.459   0.144  0.00  0.00    -0.003 C 
ATOM     11  C   UNL     1      -1.828   2.380   0.092  0.00  0.00    -0.001 C 
ATOM     12  C   UNL     1      -2.344   2.549  -1.328  0.00  0.00    +0.005 C 
ATOM     13  C   UNL     1      -1.769   3.748  -2.050  0.00  0.00    +0.012 C 
ATOM     14  C   UNL     1      -0.280   3.917  -1.923  0.00  0.00    -0.001 C 
ATOM     15  C   UNL     1       0.260   3.716  -0.495  0.00  0.00    +0.006 C 
ATOM     16  C   UNL     1       1.751   3.390  -0.829  0.00  0.00    +0.032 C 
ATOM     17  C   UNL     1       1.671   2.672  -2.162  0.00  0.00    -0.019 C 
ATOM     18  C   UNL     1       0.521   2.977  -2.781  0.00  0.00    -0.003 C 
ATOM     19  C   UNL     1       0.066   5.351  -2.353  0.00  0.00    +0.016 C 
ENDROOT
BRANCH  18  20
ATOM     20  C   UNL     1       0.139   2.474  -4.102  0.00  0.00    +0.158 C 
ATOM     21  O   UNL     1      -0.869   2.884  -4.639  0.00  0.00    -0.292 OA
BRANCH  20  22
ATOM     22  C   UNL     1       0.996   1.446  -4.794  0.00  0.00    +0.069 C 
BRANCH  22  23
ATOM     23  C   UNL     1       0.413   1.142  -6.176  0.00  0.00    -0.027 C 
ATOM     24  C   UNL     1       0.264   2.428  -6.946  0.00  0.00    -0.012 A 
ATOM     25  C   UNL     1      -0.858   2.697  -7.702  0.00  0.00    -0.040 A 
ATOM     26  C   UNL     1      -0.952   3.890  -8.401  0.00  0.00    +0.053 A 
ATOM     27  C   UNL     1       0.072   4.821  -8.345  0.00  0.00    +0.170 A 
ATOM     28  C   UNL     1       1.203   4.555  -7.582  0.00  0.00    +0.208 A 
ATOM     29  C   UNL     1       1.296   3.359  -6.885  0.00  0.00    +0.167 A 
ATOM     30  O   UNL     1       2.059   5.614  -7.686  0.00  0.00    -0.449 OA
ATOM     31  C   UNL     1       1.622   6.349  -8.844  0.00  0.00    +0.467 C 
ATOM     32  O   UNL     1       0.217   6.046  -8.930  0.00  0.00    -0.452 OA
ATOM     33  C   UNL     1      -2.002   1.720  -7.795  0.00  0.00    +0.017 C 
ATOM     34  C   UNL     1      -1.548   0.338  -7.324  0.00  0.00    -0.074 C 
ATOM     35  C   UNL     1      -0.741  -0.818  -5.353  0.00  0.00    -0.095 C 
ATOM     36  N   UNL     1      -0.902   0.500  -6.006  0.00  0.00    +0.383 N 
ATOM     37  H   UNL     1      -1.492   1.097  -5.415  0.00  0.00    -0.081 HD
BRANCH  29  38
ATOM     38  O   UNL     1       2.400   3.095  -6.136  0.00  0.00    -0.491 OA
ATOM     39  C   UNL     1       3.525   2.534  -6.816  0.00  0.00    +0.277 C 
ENDBRANCH  29  38
ENDBRANCH  22  23
ENDBRANCH  20  22
ENDBRANCH  18  20
BRANCH   5  40
ATOM     40  O   UNL     1      -4.419   2.097   3.904  0.00  0.00    -0.392 OA
ATOM     41  H   UNL     1      -5.350   1.836   3.931  0.00  0.00    +0.210 HD
ENDBRANCH   5  40
TORSDOF 5
