REMARK  Name = ZINC22325112
REMARK  14 active torsions:
REMARK  status: ('A' for Active; 'I' for Inactive)
REMARK    1  A    between atoms: C_1  and  C_2
REMARK    2  A    between atoms: C_5  and  S_8
REMARK    3  A    between atoms: S_8  and  N_11
REMARK    4  A    between atoms: N_11  and  C_12
REMARK    5  A    between atoms: N_11  and  C_29
REMARK    6  A    between atoms: C_12  and  C_13
REMARK    7  A    between atoms: N_15  and  C_16
REMARK    8  A    between atoms: C_16  and  C_18
REMARK    9  A    between atoms: C_16  and  C_19
REMARK   10  A    between atoms: C_19  and  C_20
REMARK   11  A    between atoms: C_20  and  C_21
REMARK   12  A    between atoms: C_20  and  C_22
REMARK   13  A    between atoms: C_20  and  C_23
REMARK   14  A    between atoms: C_34  and  C_35
REMARK                            x       y       z     vdW  Elec       q    Type
REMARK                         _______ _______ _______ _____ _____    ______ ____
ROOT
ATOM      1  N   UNL     1       5.112   0.979  -3.978  0.00  0.00    -0.194 N 
ENDROOT
BRANCH   1   2
ATOM      2  C   UNL     1       5.819  -0.165  -3.598  0.00  0.00    +0.055 A 
ATOM      3  C   UNL     1       5.226  -1.416  -3.702  0.00  0.00    +0.026 A 
ATOM      4  C   UNL     1       5.927  -2.545  -3.325  0.00  0.00    +0.022 A 
ATOM      5  C   UNL     1       7.220  -2.430  -2.845  0.00  0.00    +0.041 A 
ATOM      6  C   UNL     1       7.814  -1.184  -2.741  0.00  0.00    +0.025 A 
ATOM      7  C   UNL     1       7.119  -0.053  -3.122  0.00  0.00    -0.026 A 
ATOM      8  C   UNL     1       7.769   1.303  -3.014  0.00  0.00    +0.046 C 
ATOM      9 CL   UNL     1       8.098  -3.851  -2.373  0.00  0.00    -0.084 Cl
ENDBRANCH   1   2
BRANCH   1  10
ATOM     10  S   UNL     1       5.243   1.558  -5.524  0.00  0.00    +0.075 S 
ATOM     11  O   UNL     1       5.528   0.440  -6.354  0.00  0.00    -0.150 OA
ATOM     12  O   UNL     1       4.118   2.399  -5.739  0.00  0.00    -0.150 OA
BRANCH  10  17
ATOM     13  C   UNL     1      10.114   5.115  -5.693  0.00  0.00    +0.044 C 
ATOM     14  C   UNL     1       8.897   4.226  -5.651  0.00  0.00    -0.050 A 
ATOM     15  C   UNL     1       8.992   2.906  -6.048  0.00  0.00    +0.005 A 
ATOM     16  C   UNL     1       7.876   2.091  -6.010  0.00  0.00    +0.029 A 
ATOM     17  C   UNL     1       6.665   2.597  -5.573  0.00  0.00    +0.109 A 
ATOM     18  C   UNL     1       6.570   3.919  -5.181  0.00  0.00    +0.029 A 
ATOM     19  C   UNL     1       7.687   4.732  -5.215  0.00  0.00    +0.005 A 
ENDBRANCH  10  17
ENDBRANCH   1  10
BRANCH   1  20
ATOM     20  C   UNL     1       4.255   1.667  -3.009  0.00  0.00    +0.227 C 
BRANCH  20  21
ATOM     21  C   UNL     1       2.898   1.011  -2.985  0.00  0.00    +0.232 C 
ATOM     22  O   UNL     1       2.670   0.064  -3.706  0.00  0.00    -0.274 OA
ATOM     23  N   UNL     1       1.939   1.478  -2.162  0.00  0.00    -0.311 N 
ATOM     24  H   UNL     1       2.147   2.338  -1.507  0.00  0.00    +0.149 HD
BRANCH  23  25
ATOM     25  C   UNL     1       0.620   0.842  -2.138  0.00  0.00    +0.071 C 
ATOM     26  C   UNL     1      -0.251   1.432  -3.249  0.00  0.00    +0.028 C 
BRANCH  25  27
ATOM     27  C   UNL     1      -0.043   1.092  -0.782  0.00  0.00    +0.033 C 
BRANCH  27  28
ATOM     28  C   UNL     1       0.751   0.378   0.314  0.00  0.00    -0.008 C 
ATOM     29  C   UNL     1       0.895  -1.102  -0.044  0.00  0.00    +0.016 C 
ATOM     30  C   UNL     1       2.138   1.012   0.433  0.00  0.00    +0.016 C 
BRANCH  28  31
ATOM     31  C   UNL     1       0.024   0.510   1.627  0.00  0.00    -0.042 A 
ATOM     32  C   UNL     1      -1.170   1.204   1.690  0.00  0.00    +0.004 A 
ATOM     33  C   UNL     1      -1.840   1.319   2.894  0.00  0.00    +0.000 A 
ATOM     34  C   UNL     1      -1.310   0.750   4.037  0.00  0.00    +0.000 A 
ATOM     35  C   UNL     1      -0.113   0.061   3.975  0.00  0.00    +0.000 A 
ATOM     36  C   UNL     1       0.553  -0.059   2.770  0.00  0.00    +0.004 A 
ENDBRANCH  28  31
ENDBRANCH  27  28
ENDBRANCH  25  27
ENDBRANCH  23  25
ENDBRANCH  20  21
ENDBRANCH   1  20
TORSDOF 9
