REMARK  Name = ZINC40984574
REMARK  10 active torsions:
REMARK  status: ('A' for Active; 'I' for Inactive)
REMARK    1  A    between atoms: C_1  and  C_2
REMARK    2  A    between atoms: C_3  and  C_15
REMARK    3  A    between atoms: C_5  and  C_7
REMARK    4  A    between atoms: C_12  and  O_13
REMARK    5  A    between atoms: O_13  and  C_14
REMARK    6  A    between atoms: C_15  and  N_16
REMARK    7  A    between atoms: C_19  and  C_22
REMARK    8  A    between atoms: N_24  and  C_25
REMARK    9  A    between atoms: C_25  and  C_27
REMARK   10  A    between atoms: C_25  and  C_28
REMARK                            x       y       z     vdW  Elec       q    Type
REMARK                         _______ _______ _______ _____ _____    ______ ____
ROOT
ATOM      1  N   UNL     1      -2.989  -0.231  -1.370  0.00  0.00    +0.383 N 
ATOM      2  C   UNL     1      -2.973  -1.539  -2.035  0.00  0.00    -0.078 C 
ATOM      3  C   UNL     1      -3.390  -1.376  -3.498  0.00  0.00    -0.006 C 
ATOM      4  C   UNL     1      -4.803  -0.788  -3.558  0.00  0.00    +0.071 C 
ATOM      5  C   UNL     1      -4.824   0.541  -2.797  0.00  0.00    -0.006 C 
ATOM      6  C   UNL     1      -4.354   0.307  -1.360  0.00  0.00    -0.078 C 
ATOM      7  H   UNL     1      -2.381   0.404  -1.866  0.00  0.00    -0.081 HD
ENDROOT
BRANCH   4   8
ATOM      8  C   UNL     1      -5.190  -0.551  -4.995  0.00  0.00    +0.216 C 
ATOM      9  O   UNL     1      -4.414  -0.827  -5.885  0.00  0.00    -0.276 OA
ATOM     10  N   UNL     1      -6.399  -0.035  -5.291  0.00  0.00    -0.309 N 
ATOM     11  H   UNL     1      -7.020   0.185  -4.579  0.00  0.00    +0.149 HD
BRANCH  10  12
ATOM     12  C   UNL     1      -6.776   0.195  -6.689  0.00  0.00    +0.100 C 
ATOM     13  C   UNL     1      -6.245   1.556  -7.142  0.00  0.00    +0.033 C 
BRANCH  12  14
ATOM     14  C   UNL     1      -8.277   0.173  -6.814  0.00  0.00    -0.027 A 
ATOM     15  C   UNL     1      -9.060   0.769  -5.844  0.00  0.00    +0.008 A 
ATOM     16  C   UNL     1     -10.437   0.750  -5.958  0.00  0.00    +0.038 A 
ATOM     17  C   UNL     1     -11.033   0.134  -7.046  0.00  0.00    +0.123 A 
ATOM     18  C   UNL     1     -10.247  -0.463  -8.018  0.00  0.00    +0.038 A 
ATOM     19  C   UNL     1      -8.870  -0.438  -7.903  0.00  0.00    +0.008 A 
ATOM     20  F   UNL     1     -12.379   0.114  -7.159  0.00  0.00    -0.205 F 
ENDBRANCH  12  14
ENDBRANCH  10  12
ENDBRANCH   4   8
BRANCH   1  21
ATOM     21  C   UNL     1      -2.513  -0.381   0.012  0.00  0.00    -0.019 C 
BRANCH  21  24
ATOM     22  C   UNL     1      -0.018   1.503   0.010  0.00  0.00    +0.088 C 
ATOM     23  C   UNL     1       0.002  -0.004   0.002  0.00  0.00    +0.124 A 
ATOM     24  C   UNL     1      -1.070  -0.816   0.003  0.00  0.00    +0.066 A 
ATOM     25  N   UNL     1      -0.627  -2.083  -0.006  0.00  0.00    -0.216 NA
ATOM     26  C   UNL     1       0.686  -2.068  -0.012  0.00  0.00    +0.231 A 
ATOM     27  O   UNL     1       1.099  -0.788  -0.013  0.00  0.00    -0.440 OA
BRANCH  26  28
ATOM     28  C   UNL     1       1.562  -3.257  -0.023  0.00  0.00    +0.078 A 
ATOM     29  C   UNL     1       1.006  -4.537  -0.033  0.00  0.00    +0.017 A 
ATOM     30  C   UNL     1       1.830  -5.644  -0.043  0.00  0.00    +0.001 A 
ATOM     31  C   UNL     1       3.206  -5.490  -0.043  0.00  0.00    +0.004 A 
ATOM     32  C   UNL     1       3.767  -4.228  -0.033  0.00  0.00    +0.046 A 
ATOM     33  C   UNL     1       2.954  -3.106  -0.028  0.00  0.00    +0.132 A 
BRANCH  33  34
ATOM     34  O   UNL     1       3.505  -1.865  -0.024  0.00  0.00    -0.494 OA
ATOM     35  C   UNL     1       4.932  -1.788  -0.030  0.00  0.00    +0.277 C 
ENDBRANCH  33  34
ENDBRANCH  26  28
ENDBRANCH  21  24
ENDBRANCH   1  21
TORSDOF 7
