REMARK  Name = ZINC36670069
REMARK  9 active torsions:
REMARK  status: ('A' for Active; 'I' for Inactive)
REMARK    1  A    between atoms: C_1  and  C_2
REMARK    2  A    between atoms: C_5  and  N_9
REMARK    3  A    between atoms: C_6  and  C_8
REMARK    4  A    between atoms: C_21  and  C_23
REMARK    5  A    between atoms: C_23  and  C_24
REMARK    6  A    between atoms: N_26  and  C_27
REMARK    7  A    between atoms: C_30  and  C_37
REMARK    8  A    between atoms: C_33  and  C_35
REMARK    9  A    between atoms: C_33  and  C_36
REMARK                            x       y       z     vdW  Elec       q    Type
REMARK                         _______ _______ _______ _____ _____    ______ ____
ROOT
ATOM      1  N   UNL     1      -0.383  -4.238  -0.014  0.00  0.00    -0.214 N 
ATOM      2  C   UNL     1      -0.550  -5.258  -0.901  0.00  0.00    +0.171 A 
ATOM      3  C   UNL     1      -0.307  -6.450  -0.198  0.00  0.00    +0.103 A 
ATOM      4  C   UNL     1       0.015  -6.088   1.128  0.00  0.00    +0.150 A 
ATOM      5  N   UNL     1      -0.027  -4.788   1.223  0.00  0.00    -0.172 NA
ATOM      6  C   UNL     1      -0.422  -7.681  -0.881  0.00  0.00    +0.266 A 
ATOM      7  O   UNL     1      -0.201  -8.727  -0.298  0.00  0.00    -0.267 OA
ATOM      8  N   UNL     1      -0.783  -7.693  -2.202  0.00  0.00    -0.283 N 
ATOM      9  C   UNL     1      -0.966  -6.482  -2.817  0.00  0.00    +0.174 A 
ATOM     10  N   UNL     1      -0.869  -5.330  -2.198  0.00  0.00    -0.203 NA
ATOM     11  S   UNL     1      -1.319  -6.842  -4.528  0.00  0.00    -0.085 S 
ATOM     12  C   UNL     1      -0.857  -8.625  -4.521  0.00  0.00    +0.103 C 
ATOM     13  C   UNL     1      -0.998  -8.902  -3.006  0.00  0.00    +0.112 C 
ENDROOT
BRANCH   1  18
ATOM     14  C   UNL     1      -0.998   1.288  -1.147  0.00  0.00    +0.044 C 
ATOM     15  C   UNL     1      -0.835  -0.180  -0.846  0.00  0.00    -0.050 A 
ATOM     16  C   UNL     1      -0.073  -0.975  -1.683  0.00  0.00    +0.005 A 
ATOM     17  C   UNL     1       0.079  -2.320  -1.410  0.00  0.00    +0.028 A 
ATOM     18  C   UNL     1      -0.534  -2.874  -0.294  0.00  0.00    +0.071 A 
ATOM     19  C   UNL     1      -1.298  -2.073   0.544  0.00  0.00    -0.025 A 
ATOM     20  C   UNL     1      -1.442  -0.727   0.269  0.00  0.00    +0.008 A 
ATOM     21  C   UNL     1      -1.965  -2.670   1.757  0.00  0.00    +0.046 C 
ENDBRANCH   1  18
BRANCH  13  22
ATOM     22  C   UNL     1      -2.403  -9.441  -2.728  0.00  0.00    +0.121 C 
BRANCH  22  23
ATOM     23  C   UNL     1      -2.581 -10.764  -3.428  0.00  0.00    +0.215 C 
ATOM     24  O   UNL     1      -1.640 -11.285  -3.988  0.00  0.00    -0.276 OA
ATOM     25  N   UNL     1      -3.787 -11.367  -3.432  0.00  0.00    -0.312 N 
ATOM     26  H   UNL     1      -4.539 -10.949  -2.985  0.00  0.00    +0.149 HD
BRANCH  25  27
ATOM     27  C   UNL     1      -3.960 -12.652  -4.113  0.00  0.00    +0.074 C 
ATOM     28  C   UNL     1      -5.300 -13.268  -3.706  0.00  0.00    +0.025 C 
ATOM     29  C   UNL     1      -6.437 -12.324  -4.102  0.00  0.00    -0.012 C 
ATOM     30  C   UNL     1      -6.415 -12.107  -5.616  0.00  0.00    +0.009 C 
ATOM     31  C   UNL     1      -5.075 -11.491  -6.024  0.00  0.00    -0.033 C 
ATOM     32  C   UNL     1      -3.938 -12.435  -5.627  0.00  0.00    +0.028 C 
ATOM     33  C   UNL     1      -4.894 -10.148  -5.313  0.00  0.00    +0.011 C 
ATOM     34  C   UNL     1      -5.053 -11.273  -7.538  0.00  0.00    +0.011 C 
ATOM     35  C   UNL     1      -7.777 -12.940  -3.695  0.00  0.00    +0.007 C 
ENDBRANCH  25  27
ENDBRANCH  22  23
ENDBRANCH  13  22
TORSDOF 4
