REMARK  Name = ZINC36545072
REMARK  11 active torsions:
REMARK  status: ('A' for Active; 'I' for Inactive)
REMARK    1  A    between atoms: C_1  and  C_2
REMARK    2  A    between atoms: C_3  and  C_4
REMARK    3  A    between atoms: C_4  and  C_6
REMARK    4  A    between atoms: C_4  and  N_20
REMARK    5  A    between atoms: N_8  and  C_9
REMARK    6  A    between atoms: C_9  and  S_10
REMARK    7  A    between atoms: S_10  and  C_13
REMARK    8  A    between atoms: C_16  and  C_19
REMARK    9  A    between atoms: N_20  and  C_21
REMARK   10  A    between atoms: C_28  and  C_30
REMARK   11  A    between atoms: C_33  and  O_36
REMARK                            x       y       z     vdW  Elec       q    Type
REMARK                         _______ _______ _______ _____ _____    ______ ____
ROOT
ATOM      1  C   UNL     1       1.655   0.179  -2.485  0.00  0.00    +0.190 C 
ENDROOT
BRANCH   1   2
ATOM      2  C   UNL     1       2.997   0.044  -3.159  0.00  0.00    +0.239 C 
ATOM      3  O   UNL     1       3.790   0.961  -3.119  0.00  0.00    -0.273 OA
ATOM      4  N   UNL     1       3.315  -1.095  -3.805  0.00  0.00    -0.294 N 
ATOM      5  H   UNL     1       2.681  -1.828  -3.836  0.00  0.00    +0.150 HD
BRANCH   4   6
ATOM      6  C   UNL     1       4.619  -1.226  -4.459  0.00  0.00    +0.278 C 
BRANCH   6   7
ATOM      7  S   UNL     1       5.780  -2.050  -3.335  0.00  0.00    +0.013 S 
ATOM      8  O   UNL     1       7.033  -2.241  -3.979  0.00  0.00    -0.168 OA
ATOM      9  O   UNL     1       5.712  -1.461  -2.043  0.00  0.00    -0.168 OA
BRANCH   7  10
ATOM     10  C   UNL     1       5.131  -3.674  -3.123  0.00  0.00    +0.090 A 
ATOM     11  C   UNL     1       4.231  -3.931  -2.106  0.00  0.00    +0.027 A 
ATOM     12  C   UNL     1       3.721  -5.205  -1.940  0.00  0.00    +0.005 A 
ATOM     13  C   UNL     1       4.111  -6.222  -2.792  0.00  0.00    -0.050 A 
ATOM     14  C   UNL     1       5.010  -5.964  -3.810  0.00  0.00    +0.005 A 
ATOM     15  C   UNL     1       5.516  -4.689  -3.979  0.00  0.00    +0.027 A 
ATOM     16  C   UNL     1       3.556  -7.611  -2.611  0.00  0.00    +0.044 C 
ENDBRANCH   7  10
ENDBRANCH   6   7
ENDBRANCH   4   6
ENDBRANCH   1   2
BRANCH   1  19
ATOM     17  C   UNL     1      -0.308  -1.825  -2.762  0.00  0.00    +0.035 C 
ATOM     18  C   UNL     1       0.564  -1.786  -1.533  0.00  0.00    -0.032 C 
ATOM     19  C   UNL     1       1.513  -0.889  -1.432  0.00  0.00    +0.000 C 
ENDBRANCH   1  19
BRANCH   1  20
ATOM     20  N   UNL     1       1.554   1.500  -1.859  0.00  0.00    -0.251 N 
ATOM     21  C   UNL     1       0.625   2.378  -2.285  0.00  0.00    +0.252 C 
ATOM     22  O   UNL     1      -0.192   2.041  -3.120  0.00  0.00    -0.270 OA
BRANCH  20  23
ATOM     23  C   UNL     1       2.422   1.849  -0.819  0.00  0.00    +0.056 A 
ATOM     24  C   UNL     1       2.294   1.247   0.426  0.00  0.00    +0.025 A 
ATOM     25  C   UNL     1       3.152   1.594   1.451  0.00  0.00    +0.002 A 
ATOM     26  C   UNL     1       4.138   2.540   1.239  0.00  0.00    +0.002 A 
ATOM     27  C   UNL     1       4.269   3.142   0.001  0.00  0.00    +0.022 A 
ATOM     28  C   UNL     1       3.418   2.795  -1.030  0.00  0.00    +0.062 A 
ATOM     29 CL   UNL     1       3.587   3.545  -2.587  0.00  0.00    -0.082 Cl
ENDBRANCH  20  23
BRANCH  21  30
ATOM     30  C   UNL     1       0.598   3.748  -1.737  0.00  0.00    +0.037 A 
ATOM     31  C   UNL     1       0.213   4.819  -2.548  0.00  0.00    +0.016 A 
ATOM     32  C   UNL     1       0.189   6.096  -2.033  0.00  0.00    +0.046 A 
ATOM     33  C   UNL     1       0.548   6.320  -0.708  0.00  0.00    +0.117 A 
ATOM     34  C   UNL     1       0.932   5.257   0.101  0.00  0.00    +0.046 A 
ATOM     35  C   UNL     1       0.953   3.977  -0.405  0.00  0.00    +0.016 A 
BRANCH  33  36
ATOM     36  O   UNL     1       0.523   7.580  -0.204  0.00  0.00    -0.507 OA
ATOM     37  H   UNL     1      -0.324   7.830   0.189  0.00  0.00    +0.292 HD
ENDBRANCH  33  36
ENDBRANCH  21  30
ENDBRANCH   1  20
TORSDOF 9
