REMARK  Name = ZINC09502477
REMARK  10 active torsions:
REMARK  status: ('A' for Active; 'I' for Inactive)
REMARK    1  A    between atoms: C_1  and  C_2
REMARK    2  A    between atoms: C_3  and  C_34
REMARK    3  A    between atoms: C_11  and  C_13
REMARK    4  A    between atoms: C_13  and  N_64
REMARK    5  A    between atoms: C_19  and  C_21
REMARK    6  A    between atoms: C_24  and  C_33
REMARK    7  A    between atoms: N_26  and  C_29
REMARK    8  A    between atoms: C_29  and  C_30
REMARK    9  A    between atoms: C_30  and  C_31
REMARK   10  A    between atoms: C_30  and  C_32
REMARK                            x       y       z     vdW  Elec       q    Type
REMARK                         _______ _______ _______ _____ _____    ______ ____
ROOT
ATOM      1  C   UNL     1       3.688   1.766   8.709  0.00  0.00    -0.059 C 
ATOM      2  C   UNL     1       4.035   2.207   7.283  0.00  0.00    +0.089 C 
ATOM      3  N   UNL     1       2.831   2.079   6.447  0.00  0.00    -0.301 N 
ATOM      4  C   UNL     1       1.586   2.701   6.922  0.00  0.00    +0.089 C 
ATOM      5  C   UNL     1       1.333   2.236   8.365  0.00  0.00    -0.059 C 
ATOM      6  C   UNL     1       2.870   1.413   5.276  0.00  0.00    +0.253 C 
ATOM      7  O   UNL     1       3.864   0.783   4.967  0.00  0.00    -0.269 OA
ATOM      8  N   UNL     1       2.527   2.553   9.179  0.00  0.00    +0.386 N 
ATOM      9  H   UNL     1       2.740   3.552   9.082  0.00  0.00    -0.081 HD
ENDROOT
BRANCH   6  10
ATOM     10  C   UNL     1       1.714   1.449   4.375  0.00  0.00    +0.077 A 
ATOM     11  C   UNL     1       1.492   0.719   3.245  0.00  0.00    +0.032 A 
ATOM     12  C   UNL     1       0.307   0.907   2.518  0.00  0.00    +0.031 A 
ATOM     13  C   UNL     1      -0.335   0.404   1.339  0.00  0.00    +0.068 A 
ATOM     14  N   UNL     1      -1.472   1.010   1.183  0.00  0.00    -0.175 NA
ATOM     15  N   UNL     1      -1.660   1.925   2.227  0.00  0.00    -0.257 N 
ATOM     16  C   UNL     1      -0.582   1.864   3.031  0.00  0.00    +0.107 A 
ATOM     17  S   UNL     1       0.247   2.459   4.482  0.00  0.00    -0.064 S 
ATOM     18  C   UNL     1       0.225  -0.655   0.424  0.00  0.00    +0.068 C 
BRANCH  15  19
ATOM     19  C   UNL     1      -2.822   2.799   2.408  0.00  0.00    +0.147 C 
BRANCH  19  20
ATOM     20  C   UNL     1      -2.580   4.125   1.684  0.00  0.00    +0.004 C 
ATOM     21  C   UNL     1      -2.494   3.875   0.177  0.00  0.00    +0.009 C 
ATOM     22  C   UNL     1      -3.737   5.083   1.976  0.00  0.00    +0.009 C 
ENDBRANCH  19  20
ENDBRANCH  15  19
ENDBRANCH   6  10
BRANCH   8  23
ATOM     23  C   UNL     1       2.260   2.255  10.602  0.00  0.00    -0.003 C 
BRANCH  23  34
ATOM     24  C   UNL     1       6.898   4.202  15.034  0.00  0.00    +0.045 C 
ATOM     25  C   UNL     1       6.658   4.345  13.553  0.00  0.00    -0.026 A 
ATOM     26  C   UNL     1       7.527   5.021  12.786  0.00  0.00    -0.008 A 
ATOM     27  S   UNL     1       6.815   4.907  11.155  0.00  0.00    -0.073 S 
ATOM     28  C   UNL     1       5.371   3.955  11.552  0.00  0.00    +0.116 A 
ATOM     29  C   UNL     1       5.484   3.753  12.940  0.00  0.00    +0.075 A 
ATOM     30  C   UNL     1       4.427   2.995  13.542  0.00  0.00    +0.260 A 
ATOM     31  O   UNL     1       4.434   2.766  14.740  0.00  0.00    -0.267 OA
ATOM     32  N   UNL     1       3.423   2.545  12.767  0.00  0.00    -0.312 N 
ATOM     33  H   UNL     1       2.703   2.035  13.169  0.00  0.00    +0.170 HD
ATOM     34  C   UNL     1       3.401   2.785  11.430  0.00  0.00    +0.094 A 
ATOM     35  N   UNL     1       4.349   3.472  10.851  0.00  0.00    -0.229 NA
ATOM     36  C   UNL     1       8.800   5.711  13.203  0.00  0.00    +0.052 C 
ENDBRANCH  23  34
ENDBRANCH   8  23
TORSDOF 5
