REMARK  Name = ZINC31041185
REMARK  10 active torsions:
REMARK  status: ('A' for Active; 'I' for Inactive)
REMARK    1  A    between atoms: C_1  and  C_2
REMARK    2  A    between atoms: C_2  and  C_4
REMARK    3  A    between atoms: C_2  and  N_15
REMARK    4  A    between atoms: N_6  and  C_7
REMARK    5  A    between atoms: N_15  and  C_16
REMARK    6  A    between atoms: N_15  and  C_17
REMARK    7  A    between atoms: C_17  and  C_18
REMARK    8  A    between atoms: N_20  and  C_21
REMARK    9  A    between atoms: C_26  and  S_27
REMARK   10  A    between atoms: S_27  and  C_28
REMARK                            x       y       z     vdW  Elec       q    Type
REMARK                         _______ _______ _______ _____ _____    ______ ____
ROOT
ATOM      1  N   UNL     1      -0.798  -2.430   0.072  0.00  0.00    +0.391 N 
ATOM      2  C   UNL     1      -0.023  -2.816   1.259  0.00  0.00    -0.094 C 
ATOM      3  H   UNL     1      -0.179  -2.629  -0.815  0.00  0.00    -0.080 HD
ENDROOT
BRANCH   1   5
ATOM      4  C   UNL     1      -1.801  -0.642   1.410  0.00  0.00    -0.004 C 
ATOM      5  C   UNL     1      -1.112  -0.995   0.091  0.00  0.00    +0.017 C 
BRANCH   5   6
ATOM      6  C   UNL     1       0.162  -0.201  -0.039  0.00  0.00    +0.203 C 
ATOM      7  O   UNL     1       1.227  -0.774  -0.138  0.00  0.00    -0.277 OA
ATOM      8  N   UNL     1       0.118   1.146  -0.045  0.00  0.00    -0.287 N 
ATOM      9  H   UNL     1      -0.852   1.665  -0.031  0.00  0.00    +0.155 HD
BRANCH   8  10
ATOM     10  C   UNL     1       1.307   1.885  -0.070  0.00  0.00    +0.035 A 
ATOM     11  C   UNL     1       1.389   3.094   0.609  0.00  0.00    +0.025 A 
ATOM     12  C   UNL     1       2.564   3.819   0.588  0.00  0.00    +0.023 A 
ATOM     13  C   UNL     1       3.657   3.347  -0.118  0.00  0.00    +0.059 A 
ATOM     14  C   UNL     1       3.577   2.145  -0.800  0.00  0.00    +0.061 A 
ATOM     15  C   UNL     1       2.404   1.413  -0.777  0.00  0.00    +0.044 A 
ATOM     16 CL   UNL     1       4.950   1.556  -1.684  0.00  0.00    -0.082 Cl
ATOM     17 CL   UNL     1       5.131   4.264  -0.148  0.00  0.00    -0.082 Cl
ENDBRANCH   8  10
ENDBRANCH   5   6
ENDBRANCH   1   5
BRANCH   1  18
ATOM     18  C   UNL     1      -2.022  -3.235  -0.042  0.00  0.00    +0.020 C 
BRANCH  18  19
ATOM     19  C   UNL     1      -1.654  -4.673  -0.305  0.00  0.00    +0.201 C 
ATOM     20  O   UNL     1      -0.488  -4.995  -0.389  0.00  0.00    -0.278 OA
ATOM     21  N   UNL     1      -2.622  -5.601  -0.447  0.00  0.00    -0.286 N 
ATOM     22  H   UNL     1      -3.679  -5.297  -0.446  0.00  0.00    +0.155 HD
BRANCH  21  23
ATOM     23  C   UNL     1      -2.281  -6.952  -0.596  0.00  0.00    +0.047 A 
ATOM     24  C   UNL     1      -1.133  -7.307  -1.289  0.00  0.00    +0.024 A 
ATOM     25  C   UNL     1      -0.796  -8.640  -1.430  0.00  0.00    +0.002 A 
ATOM     26  C   UNL     1      -1.605  -9.624  -0.891  0.00  0.00    +0.001 A 
ATOM     27  C   UNL     1      -2.753  -9.280  -0.204  0.00  0.00    +0.016 A 
ATOM     28  C   UNL     1      -3.097  -7.944  -0.052  0.00  0.00    +0.029 A 
BRANCH  28  29
ATOM     29  S   UNL     1      -4.561  -7.502   0.823  0.00  0.00    -0.127 S 
ATOM     30  C   UNL     1      -5.269  -9.094   1.326  0.00  0.00    +0.090 C 
ENDBRANCH  28  29
ENDBRANCH  21  23
ENDBRANCH  18  19
ENDBRANCH   1  18
TORSDOF 7
