REMARK  Name = ZINC44884215
REMARK  4 active torsions:
REMARK  status: ('A' for Active; 'I' for Inactive)
REMARK    1  A    between atoms: C_1  and  C_2
REMARK    2  A    between atoms: C_2  and  N_9
REMARK    3  A    between atoms: C_10  and  C_12
REMARK    4  A    between atoms: C_14  and  N_18
REMARK                            x       y       z     vdW  Elec       q    Type
REMARK                         _______ _______ _______ _____ _____    ______ ____
ROOT
ATOM      1  N   UNL     1       0.731  -0.456  -1.186  0.00  0.00    -0.303 N 
ATOM      2  C   UNL     1       0.300  -0.105  -2.414  0.00  0.00    +0.261 C 
ATOM      3  O   UNL     1      -0.694   0.586  -2.536  0.00  0.00    -0.269 OA
ATOM      4  H   UNL     1       1.523  -1.007  -1.089  0.00  0.00    +0.150 HD
ENDROOT
BRANCH   1   6
ATOM      5  C   UNL     1      -0.019   1.526   0.010  0.00  0.00    +0.033 C 
ATOM      6  C   UNL     1       0.002  -0.004   0.002  0.00  0.00    +0.053 C 
ATOM      7  C   UNL     1      -1.436  -0.513  -0.087  0.00  0.00    +0.049 C 
ATOM      8  C   UNL     1      -1.556  -1.909   0.586  0.00  0.00    +0.168 C 
ATOM      9  S   UNL     1      -0.454  -1.644   2.043  0.00  0.00    -0.029 S 
ATOM     10  O   UNL     1      -1.172  -0.949   3.053  0.00  0.00    -0.174 OA
ATOM     11  O   UNL     1       0.202  -2.864   2.361  0.00  0.00    -0.174 OA
ATOM     12  C   UNL     1       0.751  -0.495   1.257  0.00  0.00    +0.191 C 
ENDBRANCH   1   6
BRANCH   2  13
ATOM     13  C   UNL     1       1.030  -0.557  -3.603  0.00  0.00    +0.104 A 
ATOM     14  C   UNL     1       0.707  -0.271  -4.914  0.00  0.00    +0.055 A 
ATOM     15  C   UNL     1       1.665  -0.900  -5.721  0.00  0.00    +0.043 A 
ATOM     16  C   UNL     1       2.538  -1.545  -4.904  0.00  0.00    +0.106 A 
ATOM     17  N   UNL     1       2.162  -1.338  -3.613  0.00  0.00    -0.355 N 
ATOM     18  H   UNL     1       2.616  -1.686  -2.830  0.00  0.00    +0.166 HD
BRANCH  15  19
ATOM     19  N   UNL     1       1.715  -0.868  -7.128  0.00  0.00    -0.357 N 
ATOM     20  H   UNL     1       1.042  -0.377  -7.625  0.00  0.00    +0.142 HD
ATOM     21  H   UNL     1       2.421  -1.337  -7.599  0.00  0.00    +0.142 HD
ENDBRANCH  15  19
ENDBRANCH   2  13
TORSDOF 3
