REMARK  Name = ZINC25680174
REMARK  4 active torsions:
REMARK  status: ('A' for Active; 'I' for Inactive)
REMARK    1  A    between atoms: C_3  and  O_26
REMARK    2  A    between atoms: C_6  and  C_7
REMARK    3  A    between atoms: N_10  and  C_13
REMARK    4  A    between atoms: C_13  and  C_14
REMARK                            x       y       z     vdW  Elec       q    Type
REMARK                         _______ _______ _______ _____ _____    ______ ____
ROOT
ATOM      1  C   UNL     1       1.168   3.564   0.010  0.00  0.00    -0.048 C 
ATOM      2  C   UNL     1       0.679   4.185   1.061  0.00  0.00    -0.041 C 
ATOM      3  C   UNL     1       0.612   5.681   1.172  0.00  0.00    -0.050 C 
ATOM      4  N   UNL     1       1.496   6.305   0.179  0.00  0.00    +0.386 N 
ATOM      5  C   UNL     1       1.231   5.752  -1.159  0.00  0.00    -0.073 C 
ATOM      6  C   UNL     1       1.707   4.297  -1.187  0.00  0.00    +0.017 C 
ATOM      7  H   UNL     1       2.537   6.078   0.452  0.00  0.00    -0.081 HD
ENDROOT
BRANCH   1  13
ATOM      8  C   UNL     1      -0.017   1.374   0.010  0.00  0.00    +0.012 A 
ATOM      9  C   UNL     1       0.002  -0.004   0.002  0.00  0.00    +0.046 A 
ATOM     10  C   UNL     1       1.213  -0.684  -0.013  0.00  0.00    +0.117 A 
ATOM     11  C   UNL     1       2.409   0.021  -0.021  0.00  0.00    +0.046 A 
ATOM     12  C   UNL     1       2.399   1.400  -0.013  0.00  0.00    +0.012 A 
ATOM     13  C   UNL     1       1.184   2.087   0.002  0.00  0.00    -0.022 A 
BRANCH  10  14
ATOM     14  O   UNL     1       1.227  -2.042  -0.020  0.00  0.00    -0.507 OA
ATOM     15  H   UNL     1       2.186  -2.582  -0.032  0.00  0.00    +0.292 HD
ENDBRANCH  10  14
ENDBRANCH   1  13
BRANCH   4  16
ATOM     16  C   UNL     1       1.345   7.766   0.185  0.00  0.00    -0.022 C 
BRANCH  16  17
ATOM     17  C   UNL     1       1.857   8.320   1.489  0.00  0.00    +0.032 A 
ATOM     18  C   UNL     1       2.965   9.145   1.501  0.00  0.00    +0.092 A 
ATOM     19  C   UNL     1       3.421   9.647   2.725  0.00  0.00    +0.259 A 
ATOM     20  O   UNL     1       4.397  10.379   2.770  0.00  0.00    -0.267 OA
ATOM     21  N   UNL     1       2.766   9.309   3.856  0.00  0.00    -0.267 N 
ATOM     22  C   UNL     1       3.199   9.789   5.055  0.00  0.00    +0.116 A 
ATOM     23  C   UNL     1       2.559   9.464   6.202  0.00  0.00    +0.058 A 
ATOM     24  C   UNL     1       1.435   8.624   6.168  0.00  0.00    +0.025 A 
ATOM     25  C   UNL     1       0.995   8.139   4.973  0.00  0.00    +0.048 A 
ATOM     26  C   UNL     1       1.674   8.488   3.791  0.00  0.00    +0.140 A 
ATOM     27  N   UNL     1       1.242   8.019   2.622  0.00  0.00    -0.236 NA
ATOM     28 CL   UNL     1       3.128  10.087   7.719  0.00  0.00    -0.082 Cl
ENDBRANCH  16  17
ENDBRANCH   4  16
TORSDOF 4
