REMARK  Name = ZINC38893962
REMARK  6 active torsions:
REMARK  status: ('A' for Active; 'I' for Inactive)
REMARK    1  A    between atoms: C_6  and  C_7
REMARK    2  A    between atoms: C_9  and  C_12
REMARK    3  A    between atoms: C_12  and  N_13
REMARK    4  A    between atoms: C_17  and  C_20
REMARK    5  A    between atoms: N_25  and  C_28
REMARK    6  A    between atoms: C_28  and  C_29
REMARK                            x       y       z     vdW  Elec       q    Type
REMARK                         _______ _______ _______ _____ _____    ______ ____
ROOT
ATOM      1  N   UNL     1      -3.336  -4.309   1.424  0.00  0.00    +0.386 N 
ATOM      2  C   UNL     1      -2.018  -4.383   2.065  0.00  0.00    -0.078 C 
ATOM      3  C   UNL     1      -2.182  -4.796   3.529  0.00  0.00    -0.018 C 
ATOM      4  C   UNL     1      -2.861  -6.167   3.595  0.00  0.00    +0.009 C 
ATOM      5  C   UNL     1      -4.202  -6.098   2.858  0.00  0.00    +0.059 C 
ATOM      6  C   UNL     1      -3.963  -5.636   1.419  0.00  0.00    -0.065 C 
ATOM      7  H   UNL     1      -3.921  -3.664   1.934  0.00  0.00    -0.081 HD
ENDROOT
BRANCH   5   8
ATOM      8  C   UNL     1      -4.843  -7.461   2.851  0.00  0.00    +0.217 C 
ATOM      9  O   UNL     1      -4.154  -8.456   2.771  0.00  0.00    -0.275 OA
ATOM     10  N   UNL     1      -6.184  -7.575   2.933  0.00  0.00    -0.299 N 
ATOM     11  C   UNL     1      -7.046  -6.384   2.907  0.00  0.00    +0.123 C 
ATOM     12  C   UNL     1      -8.130  -6.592   1.844  0.00  0.00    +0.103 C 
ATOM     13  N   UNL     1      -8.829  -7.858   2.103  0.00  0.00    -0.295 NA
ATOM     14  C   UNL     1      -7.916  -9.004   1.983  0.00  0.00    +0.103 C 
ATOM     15  C   UNL     1      -6.823  -8.895   3.045  0.00  0.00    +0.123 C 
BRANCH  13  16
ATOM     16  C   UNL     1      -9.986  -8.012   1.212  0.00  0.00    +0.119 C 
BRANCH  16  17
ATOM     17  C   UNL     1     -10.814  -9.188   1.663  0.00  0.00    -0.030 A 
ATOM     18  C   UNL     1     -10.548 -10.450   1.165  0.00  0.00    +0.009 A 
ATOM     19  C   UNL     1     -11.304 -11.532   1.576  0.00  0.00    +0.050 A 
ATOM     20  C   UNL     1     -12.332 -11.353   2.488  0.00  0.00    +0.166 A 
ATOM     21  C   UNL     1     -12.600 -10.082   2.989  0.00  0.00    +0.167 A 
ATOM     22  C   UNL     1     -11.834  -9.003   2.577  0.00  0.00    +0.054 A 
ATOM     23  O   UNL     1     -13.647 -10.168   3.861  0.00  0.00    -0.453 OA
ATOM     24  C   UNL     1     -14.279 -11.431   3.579  0.00  0.00    +0.466 C 
ATOM     25  O   UNL     1     -13.211 -12.236   3.046  0.00  0.00    -0.453 OA
ENDBRANCH  16  17
ENDBRANCH  13  16
ENDBRANCH   5   8
BRANCH   1  26
ATOM     26  C   UNL     1      -3.181  -3.837   0.041  0.00  0.00    +0.022 C 
BRANCH  26  29
ATOM     27  C   UNL     1      -1.281  -0.745   0.047  0.00  0.00    +0.202 A 
ATOM     28  N   UNL     1      -1.395  -2.085   0.037  0.00  0.00    -0.193 NA
ATOM     29  C   UNL     1      -2.652  -2.426   0.048  0.00  0.00    +0.211 A 
ATOM     30  O   UNL     1      -3.394  -1.312   0.067  0.00  0.00    -0.340 OA
ATOM     31  N   UNL     1      -2.483  -0.223   0.072  0.00  0.00    -0.056 NA
BRANCH  27  37
ATOM     32  C   UNL     1      -0.026   1.409   0.058  0.00  0.00    +0.014 A 
ATOM     33  C   UNL     1       1.161   2.113   0.050  0.00  0.00    +0.039 A 
ATOM     34  C   UNL     1       2.370   1.436   0.024  0.00  0.00    +0.123 A 
ATOM     35  C   UNL     1       2.392   0.051   0.006  0.00  0.00    +0.039 A 
ATOM     36  C   UNL     1       1.210  -0.660   0.013  0.00  0.00    +0.014 A 
ATOM     37  C   UNL     1      -0.008   0.016   0.039  0.00  0.00    +0.023 A 
ATOM     38  F   UNL     1       3.529   2.129   0.016  0.00  0.00    -0.205 F 
ENDBRANCH  27  37
ENDBRANCH  26  29
ENDBRANCH   1  26
TORSDOF 6
