REMARK  Name = ZINC36875686
REMARK  10 active torsions:
REMARK  status: ('A' for Active; 'I' for Inactive)
REMARK    1  A    between atoms: C_1  and  C_2
REMARK    2  A    between atoms: C_2  and  C_28
REMARK    3  A    between atoms: N_5  and  C_9
REMARK    4  A    between atoms: C_9  and  C_10
REMARK    5  A    between atoms: N_12  and  C_13
REMARK    6  A    between atoms: N_12  and  C_21
REMARK    7  A    between atoms: C_13  and  C_14
REMARK    8  A    between atoms: C_14  and  C_15
REMARK    9  A    between atoms: C_21  and  C_22
REMARK   10  A    between atoms: C_31  and  N_34
REMARK                            x       y       z     vdW  Elec       q    Type
REMARK                         _______ _______ _______ _____ _____    ______ ____
ROOT
ATOM      1  C   UNL     1      -2.553  -2.000   1.814  0.00  0.00    +0.213 C 
ENDROOT
BRANCH   1   6
ATOM      2  C   UNL     1       0.025   1.498   0.031  0.00  0.00    +0.047 C 
ATOM      3  C   UNL     1       0.033  -0.032   0.016  0.00  0.00    +0.135 C 
ATOM      4  C   UNL     1      -1.376  -0.574   0.152  0.00  0.00    +0.251 C 
ATOM      5  O   UNL     1      -2.305  -0.397  -0.606  0.00  0.00    -0.272 OA
ATOM      6  N   UNL     1      -1.381  -1.293   1.292  0.00  0.00    -0.215 N 
ATOM      7  C   UNL     1      -0.183  -1.282   1.888  0.00  0.00    +0.310 C 
ATOM      8  O   UNL     1       0.059  -1.860   2.929  0.00  0.00    -0.252 OA
ATOM      9  N   UNL     1       0.723  -0.558   1.206  0.00  0.00    -0.281 N 
ATOM     10  H   UNL     1       1.651  -0.412   1.450  0.00  0.00    +0.152 HD
BRANCH   3  11
ATOM     11  C   UNL     1       0.682  -0.544  -1.244  0.00  0.00    -0.015 A 
ATOM     12  C   UNL     1      -0.086  -0.788  -2.367  0.00  0.00    +0.008 A 
ATOM     13  C   UNL     1       0.509  -1.258  -3.523  0.00  0.00    +0.033 A 
ATOM     14  C   UNL     1       1.872  -1.484  -3.555  0.00  0.00    +0.126 A 
ATOM     15  C   UNL     1       2.640  -1.240  -2.432  0.00  0.00    +0.033 A 
ATOM     16  C   UNL     1       2.046  -0.766  -1.278  0.00  0.00    +0.008 A 
BRANCH  14  17
ATOM     17  N   UNL     1       2.510  -1.989  -4.792  0.00  0.00    +0.056 N 
ATOM     18  O   UNL     1       1.838  -2.203  -5.774  0.00  0.00    -0.126 OA
ATOM     19  O   UNL     1       3.702  -2.187  -4.821  0.00  0.00    -0.126 OA
ENDBRANCH  14  17
ENDBRANCH   3  11
ENDBRANCH   1   6
BRANCH   1  20
ATOM     20  C   UNL     1      -2.581  -3.402   1.262  0.00  0.00    +0.234 C 
ATOM     21  O   UNL     1      -1.761  -3.745   0.436  0.00  0.00    -0.274 OA
ATOM     22  N   UNL     1      -3.517  -4.275   1.685  0.00  0.00    -0.296 N 
BRANCH  22  23
ATOM     23  C   UNL     1      -3.474  -5.670   1.238  0.00  0.00    +0.113 C 
BRANCH  23  24
ATOM     24  C   UNL     1      -2.631  -6.493   2.215  0.00  0.00    +0.054 C 
BRANCH  24  25
ATOM     25  C   UNL     1      -2.587  -7.927   1.754  0.00  0.00    -0.046 A 
ATOM     26  C   UNL     1      -3.550  -8.821   2.184  0.00  0.00    +0.004 A 
ATOM     27  C   UNL     1      -3.509 -10.136   1.762  0.00  0.00    +0.000 A 
ATOM     28  C   UNL     1      -2.506 -10.558   0.910  0.00  0.00    +0.000 A 
ATOM     29  C   UNL     1      -1.544  -9.664   0.479  0.00  0.00    +0.000 A 
ATOM     30  C   UNL     1      -1.587  -8.348   0.898  0.00  0.00    +0.004 A 
ENDBRANCH  24  25
ENDBRANCH  23  24
ENDBRANCH  22  23
BRANCH  22  31
ATOM     31  C   UNL     1      -4.576  -3.829   2.593  0.00  0.00    +0.143 C 
BRANCH  31  32
ATOM     32  C   UNL     1      -5.802  -3.468   1.795  0.00  0.00    -0.030 A 
ATOM     33  C   UNL     1      -6.022  -2.155   1.423  0.00  0.00    +0.005 A 
ATOM     34  C   UNL     1      -7.147  -1.823   0.691  0.00  0.00    +0.000 A 
ATOM     35  C   UNL     1      -8.051  -2.804   0.331  0.00  0.00    +0.000 A 
ATOM     36  C   UNL     1      -7.831  -4.117   0.702  0.00  0.00    +0.000 A 
ATOM     37  C   UNL     1      -6.704  -4.450   1.430  0.00  0.00    +0.005 A 
ENDBRANCH  31  32
ENDBRANCH  22  31
ENDBRANCH   1  20
TORSDOF 9
