REMARK  Name = ZINC63526612
REMARK  5 active torsions:
REMARK  status: ('A' for Active; 'I' for Inactive)
REMARK    1  A    between atoms: C_1  and  O_2
REMARK    2  A    between atoms: O_2  and  C_3
REMARK    3  A    between atoms: C_10  and  C_30
REMARK    4  A    between atoms: C_18  and  C_20
REMARK    5  A    between atoms: C_33  and  N_36
REMARK                            x       y       z     vdW  Elec       q    Type
REMARK                         _______ _______ _______ _____ _____    ______ ____
ROOT
ATOM      1  C   UNL     1       2.013  -0.638   0.296  0.00  0.00    +0.121 A 
ATOM      2  C   UNL     1       2.450   0.172   1.359  0.00  0.00    +0.047 A 
ATOM      3  C   UNL     1       2.781  -0.334   2.567  0.00  0.00    +0.029 A 
ATOM      4  C   UNL     1       2.689  -1.777   2.804  0.00  0.00    +0.043 A 
ATOM      5  N   UNL     1       2.963  -2.510   3.858  0.00  0.00    -0.375 N 
ATOM      6  C   UNL     1       2.615  -3.898   3.560  0.00  0.00    +0.131 C 
ATOM      7  C   UNL     1       3.813  -4.838   3.733  0.00  0.00    +0.133 C 
ATOM      8  N   UNL     1       3.501  -6.099   3.042  0.00  0.00    -0.291 N 
ATOM      9  C   UNL     1       3.217  -6.112   1.604  0.00  0.00    +0.113 C 
ATOM     10  C   UNL     1       2.019  -5.190   1.313  0.00  0.00    +0.052 C 
ATOM     11  C   UNL     1       2.229  -3.910   2.091  0.00  0.00    -0.035 C 
ATOM     12  C   UNL     1       2.234  -2.634   1.681  0.00  0.00    +0.003 A 
ATOM     13  C   UNL     1       1.891  -1.981   0.412  0.00  0.00    +0.055 A 
ATOM     14  C   UNL     1       3.476  -7.253   3.739  0.00  0.00    +0.222 C 
ATOM     15  O   UNL     1       3.609  -7.237   4.944  0.00  0.00    -0.275 OA
ATOM     16  H   UNL     1       3.335  -2.186   4.693  0.00  0.00    +0.160 HD
ENDROOT
BRANCH  14  17
ATOM     17  C   UNL     1       3.284  -8.563   3.019  0.00  0.00    +0.048 C 
ATOM     18  C   UNL     1       4.341  -8.702   1.921  0.00  0.00    +0.019 C 
ATOM     19  C   UNL     1       4.146 -10.032   1.191  0.00  0.00    -0.009 C 
ATOM     20  C   UNL     1       4.289 -11.186   2.185  0.00  0.00    +0.007 C 
ATOM     21  C   UNL     1       3.232 -11.047   3.283  0.00  0.00    -0.009 C 
ATOM     22  C   UNL     1       3.427  -9.717   4.013  0.00  0.00    +0.019 C 
ATOM     23  C   UNL     1       1.837 -11.084   2.655  0.00  0.00    +0.007 C 
ATOM     24  C   UNL     1       1.694  -9.930   1.661  0.00  0.00    -0.009 C 
ATOM     25  C   UNL     1       2.751 -10.069   0.563  0.00  0.00    +0.007 C 
ATOM     26  C   UNL     1       1.889  -8.600   2.391  0.00  0.00    +0.019 C 
ENDBRANCH  14  17
BRANCH   7  27
ATOM     27  C   UNL     1       5.043  -4.213   3.125  0.00  0.00    -0.025 A 
ATOM     28  C   UNL     1       5.066  -3.901   1.779  0.00  0.00    +0.008 A 
ATOM     29  C   UNL     1       6.194  -3.328   1.221  0.00  0.00    +0.033 A 
ATOM     30  C   UNL     1       7.298  -3.067   2.010  0.00  0.00    +0.126 A 
ATOM     31  C   UNL     1       7.275  -3.378   3.357  0.00  0.00    +0.033 A 
ATOM     32  C   UNL     1       6.146  -3.947   3.915  0.00  0.00    +0.008 A 
BRANCH  30  33
ATOM     33  N   UNL     1       8.507  -2.455   1.413  0.00  0.00    +0.056 N 
ATOM     34  O   UNL     1       8.527  -2.183   0.235  0.00  0.00    -0.126 OA
ATOM     35  O   UNL     1       9.473  -2.226   2.104  0.00  0.00    -0.126 OA
ENDBRANCH  30  33
ENDBRANCH   7  27
BRANCH   1  37
ATOM     36  C   UNL     1       1.839   1.369  -0.967  0.00  0.00    +0.277 C 
ATOM     37  O   UNL     1       1.696  -0.050  -0.888  0.00  0.00    -0.495 OA
ENDBRANCH   1  37
TORSDOF 4
