REMARK  Name = ZINC41584169
REMARK  15 active torsions:
REMARK  status: ('A' for Active; 'I' for Inactive)
REMARK    1  A    between atoms: C_1  and  C_2
REMARK    2  A    between atoms: C_2  and  C_3
REMARK    3  A    between atoms: C_3  and  C_4
REMARK    4  A    between atoms: C_4  and  N_5
REMARK    5  A    between atoms: N_5  and  C_6
REMARK    6  A    between atoms: N_5  and  C_10
REMARK    7  A    between atoms: C_6  and  C_7
REMARK    8  A    between atoms: C_7  and  C_8
REMARK    9  A    between atoms: C_8  and  C_9
REMARK   10  A    between atoms: C_10  and  C_11
REMARK   11  A    between atoms: C_12  and  O_32
REMARK   12  A    between atoms: C_14  and  C_31
REMARK   13  A    between atoms: C_19  and  C_20
REMARK   14  A    between atoms: C_25  and  O_26
REMARK   15  A    between atoms: O_26  and  C_27
REMARK                            x       y       z     vdW  Elec       q    Type
REMARK                         _______ _______ _______ _____ _____    ______ ____
ROOT
ATOM      1  C   UNL     1       2.280  -3.720   4.192  0.00  0.00    +0.020 A 
ATOM      2  C   UNL     1       3.462  -3.037   4.429  0.00  0.00    +0.122 A 
ATOM      3  C   UNL     1       3.907  -2.822   5.731  0.00  0.00    +0.050 A 
ATOM      4  C   UNL     1       3.179  -3.284   6.790  0.00  0.00    -0.033 A 
ATOM      5  C   UNL     1       1.986  -3.973   6.567  0.00  0.00    +0.071 A 
ATOM      6  C   UNL     1       1.524  -4.192   5.259  0.00  0.00    +0.145 A 
ATOM      7  O   UNL     1       0.356  -4.869   5.295  0.00  0.00    -0.451 OA
ATOM      8  C   UNL     1      -0.031  -5.135   6.565  0.00  0.00    +0.176 C 
ATOM      9  C   UNL     1      -1.156  -5.798   6.938  0.00  0.00    +0.061 C 
ATOM     10  C   UNL     1       0.992  -4.586   7.466  0.00  0.00    +0.232 C 
ATOM     11  O   UNL     1       1.008  -4.619   8.684  0.00  0.00    -0.283 OA
ATOM     12  C   UNL     1       3.663  -3.051   8.198  0.00  0.00    +0.045 C 
ENDROOT
BRANCH   9  13
ATOM     13  C   UNL     1      -1.355  -6.173   8.342  0.00  0.00    +0.021 A 
ATOM     14  C   UNL     1      -0.289  -6.683   9.094  0.00  0.00    +0.027 A 
ATOM     15  C   UNL     1      -0.484  -7.032  10.412  0.00  0.00    +0.019 A 
ATOM     16  C   UNL     1      -1.731  -6.882  10.999  0.00  0.00    +0.019 A 
ATOM     17  C   UNL     1      -2.792  -6.381  10.270  0.00  0.00    +0.047 A 
ATOM     18  C   UNL     1      -2.615  -6.018   8.944  0.00  0.00    +0.127 A 
ATOM     19 BR   UNL     1       0.956  -7.721  11.426  0.00  0.00    -0.050 Br
BRANCH  18  20
ATOM     20  O   UNL     1      -3.655  -5.520   8.229  0.00  0.00    -0.495 OA
ATOM     21  C   UNL     1      -4.906  -5.391   8.907  0.00  0.00    +0.277 C 
ENDBRANCH  18  20
ENDBRANCH   9  13
BRANCH   2  22
ATOM     22  O   UNL     1       4.193  -2.574   3.383  0.00  0.00    -0.506 OA
ATOM     23  H   UNL     1       3.959  -1.678   3.106  0.00  0.00    +0.292 HD
ENDBRANCH   2  22
BRANCH   1  24
ATOM     24  C   UNL     1       1.810  -3.944   2.778  0.00  0.00    -0.036 C 
BRANCH  24  25
ATOM     25  N   UNL     1       0.817  -2.921   2.424  0.00  0.00    +0.383 N 
ATOM     26  H   UNL     1       0.069  -2.929   3.100  0.00  0.00    -0.081 HD
BRANCH  25  27
ATOM     27  C   UNL     1       1.458  -1.599   2.418  0.00  0.00    -0.078 C 
BRANCH  27  28
ATOM     28  C   UNL     1       0.400  -0.521   2.172  0.00  0.00    -0.019 C 
BRANCH  28  30
ATOM     29  C   UNL     1       0.010   1.934   1.920  0.00  0.00    +0.004 C 
ATOM     30  C   UNL     1       1.067   0.856   2.167  0.00  0.00    -0.005 C 
ENDBRANCH  28  30
ENDBRANCH  27  28
ENDBRANCH  25  27
BRANCH  25  31
ATOM     31  C   UNL     1       0.274  -3.207   1.089  0.00  0.00    -0.078 C 
BRANCH  31  32
ATOM     32  C   UNL     1      -0.521  -4.514   1.131  0.00  0.00    -0.019 C 
BRANCH  32  33
ATOM     33  C   UNL     1      -1.063  -4.826  -0.265  0.00  0.00    -0.005 C 
ATOM     34  C   UNL     1      -1.756  -6.190  -0.249  0.00  0.00    +0.004 C 
ENDBRANCH  32  33
ENDBRANCH  31  32
ENDBRANCH  25  31
ENDBRANCH  24  25
ENDBRANCH   1  24
TORSDOF 11
