REMARK  Name = ZINC16213454
REMARK  7 active torsions:
REMARK  status: ('A' for Active; 'I' for Inactive)
REMARK    1  A    between atoms: C_1  and  O_2
REMARK    2  A    between atoms: O_2  and  C_3
REMARK    3  A    between atoms: C_8  and  N_9
REMARK    4  A    between atoms: C_12  and  C_17
REMARK    5  A    between atoms: C_17  and  O_18
REMARK    6  A    between atoms: O_18  and  C_19
REMARK    7  A    between atoms: C_19  and  C_21
REMARK                            x       y       z     vdW  Elec       q    Type
REMARK                         _______ _______ _______ _____ _____    ______ ____
ROOT
ATOM      1  N   UNL     1      -3.946  -1.440  -2.315  0.00  0.00    -0.281 N 
ATOM      2  C   UNL     1      -3.288  -1.213  -1.123  0.00  0.00    +0.224 A 
ATOM      3  N   UNL     1      -2.033  -0.768  -1.129  0.00  0.00    -0.196 NA
ATOM      4  C   UNL     1      -1.402  -0.550   0.012  0.00  0.00    +0.173 A 
ATOM      5  N   UNL     1      -2.012  -0.776   1.162  0.00  0.00    -0.196 NA
ATOM      6  C   UNL     1      -3.268  -1.216   1.176  0.00  0.00    +0.217 A 
ATOM      7  N   UNL     1      -3.906  -1.437   0.032  0.00  0.00    -0.181 NA
ATOM      8  N   UNL     1      -3.906  -1.447   2.378  0.00  0.00    -0.327 N 
ATOM      9  H   UNL     1      -3.527  -1.196  -3.155  0.00  0.00    +0.155 HD
ATOM     10  H   UNL     1      -4.820  -1.771   2.388  0.00  0.00    +0.145 HD
ATOM     11  H   UNL     1      -3.440  -1.286   3.213  0.00  0.00    +0.145 HD
ENDROOT
BRANCH   1  17
ATOM     12  C   UNL     1      -6.091  -1.804  -3.376  0.00  0.00    +0.141 A 
ATOM     13  C   UNL     1      -7.349  -2.384  -3.368  0.00  0.00    +0.047 A 
ATOM     14  C   UNL     1      -7.738  -3.178  -2.304  0.00  0.00    +0.004 A 
ATOM     15  C   UNL     1      -6.874  -3.395  -1.247  0.00  0.00    +0.002 A 
ATOM     16  C   UNL     1      -5.615  -2.824  -1.250  0.00  0.00    +0.027 A 
ATOM     17  C   UNL     1      -5.220  -2.023  -2.311  0.00  0.00    +0.076 A 
BRANCH  12  19
ATOM     18  C   UNL     1      -6.652  -0.845  -5.479  0.00  0.00    +0.277 C 
ATOM     19  O   UNL     1      -5.707  -1.025  -4.422  0.00  0.00    -0.493 OA
ENDBRANCH  12  19
ENDBRANCH   1  17
BRANCH   4  20
ATOM     20  C   UNL     1       0.018  -0.047   0.001  0.00  0.00    +0.308 C 
BRANCH  20  21
ATOM     21  O   UNL     1       0.018   1.405   0.002  0.00  0.00    -0.456 OA
BRANCH  21  22
ATOM     22  C   UNL     1       1.214   2.014  -0.007  0.00  0.00    +0.320 C 
ATOM     23  O   UNL     1       2.227   1.357  -0.016  0.00  0.00    -0.250 OA
BRANCH  22  24
ATOM     24  C   UNL     1       1.292   3.519  -0.005  0.00  0.00    +0.165 C 
ATOM     25  C   UNL     1       0.588   4.054  -1.222  0.00  0.00    +0.013 A 
ATOM     26  C   UNL     1      -0.796   4.103  -1.238  0.00  0.00    +0.008 A 
ATOM     27  C   UNL     1      -1.462   4.591  -2.346  0.00  0.00    +0.001 A 
ATOM     28  C   UNL     1      -0.748   5.033  -3.444  0.00  0.00    +0.004 A 
ATOM     29  C   UNL     1       0.632   4.986  -3.434  0.00  0.00    +0.046 A 
ATOM     30  C   UNL     1       1.306   4.496  -2.321  0.00  0.00    +0.133 A 
ATOM     31  O   UNL     1       2.659   4.459  -2.331  0.00  0.00    -0.455 OA
ATOM     32  C   UNL     1       3.346   4.388  -1.165  0.00  0.00    +0.133 A 
ATOM     33  C   UNL     1       2.737   3.941  -0.004  0.00  0.00    +0.013 A 
ATOM     34  C   UNL     1       3.461   3.878   1.173  0.00  0.00    +0.008 A 
ATOM     35  C   UNL     1       4.788   4.261   1.195  0.00  0.00    +0.001 A 
ATOM     36  C   UNL     1       5.399   4.707   0.038  0.00  0.00    +0.004 A 
ATOM     37  C   UNL     1       4.682   4.771  -1.140  0.00  0.00    +0.046 A 
ENDBRANCH  22  24
ENDBRANCH  21  22
ENDBRANCH  20  21
ENDBRANCH   4  20
TORSDOF 6
