REMARK  Name = ZINC40621724
REMARK  5 active torsions:
REMARK  status: ('A' for Active; 'I' for Inactive)
REMARK    1  A    between atoms: C_7  and  O_11
REMARK    2  A    between atoms: O_11  and  C_12
REMARK    3  A    between atoms: C_13  and  N_29
REMARK    4  A    between atoms: C_14  and  N_18
REMARK    5  A    between atoms: N_18  and  C_19
REMARK                            x       y       z     vdW  Elec       q    Type
REMARK                         _______ _______ _______ _____ _____    ______ ____
ROOT
ATOM      1  C   UNL     1       4.670  -2.803  -0.163  0.00  0.00    +0.256 A 
ATOM      2  C   UNL     1       4.697  -4.187  -0.286  0.00  0.00    +0.227 A 
ATOM      3  C   UNL     1       5.934  -4.815  -0.406  0.00  0.00    +0.157 A 
ATOM      4  N   UNL     1       7.039  -4.072  -0.398  0.00  0.00    -0.218 NA
ATOM      5  C   UNL     1       6.971  -2.762  -0.279  0.00  0.00    +0.227 A 
ATOM      6  N   UNL     1       5.819  -2.132  -0.169  0.00  0.00    -0.199 NA
ENDROOT
BRANCH   2   7
ATOM      7  N   UNL     1       3.442  -4.973  -0.290  0.00  0.00    +0.065 N 
ATOM      8  O   UNL     1       2.876  -5.202  -1.333  0.00  0.00    -0.126 OA
ATOM      9  O   UNL     1       2.985  -5.386   0.750  0.00  0.00    -0.126 OA
ENDBRANCH   2   7
BRANCH   3  10
ATOM     10  N   UNL     1       6.013  -6.193  -0.531  0.00  0.00    -0.322 N 
ATOM     11  H   UNL     1       5.204  -6.728  -0.536  0.00  0.00    +0.148 HD
BRANCH  10  12
ATOM     12  C   UNL     1       7.321  -6.843  -0.656  0.00  0.00    +0.034 C 
ATOM     13  C   UNL     1       8.164  -6.535   0.583  0.00  0.00    +0.029 C 
ATOM     14  C   UNL     1       9.529  -7.214   0.452  0.00  0.00    -0.008 C 
ATOM     15  C   UNL     1       9.337  -8.726   0.329  0.00  0.00    +0.007 C 
ATOM     16  C   UNL     1       8.493  -9.034  -0.910  0.00  0.00    -0.008 C 
ATOM     17  C   UNL     1       7.128  -8.356  -0.779  0.00  0.00    +0.029 C 
ATOM     18  C   UNL     1       9.207  -8.508  -2.156  0.00  0.00    +0.007 C 
ATOM     19  C   UNL     1       9.399  -6.995  -2.033  0.00  0.00    -0.008 C 
ATOM     20  C   UNL     1      10.243  -6.687  -0.794  0.00  0.00    +0.007 C 
ATOM     21  C   UNL     1       8.034  -6.317  -1.903  0.00  0.00    +0.029 C 
ENDBRANCH  10  12
ENDBRANCH   3  10
BRANCH   1  22
ATOM     22  O   UNL     1       3.491  -2.146  -0.044  0.00  0.00    -0.434 OA
BRANCH  22  29
ATOM     23  C   UNL     1       3.580   1.483  -3.453  0.00  0.00    +0.020 A 
ATOM     24  C   UNL     1       3.591   2.148  -2.259  0.00  0.00    +0.013 A 
ATOM     25  C   UNL     1       3.571   1.388  -1.075  0.00  0.00    +0.018 A 
ATOM     26  C   UNL     1       3.580   2.001   0.189  0.00  0.00    +0.027 A 
ATOM     27  C   UNL     1       3.560   1.232   1.313  0.00  0.00    +0.019 A 
ATOM     28  C   UNL     1       3.530  -0.158   1.229  0.00  0.00    +0.049 A 
ATOM     29  C   UNL     1       3.520  -0.789   0.018  0.00  0.00    +0.156 A 
ATOM     30  C   UNL     1       3.540  -0.026  -1.168  0.00  0.00    +0.114 A 
ATOM     31  N   UNL     1       3.530  -0.614  -2.367  0.00  0.00    -0.251 NA
ATOM     32  C   UNL     1       3.549   0.091  -3.472  0.00  0.00    +0.111 A 
ATOM     33 BR   UNL     1       3.622   3.887   0.329  0.00  0.00    -0.050 Br
ENDBRANCH  22  29
ENDBRANCH   1  22
TORSDOF 5
