REMARK  Name = ZINC05046308
REMARK  11 active torsions:
REMARK  status: ('A' for Active; 'I' for Inactive)
REMARK    1  A    between atoms: C_1  and  N_74
REMARK    2  A    between atoms: C_2  and  C_24
REMARK    3  A    between atoms: C_7  and  C_9
REMARK    4  A    between atoms: C_9  and  C_10
REMARK    5  A    between atoms: C_10  and  C_11
REMARK    6  A    between atoms: C_10  and  C_17
REMARK    7  A    between atoms: C_10  and  O_23
REMARK    8  A    between atoms: C_24  and  C_25
REMARK    9  A    between atoms: C_25  and  C_26
REMARK   10  A    between atoms: C_25  and  C_32
REMARK   11  A    between atoms: C_25  and  O_38
REMARK                            x       y       z     vdW  Elec       q    Type
REMARK                         _______ _______ _______ _____ _____    ______ ____
ROOT
ATOM      1  C   UNL     1      -1.389   3.270  -1.117  0.00  0.00    -0.095 C 
ATOM      2  C   UNL     1      -0.361   5.236  -2.087  0.00  0.00    -0.065 C 
ATOM      3  C   UNL     1       0.372   6.537  -1.754  0.00  0.00    -0.015 C 
ATOM      4  C   UNL     1       1.719   6.207  -1.106  0.00  0.00    -0.003 C 
ATOM      5  C   UNL     1       1.480   5.357   0.145  0.00  0.00    -0.015 C 
ATOM      6  C   UNL     1       0.715   4.090  -0.243  0.00  0.00    -0.065 C 
ATOM      7  N   UNL     1      -0.582   4.476  -0.838  0.00  0.00    +0.382 N 
ATOM      8  H   UNL     1      -1.091   5.071  -0.173  0.00  0.00    -0.081 HD
ENDROOT
BRANCH   6   9
ATOM      9  C   UNL     1       0.456   3.248   1.008  0.00  0.00    +0.029 C 
BRANCH   9  10
ATOM     10  C   UNL     1       1.786   2.728   1.557  0.00  0.00    +0.114 C 
BRANCH  10  11
ATOM     11  C   UNL     1       1.521   1.778   2.697  0.00  0.00    -0.012 A 
ATOM     12  C   UNL     1       0.557   0.796   2.569  0.00  0.00    +0.007 A 
ATOM     13  C   UNL     1       0.318  -0.078   3.612  0.00  0.00    +0.000 A 
ATOM     14  C   UNL     1       1.036   0.036   4.788  0.00  0.00    +0.000 A 
ATOM     15  C   UNL     1       1.997   1.021   4.918  0.00  0.00    +0.000 A 
ATOM     16  C   UNL     1       2.240   1.892   3.873  0.00  0.00    +0.007 A 
ENDBRANCH  10  11
BRANCH  10  17
ATOM     17  C   UNL     1       2.533   2.007   0.465  0.00  0.00    -0.012 A 
ATOM     18  C   UNL     1       1.910   1.000  -0.249  0.00  0.00    +0.007 A 
ATOM     19  C   UNL     1       2.594   0.342  -1.254  0.00  0.00    +0.000 A 
ATOM     20  C   UNL     1       3.903   0.684  -1.538  0.00  0.00    +0.000 A 
ATOM     21  C   UNL     1       4.527   1.687  -0.821  0.00  0.00    +0.000 A 
ATOM     22  C   UNL     1       3.842   2.349   0.181  0.00  0.00    +0.007 A 
ENDBRANCH  10  17
BRANCH  10  23
ATOM     23  O   UNL     1       2.570   3.827   2.025  0.00  0.00    -0.379 OA
ATOM     24  H   UNL     1       2.183   4.294   2.779  0.00  0.00    +0.211 HD
ENDBRANCH  10  23
ENDBRANCH   9  10
ENDBRANCH   6   9
BRANCH   2  25
ATOM     25  C   UNL     1       0.475   4.417  -3.073  0.00  0.00    +0.029 C 
BRANCH  25  26
ATOM     26  C   UNL     1       0.540   5.147  -4.416  0.00  0.00    +0.114 C 
BRANCH  26  27
ATOM     27  C   UNL     1       1.214   4.265  -5.435  0.00  0.00    -0.012 A 
ATOM     28  C   UNL     1       1.115   2.890  -5.333  0.00  0.00    +0.007 A 
ATOM     29  C   UNL     1       1.730   2.081  -6.270  0.00  0.00    +0.000 A 
ATOM     30  C   UNL     1       2.452   2.647  -7.304  0.00  0.00    +0.000 A 
ATOM     31  C   UNL     1       2.555   4.022  -7.404  0.00  0.00    +0.000 A 
ATOM     32  C   UNL     1       1.937   4.831  -6.469  0.00  0.00    +0.007 A 
ENDBRANCH  26  27
BRANCH  26  33
ATOM     33  C   UNL     1      -0.857   5.472  -4.879  0.00  0.00    -0.012 A 
ATOM     34  C   UNL     1      -1.814   4.476  -4.942  0.00  0.00    +0.007 A 
ATOM     35  C   UNL     1      -3.096   4.775  -5.362  0.00  0.00    +0.000 A 
ATOM     36  C   UNL     1      -3.420   6.068  -5.729  0.00  0.00    +0.000 A 
ATOM     37  C   UNL     1      -2.462   7.063  -5.670  0.00  0.00    +0.000 A 
ATOM     38  C   UNL     1      -1.181   6.765  -5.246  0.00  0.00    +0.007 A 
ENDBRANCH  26  33
BRANCH  26  39
ATOM     39  O   UNL     1       1.285   6.357  -4.265  0.00  0.00    -0.379 OA
ATOM     40  H   UNL     1       2.196   6.224  -3.969  0.00  0.00    +0.211 HD
ENDBRANCH  26  39
ENDBRANCH  25  26
ENDBRANCH   2  25
TORSDOF 10
