REMARK  Name = ZINC62725990
REMARK  3 active torsions:
REMARK  status: ('A' for Active; 'I' for Inactive)
REMARK    1  A    between atoms: C_5  and  N_17
REMARK    2  A    between atoms: N_7  and  S_8
REMARK    3  A    between atoms: S_8  and  C_11
REMARK                            x       y       z     vdW  Elec       q    Type
REMARK                         _______ _______ _______ _____ _____    ______ ____
ROOT
ATOM      1  C   UNL     1      -0.017   1.418   0.010  0.00  0.00    +0.048 A 
ATOM      2  C   UNL     1       1.149   2.092   0.002  0.00  0.00    +0.084 A 
ATOM      3  N   UNL     1       2.342   1.443  -0.013  0.00  0.00    -0.365 N 
ATOM      4  C   UNL     1       2.428   0.081  -0.022  0.00  0.00    +0.107 A 
ATOM      5  C   UNL     1       1.309  -0.679  -0.015  0.00  0.00    +0.068 A 
ATOM      6  C   UNL     1       0.002  -0.004   0.002  0.00  0.00    +0.109 A 
ATOM      7  N   UNL     1      -1.123  -0.700   0.009  0.00  0.00    -0.132 NA
ATOM      8  H   UNL     1       3.159   1.965  -0.018  0.00  0.00    +0.165 HD
ENDROOT
BRANCH   7   9
ATOM      9  S   UNL     1      -2.582   0.084   0.028  0.00  0.00    +0.073 S 
ATOM     10  O   UNL     1      -2.603   0.780   1.267  0.00  0.00    -0.151 OA
ATOM     11  O   UNL     1      -2.628   0.793  -1.202  0.00  0.00    -0.151 OA
BRANCH   9  12
ATOM     12  C   UNL     1      -3.822  -1.239   0.033  0.00  0.00    +0.155 C 
ATOM     13  C   UNL     1      -3.579  -2.171  -1.156  0.00  0.00    +0.028 C 
ATOM     14  C   UNL     1      -4.625  -3.287  -1.151  0.00  0.00    +0.002 C 
ATOM     15  C   UNL     1      -6.024  -2.676  -1.260  0.00  0.00    +0.000 C 
ATOM     16  C   UNL     1      -6.267  -1.744  -0.071  0.00  0.00    +0.002 C 
ATOM     17  C   UNL     1      -5.221  -0.628  -0.075  0.00  0.00    +0.028 C 
ENDBRANCH   9  12
ENDBRANCH   7   9
BRANCH   5  18
ATOM     18  N   UNL     1       1.393  -2.079  -0.024  0.00  0.00    -0.355 N 
ATOM     19  H   UNL     1       2.260  -2.513  -0.035  0.00  0.00    +0.142 HD
ATOM     20  H   UNL     1       0.583  -2.614  -0.019  0.00  0.00    +0.142 HD
ENDBRANCH   5  18
TORSDOF 3
