REMARK  Name = ZINC21889506
REMARK  5 active torsions:
REMARK  status: ('A' for Active; 'I' for Inactive)
REMARK    1  A    between atoms: C_1  and  S_2
REMARK    2  A    between atoms: S_2  and  C_3
REMARK    3  A    between atoms: C_6  and  C_9
REMARK    4  A    between atoms: N_26  and  C_27
REMARK    5  A    between atoms: C_27  and  C_28
REMARK                            x       y       z     vdW  Elec       q    Type
REMARK                         _______ _______ _______ _____ _____    ______ ____
ROOT
ATOM      1  C   UNL     1      -0.391   1.467  -4.858  0.00  0.00    +0.155 C 
ATOM      2  C   UNL     1      -1.721   1.488  -5.567  0.00  0.00    +0.049 A 
ATOM      3  C   UNL     1      -2.351   0.476  -6.185  0.00  0.00    +0.025 A 
ATOM      4  C   UNL     1      -3.566   0.985  -6.694  0.00  0.00    +0.020 A 
ATOM      5  C   UNL     1      -3.628   2.295  -6.365  0.00  0.00    +0.091 A 
ATOM      6  N   UNL     1      -2.501   2.608  -5.676  0.00  0.00    -0.318 N 
ATOM      7  C   UNL     1      -2.111   3.840  -5.130  0.00  0.00    +0.051 A 
ATOM      8  C   UNL     1      -2.204   5.012  -5.862  0.00  0.00    +0.026 A 
ATOM      9  C   UNL     1      -1.759   6.200  -5.312  0.00  0.00    +0.002 A 
ATOM     10  C   UNL     1      -1.221   6.216  -4.039  0.00  0.00    +0.000 A 
ATOM     11  C   UNL     1      -1.146   5.049  -3.299  0.00  0.00    +0.007 A 
ATOM     12  C   UNL     1      -1.612   3.865  -3.832  0.00  0.00    -0.006 A 
ATOM     13  C   UNL     1      -1.663   2.608  -3.001  0.00  0.00    +0.147 C 
ATOM     14  N   UNL     1      -0.625   1.645  -3.412  0.00  0.00    -0.269 N 
ATOM     15  C   UNL     1       0.081   0.948  -2.499  0.00  0.00    +0.304 C 
ATOM     16  O   UNL     1      -0.192   1.043  -1.318  0.00  0.00    -0.253 OA
ATOM     17  N   UNL     1       1.089   0.146  -2.896  0.00  0.00    -0.292 N 
ATOM     18  H   UNL     1       1.283  -0.004  -3.968  0.00  0.00    +0.151 HD
ENDROOT
BRANCH   1  22
ATOM     19  C   UNL     1       2.061   4.649  -6.317  0.00  0.00    +0.008 A 
ATOM     20  C   UNL     1       2.162   4.243  -4.992  0.00  0.00    +0.015 A 
ATOM     21  C   UNL     1       1.369   3.215  -4.524  0.00  0.00    +0.007 A 
ATOM     22  C   UNL     1       0.473   2.589  -5.373  0.00  0.00    -0.021 A 
ATOM     23  C   UNL     1       0.374   2.987  -6.694  0.00  0.00    +0.007 A 
ATOM     24  C   UNL     1       1.160   4.018  -7.167  0.00  0.00    +0.015 A 
BRANCH  19  26
ATOM     25  C   UNL     1       2.590   6.123  -8.660  0.00  0.00    +0.090 C 
ATOM     26  S   UNL     1       3.072   5.961  -6.919  0.00  0.00    -0.129 S 
ENDBRANCH  19  26
ENDBRANCH   1  22
BRANCH  17  27
ATOM     27  C   UNL     1       1.926  -0.526  -1.899  0.00  0.00    +0.180 C 
BRANCH  27  28
ATOM     28  C   UNL     1       2.971  -1.356  -2.599  0.00  0.00    +0.122 A 
ATOM     29  C   UNL     1       4.195  -0.934  -2.965  0.00  0.00    +0.046 A 
ATOM     30  C   UNL     1       4.838  -2.032  -3.583  0.00  0.00    +0.041 A 
ATOM     31  C   UNL     1       3.966  -3.055  -3.564  0.00  0.00    +0.195 A 
ATOM     32  O   UNL     1       2.837  -2.640  -2.967  0.00  0.00    -0.466 OA
ENDBRANCH  27  28
ENDBRANCH  17  27
TORSDOF 4
