REMARK  Name = ZINC13220417
REMARK  13 active torsions:
REMARK  status: ('A' for Active; 'I' for Inactive)
REMARK    1  A    between atoms: C_1  and  C_2
REMARK    2  A    between atoms: C_2  and  O_3
REMARK    3  A    between atoms: O_3  and  C_4
REMARK    4  A    between atoms: C_9  and  C_10
REMARK    5  A    between atoms: C_10  and  N_11
REMARK    6  A    between atoms: C_12  and  C_14
REMARK    7  A    between atoms: C_14  and  S_15
REMARK    8  A    between atoms: S_15  and  C_16
REMARK    9  A    between atoms: C_19  and  C_24
REMARK   10  A    between atoms: N_20  and  C_21
REMARK   11  A    between atoms: C_21  and  C_22
REMARK   12  A    between atoms: C_28  and  C_30
REMARK   13  A    between atoms: C_32  and  C_35
REMARK                            x       y       z     vdW  Elec       q    Type
REMARK                         _______ _______ _______ _____ _____    ______ ____
ROOT
ATOM      1  N   UNL     1      -4.959  -0.460  -5.841  0.00  0.00    -0.310 N 
ATOM      2  C   UNL     1      -4.183   0.276  -5.020  0.00  0.00    +0.224 C 
ATOM      3  O   UNL     1      -3.506   1.175  -5.471  0.00  0.00    -0.275 OA
ATOM      4  H   UNL     1      -5.500  -1.179  -5.480  0.00  0.00    +0.149 HD
ENDROOT
BRANCH   1   5
ATOM      5  C   UNL     1      -4.984  -0.173  -7.277  0.00  0.00    +0.143 C 
BRANCH   5  11
ATOM      6  C   UNL     1      -7.290  -0.902  -7.928  0.00  0.00    +0.126 A 
ATOM      7  C   UNL     1      -8.151  -1.786  -8.566  0.00  0.00    +0.053 A 
ATOM      8  C   UNL     1      -7.644  -2.881  -9.229  0.00  0.00    +0.001 A 
ATOM      9  C   UNL     1      -6.277  -3.122  -9.264  0.00  0.00    +0.125 A 
ATOM     10  C   UNL     1      -5.418  -2.228  -8.631  0.00  0.00    +0.054 A 
ATOM     11  C   UNL     1      -5.923  -1.131  -7.964  0.00  0.00    +0.015 A 
ATOM     12  O   UNL     1      -5.995  -4.261  -9.957  0.00  0.00    -0.488 OA
ATOM     13  C   UNL     1      -7.117  -4.598 -10.790  0.00  0.00    +0.175 C 
ATOM     14  C   UNL     1      -8.312  -3.991 -10.018  0.00  0.00    +0.083 C 
ATOM     15  C   UNL     1      -6.980  -3.953 -12.171  0.00  0.00    +0.052 C 
BRANCH   6  16
ATOM     16  O   UNL     1      -7.785   0.181  -7.272  0.00  0.00    -0.492 OA
BRANCH  16  18
ATOM     17  C   UNL     1      -9.570   1.613  -6.496  0.00  0.00    +0.048 C 
ATOM     18  C   UNL     1      -9.204   0.350  -7.278  0.00  0.00    +0.225 C 
ENDBRANCH  16  18
ENDBRANCH   6  16
ENDBRANCH   5  11
ENDBRANCH   1   5
BRANCH   2  19
ATOM     19  C   UNL     1      -4.157  -0.019  -3.542  0.00  0.00    +0.173 C 
BRANCH  19  20
ATOM     20  S   UNL     1      -3.029   1.131  -2.717  0.00  0.00    -0.077 S 
BRANCH  20  21
ATOM     21  C   UNL     1      -3.189   0.575  -1.053  0.00  0.00    +0.193 A 
ATOM     22  N   UNL     1      -3.944  -0.415  -0.630  0.00  0.00    -0.122 NA
ATOM     23  N   UNL     1      -3.827  -0.547   0.642  0.00  0.00    -0.128 NA
ATOM     24  C   UNL     1      -2.986   0.346   1.110  0.00  0.00    +0.165 A 
ATOM     25  N   UNL     1      -2.550   1.090   0.038  0.00  0.00    -0.291 N 
BRANCH  24  26
ATOM     26  C   UNL     1      -2.584   0.520   2.522  0.00  0.00    +0.020 A 
ATOM     27  C   UNL     1      -3.368  -0.017   3.545  0.00  0.00    +0.011 A 
ATOM     28  C   UNL     1      -2.987   0.148   4.861  0.00  0.00    +0.001 A 
ATOM     29  C   UNL     1      -1.832   0.845   5.167  0.00  0.00    +0.003 A 
ATOM     30  C   UNL     1      -1.051   1.380   4.159  0.00  0.00    -0.050 A 
ATOM     31  C   UNL     1      -1.417   1.217   2.838  0.00  0.00    +0.015 A 
ATOM     32  C   UNL     1       0.206   2.136   4.502  0.00  0.00    +0.044 C 
ENDBRANCH  24  26
BRANCH  25  33
ATOM     33  C   UNL     1      -1.601   2.207   0.063  0.00  0.00    +0.250 C 
BRANCH  33  34
ATOM     34  C   UNL     1      -0.204   1.684  -0.150  0.00  0.00    +0.375 C 
ATOM     35  O   UNL     1      -0.019   0.500  -0.306  0.00  0.00    -0.244 OA
ATOM     36  O   UNL     1       0.835   2.534  -0.171  0.00  0.00    -0.244 OA
ENDBRANCH  33  34
ENDBRANCH  25  33
ENDBRANCH  20  21
ENDBRANCH  19  20
ENDBRANCH   2  19
TORSDOF 10
