REMARK  Name = ZINC03128169
REMARK  7 active torsions:
REMARK  status: ('A' for Active; 'I' for Inactive)
REMARK    1  A    between atoms: C_3  and  O_27
REMARK    2  A    between atoms: C_5  and  O_7
REMARK    3  A    between atoms: O_7  and  S_8
REMARK    4  A    between atoms: S_8  and  C_11
REMARK    5  A    between atoms: C_19  and  C_22
REMARK    6  A    between atoms: O_27  and  C_28
REMARK    7  A    between atoms: C_31  and  C_34
REMARK                            x       y       z     vdW  Elec       q    Type
REMARK                         _______ _______ _______ _____ _____    ______ ____
ROOT
ATOM      1  O   UNL     1       4.294   8.477  -0.073  0.00  0.00    -0.341 OA
ENDROOT
BRANCH   1   6
ATOM      2  C   UNL     1       0.903   7.431   0.736  0.00  0.00    +0.007 A 
ATOM      3  C   UNL     1       1.058   6.059   0.779  0.00  0.00    +0.046 A 
ATOM      4  C   UNL     1       2.302   5.492   0.544  0.00  0.00    +0.134 A 
ATOM      5  C   UNL     1       3.389   6.303   0.256  0.00  0.00    +0.095 A 
ATOM      6  C   UNL     1       3.231   7.679   0.209  0.00  0.00    +0.160 A 
ATOM      7  C   UNL     1       1.985   8.242   0.449  0.00  0.00    +0.049 A 
BRANCH   4   8
ATOM      8  O   UNL     1       2.454   4.142   0.591  0.00  0.00    -0.437 OA
BRANCH   8   9
ATOM      9  C   UNL     1       3.030   3.604   1.696  0.00  0.00    +0.239 A 
ATOM     10  C   UNL     1       3.112   2.222   1.826  0.00  0.00    +0.103 A 
ATOM     11  C   UNL     1       3.702   1.686   2.958  0.00  0.00    +0.039 A 
ATOM     12  C   UNL     1       4.185   2.555   3.927  0.00  0.00    +0.074 A 
ATOM     13  C   UNL     1       4.073   3.917   3.730  0.00  0.00    +0.127 A 
ATOM     14  N   UNL     1       3.506   4.398   2.640  0.00  0.00    -0.219 NA
ATOM     15 CL   UNL     1       2.486   1.183   0.585  0.00  0.00    -0.078 Cl
BRANCH  12  16
ATOM     16  C   UNL     1       4.829   2.018   5.179  0.00  0.00    +0.419 C 
ATOM     17  F   UNL     1       6.204   1.865   4.968  0.00  0.00    -0.166 F 
ATOM     18  F   UNL     1       4.615   2.911   6.234  0.00  0.00    -0.166 F 
ATOM     19  F   UNL     1       4.266   0.777   5.498  0.00  0.00    -0.166 F 
ENDBRANCH  12  16
ENDBRANCH   8   9
ENDBRANCH   4   8
ENDBRANCH   1   6
BRANCH   1  20
ATOM     20  S   UNL     1       4.480   8.759  -1.558  0.00  0.00    +0.167 S 
ATOM     21  O   UNL     1       5.731   9.418  -1.692  0.00  0.00    -0.130 OA
ATOM     22  O   UNL     1       4.178   7.550  -2.241  0.00  0.00    -0.130 OA
BRANCH  20  23
ATOM     23  C   UNL     1       3.244   9.924  -2.025  0.00  0.00    +0.203 A 
ATOM     24  C   UNL     1       2.054   9.632  -2.588  0.00  0.00    +0.051 A 
ATOM     25  C   UNL     1       1.374  10.849  -2.796  0.00  0.00    +0.022 A 
ATOM     26  C   UNL     1       2.175  11.841  -2.360  0.00  0.00    +0.095 A 
ATOM     27  N   UNL     1       3.327  11.281  -1.884  0.00  0.00    -0.282 N 
ATOM     28  C   UNL     1       4.411  11.979  -1.344  0.00  0.00    +0.157 A 
ATOM     29  C   UNL     1       5.000  13.008  -2.072  0.00  0.00    +0.084 A 
ATOM     30  C   UNL     1       6.071  13.694  -1.523  0.00  0.00    +0.037 A 
ATOM     31  C   UNL     1       6.522  13.319  -0.265  0.00  0.00    +0.074 A 
ATOM     32  C   UNL     1       5.892  12.285   0.399  0.00  0.00    +0.125 A 
ATOM     33  N   UNL     1       4.871  11.653  -0.148  0.00  0.00    -0.235 NA
ATOM     34 CL   UNL     1       4.399  13.428  -3.646  0.00  0.00    -0.080 Cl
BRANCH  31  35
ATOM     35  C   UNL     1       7.687  14.033   0.369  0.00  0.00    +0.419 C 
ATOM     36  F   UNL     1       7.948  13.476   1.626  0.00  0.00    -0.166 F 
ATOM     37  F   UNL     1       8.817  13.897  -0.445  0.00  0.00    -0.166 F 
ATOM     38  F   UNL     1       7.379  15.390   0.516  0.00  0.00    -0.166 F 
ENDBRANCH  31  35
ENDBRANCH  20  23
ENDBRANCH   1  20
TORSDOF 7
