REMARK  Name = ZINC09370843
REMARK  12 active torsions:
REMARK  status: ('A' for Active; 'I' for Inactive)
REMARK    1  A    between atoms: C_1  and  C_2
REMARK    2  A    between atoms: C_2  and  N_56
REMARK    3  A    between atoms: C_3  and  C_4
REMARK    4  A    between atoms: C_3  and  N_56
REMARK    5  A    between atoms: C_5  and  C_6
REMARK    6  A    between atoms: C_5  and  N_56
REMARK    7  A    between atoms: C_6  and  N_7
REMARK    8  A    between atoms: C_8  and  C_26
REMARK    9  A    between atoms: C_10  and  C_15
REMARK   10  A    between atoms: C_11  and  O_14
REMARK   11  A    between atoms: C_15  and  C_17
REMARK   12  A    between atoms: C_20  and  N_23
REMARK                            x       y       z     vdW  Elec       q    Type
REMARK                         _______ _______ _______ _____ _____    ______ ____
ROOT
ATOM      1  N   UNL     1      -3.787   2.325  -1.815  0.00  0.00    -0.285 N 
ATOM      2  C   UNL     1      -4.327   1.897  -3.111  0.00  0.00    +0.147 C 
ATOM      3  C   UNL     1      -4.612   3.162  -3.887  0.00  0.00    +0.071 C 
ATOM      4  C   UNL     1      -4.260   4.197  -3.089  0.00  0.00    +0.188 C 
ATOM      5  C   UNL     1      -3.755   3.670  -1.804  0.00  0.00    +0.282 C 
ATOM      6  O   UNL     1      -3.365   4.350  -0.875  0.00  0.00    -0.267 OA
ENDROOT
BRANCH   2   7
ATOM      7  C   UNL     1      -5.600   1.115  -2.909  0.00  0.00    +0.013 A 
ATOM      8  C   UNL     1      -6.387   1.351  -1.798  0.00  0.00    +0.008 A 
ATOM      9  C   UNL     1      -7.555   0.634  -1.613  0.00  0.00    +0.001 A 
ATOM     10  C   UNL     1      -7.936  -0.319  -2.539  0.00  0.00    +0.003 A 
ATOM     11  C   UNL     1      -7.150  -0.556  -3.651  0.00  0.00    +0.039 A 
ATOM     12  C   UNL     1      -5.983   0.165  -3.840  0.00  0.00    +0.129 A 
ATOM     13  F   UNL     1      -5.217  -0.063  -4.929  0.00  0.00    -0.205 F 
ENDBRANCH   2   7
BRANCH   4  14
ATOM     14  O   UNL     1      -4.359   5.506  -3.414  0.00  0.00    -0.502 OA
ATOM     15  H   UNL     1      -4.034   6.065  -2.651  0.00  0.00    +0.292 HD
ENDBRANCH   4  14
BRANCH   3  16
ATOM     16  C   UNL     1      -5.163   3.251  -5.242  0.00  0.00    +0.195 C 
ATOM     17  O   UNL     1      -6.261   3.744  -5.421  0.00  0.00    -0.287 OA
BRANCH  16  18
ATOM     18  C   UNL     1      -4.386   2.740  -6.391  0.00  0.00    +0.022 A 
ATOM     19  C   UNL     1      -3.094   2.246  -6.200  0.00  0.00    +0.014 A 
ATOM     20  C   UNL     1      -2.375   1.768  -7.276  0.00  0.00    +0.033 A 
ATOM     21  C   UNL     1      -2.929   1.786  -8.544  0.00  0.00    +0.126 A 
ATOM     22  C   UNL     1      -4.207   2.279  -8.742  0.00  0.00    +0.033 A 
ATOM     23  C   UNL     1      -4.938   2.756  -7.674  0.00  0.00    +0.014 A 
BRANCH  21  24
ATOM     24  N   UNL     1      -2.150   1.276  -9.695  0.00  0.00    +0.056 N 
ATOM     25  O   UNL     1      -2.634   1.291 -10.813  0.00  0.00    -0.126 OA
ATOM     26  O   UNL     1      -1.025   0.842  -9.525  0.00  0.00    -0.126 OA
ENDBRANCH  21  24
ENDBRANCH  16  18
ENDBRANCH   3  16
BRANCH   1  27
ATOM     27  C   UNL     1      -3.364   1.443  -0.724  0.00  0.00    +0.090 C 
BRANCH  27  28
ATOM     28  C   UNL     1      -1.882   1.102  -0.890  0.00  0.00    -0.060 C 
BRANCH  28  29
ATOM     29  N   UNL     1      -1.435   0.336   0.293  0.00  0.00    +0.380 N 
ATOM     30  H   UNL     1      -1.766   0.811   1.142  0.00  0.00    -0.082 HD
BRANCH  29  32
ATOM     31  C   UNL     1      -1.466  -1.797  -0.956  0.00  0.00    -0.017 C 
ATOM     32  C   UNL     1      -2.001  -1.028   0.254  0.00  0.00    -0.082 C 
ENDBRANCH  29  32
BRANCH  29  33
ATOM     33  C   UNL     1       0.041   0.270   0.324  0.00  0.00    -0.082 C 
ATOM     34  C   UNL     1       0.480  -0.327   1.663  0.00  0.00    -0.017 C 
ENDBRANCH  29  33
ENDBRANCH  28  29
ENDBRANCH  27  28
ENDBRANCH   1  27
TORSDOF 10
