REMARK  Name = ZINC36304001
REMARK  15 active torsions:
REMARK  status: ('A' for Active; 'I' for Inactive)
REMARK    1  A    between atoms: C_1  and  C_2
REMARK    2  A    between atoms: C_3  and  C_22
REMARK    3  A    between atoms: C_4  and  O_13
REMARK    4  A    between atoms: N_5  and  C_7
REMARK    5  A    between atoms: O_13  and  C_14
REMARK    6  A    between atoms: C_22  and  N_23
REMARK    7  A    between atoms: N_23  and  C_24
REMARK    8  A    between atoms: N_23  and  C_35
REMARK    9  A    between atoms: C_24  and  C_25
REMARK   10  A    between atoms: C_25  and  C_27
REMARK   11  A    between atoms: C_25  and  O_34
REMARK   12  A    between atoms: C_27  and  N_28
REMARK   13  A    between atoms: C_35  and  C_36
REMARK   14  A    between atoms: C_36  and  C_37
REMARK   15  A    between atoms: C_36  and  C_38
REMARK                            x       y       z     vdW  Elec       q    Type
REMARK                         _______ _______ _______ _____ _____    ______ ____
ROOT
ATOM      1  C   UNL     1      -0.212  -3.043  -2.027  0.00  0.00    +0.068 C 
ATOM      2  C   UNL     1      -1.056  -2.071  -2.810  0.00  0.00    +0.065 A 
ATOM      3  C   UNL     1      -0.907  -0.680  -2.817  0.00  0.00    +0.021 A 
ATOM      4  C   UNL     1      -1.855  -0.163  -3.644  0.00  0.00    +0.225 A 
ATOM      5  N   UNL     1      -2.578  -1.204  -4.139  0.00  0.00    -0.200 N 
ATOM      6  N   UNL     1      -2.050  -2.385  -3.602  0.00  0.00    -0.168 NA
ENDROOT
BRANCH   5   7
ATOM      7  C   UNL     1      -3.655  -1.112  -5.031  0.00  0.00    +0.069 A 
ATOM      8  C   UNL     1      -4.612  -0.120  -4.865  0.00  0.00    +0.028 A 
ATOM      9  C   UNL     1      -5.672  -0.031  -5.747  0.00  0.00    +0.002 A 
ATOM     10  C   UNL     1      -5.780  -0.929  -6.793  0.00  0.00    +0.000 A 
ATOM     11  C   UNL     1      -4.828  -1.917  -6.960  0.00  0.00    +0.002 A 
ATOM     12  C   UNL     1      -3.763  -2.008  -6.086  0.00  0.00    +0.028 A 
ENDBRANCH   5   7
BRANCH   4  13
ATOM     13  O   UNL     1      -2.046   1.151  -3.923  0.00  0.00    -0.435 OA
BRANCH  13  14
ATOM     14  C   UNL     1      -2.829   1.876  -3.080  0.00  0.00    +0.166 A 
ATOM     15  C   UNL     1      -3.316   1.300  -1.917  0.00  0.00    +0.052 A 
ATOM     16  C   UNL     1      -4.111   2.037  -1.061  0.00  0.00    +0.042 A 
ATOM     17  C   UNL     1      -4.423   3.352  -1.364  0.00  0.00    +0.126 A 
ATOM     18  C   UNL     1      -3.939   3.930  -2.525  0.00  0.00    +0.080 A 
ATOM     19  C   UNL     1      -3.138   3.197  -3.381  0.00  0.00    +0.168 A 
ATOM     20  F   UNL     1      -2.660   3.762  -4.511  0.00  0.00    -0.202 F 
ATOM     21  F   UNL     1      -5.202   4.070  -0.525  0.00  0.00    -0.205 F 
ENDBRANCH  13  14
ENDBRANCH   4  13
BRANCH   3  22
ATOM     22  C   UNL     1       0.122   0.105  -2.046  0.00  0.00    -0.036 C 
BRANCH  22  23
ATOM     23  N   UNL     1       1.364   0.184  -2.827  0.00  0.00    +0.384 N 
ATOM     24  H   UNL     1       1.684  -0.748  -3.044  0.00  0.00    -0.081 HD
BRANCH  23  25
ATOM     25  C   UNL     1       1.113   0.919  -4.074  0.00  0.00    -0.045 C 
BRANCH  25  26
ATOM     26  C   UNL     1       2.349   0.838  -4.971  0.00  0.00    +0.112 C 
BRANCH  26  27
ATOM     27  O   UNL     1       3.413   1.593  -4.386  0.00  0.00    -0.392 OA
ATOM     28  H   UNL     1       3.209   2.530  -4.264  0.00  0.00    +0.210 HD
ENDBRANCH  26  27
BRANCH  26  29
ATOM     29  C   UNL     1       2.017   1.411  -6.350  0.00  0.00    +0.114 C 
BRANCH  29  30
ATOM     30  N   UNL     1       3.194   1.300  -7.223  0.00  0.00    -0.296 NA
ATOM     31  C   UNL     1       3.092   2.221  -8.364  0.00  0.00    +0.112 C 
ATOM     32  C   UNL     1       4.362   2.116  -9.213  0.00  0.00    +0.175 C 
ATOM     33  O   UNL     1       4.542   0.759  -9.626  0.00  0.00    -0.377 OA
ATOM     34  C   UNL     1       4.646  -0.165  -8.540  0.00  0.00    +0.175 C 
ATOM     35  C   UNL     1       3.379  -0.083  -7.685  0.00  0.00    +0.112 C 
ENDBRANCH  29  30
ENDBRANCH  26  29
ENDBRANCH  25  26
ENDBRANCH  23  25
BRANCH  23  36
ATOM     36  C   UNL     1       2.391   0.884  -2.044  0.00  0.00    -0.075 C 
BRANCH  36  37
ATOM     37  C   UNL     1       2.664   0.110  -0.753  0.00  0.00    -0.034 C 
ATOM     38  C   UNL     1       3.257  -1.258  -1.095  0.00  0.00    +0.005 C 
ATOM     39  C   UNL     1       3.654   0.893   0.112  0.00  0.00    +0.005 C 
ENDBRANCH  36  37
ENDBRANCH  23  36
ENDBRANCH  22  23
ENDBRANCH   3  22
TORSDOF 12
