REMARK  Name = ZINC12455355
REMARK  11 active torsions:
REMARK  status: ('A' for Active; 'I' for Inactive)
REMARK    1  A    between atoms: C_1  and  C_2
REMARK    2  A    between atoms: C_2  and  C_3
REMARK    3  A    between atoms: C_4  and  C_20
REMARK    4  A    between atoms: C_8  and  C_19
REMARK    5  A    between atoms: N_9  and  C_10
REMARK    6  A    between atoms: C_10  and  C_11
REMARK    7  A    between atoms: C_16  and  O_17
REMARK    8  A    between atoms: O_17  and  C_18
REMARK    9  A    between atoms: N_22  and  C_23
REMARK   10  A    between atoms: C_28  and  C_29
REMARK   11  A    between atoms: C_28  and  N_70
REMARK                            x       y       z     vdW  Elec       q    Type
REMARK                         _______ _______ _______ _____ _____    ______ ____
ROOT
ATOM      1  C   UNL     1       1.249   0.353   0.860  0.00  0.00    +0.035 A 
ATOM      2  C   UNL     1       1.294  -0.990   1.176  0.00  0.00    +0.103 A 
ATOM      3  C   UNL     1       0.176  -1.844   0.746  0.00  0.00    +0.194 A 
ATOM      4  O   UNL     1       0.165  -3.039   0.994  0.00  0.00    -0.287 OA
ATOM      5  C   UNL     1      -0.887  -1.234   0.035  0.00  0.00    +0.072 A 
ATOM      6  C   UNL     1      -0.838   0.089  -0.220  0.00  0.00    +0.020 A 
ATOM      7  N   UNL     1       0.202   0.857   0.186  0.00  0.00    -0.343 N 
ATOM      8  C   UNL     1      -1.972   0.731  -0.978  0.00  0.00    +0.063 C 
ENDROOT
BRANCH   2   9
ATOM      9  C   UNL     1       2.433  -1.554   1.920  0.00  0.00    +0.250 C 
ATOM     10  O   UNL     1       3.401  -1.980   1.319  0.00  0.00    -0.270 OA
ATOM     11  N   UNL     1       2.403  -1.597   3.267  0.00  0.00    -0.308 N 
ATOM     12  H   UNL     1       1.631  -1.258   3.746  0.00  0.00    +0.149 HD
BRANCH  11  13
ATOM     13  C   UNL     1       3.537  -2.158   4.007  0.00  0.00    +0.070 C 
ATOM     14  C   UNL     1       3.380  -3.678   4.108  0.00  0.00    +0.004 C 
ATOM     15  C   UNL     1       4.534  -4.251   4.934  0.00  0.00    -0.077 C 
ATOM     16  C   UNL     1       4.721  -2.196   6.204  0.00  0.00    -0.077 C 
ATOM     17  C   UNL     1       3.573  -1.562   5.417  0.00  0.00    +0.004 C 
ATOM     18  N   UNL     1       4.498  -3.656   6.286  0.00  0.00    +0.382 N 
ATOM     19  H   UNL     1       3.575  -3.829   6.702  0.00  0.00    -0.081 HD
BRANCH  18  20
ATOM     20  C   UNL     1       5.533  -4.277   7.139  0.00  0.00    -0.043 C 
BRANCH  20  21
ATOM     21  C   UNL     1       5.160  -5.716   7.383  0.00  0.00    -0.064 A 
ATOM     22  C   UNL     1       4.367  -6.051   8.465  0.00  0.00    +0.002 A 
ATOM     23  C   UNL     1       4.020  -7.370   8.686  0.00  0.00    +0.000 A 
ATOM     24  C   UNL     1       4.475  -8.357   7.832  0.00  0.00    +0.000 A 
ATOM     25  C   UNL     1       5.273  -8.024   6.753  0.00  0.00    +0.000 A 
ATOM     26  C   UNL     1       5.615  -6.703   6.529  0.00  0.00    +0.002 A 
ENDBRANCH  20  21
ENDBRANCH  18  20
ENDBRANCH  11  13
ENDBRANCH   2   9
BRANCH   1  28
ATOM     27  C   UNL     1       2.153   1.722   2.719  0.00  0.00    +0.010 C 
ATOM     28  C   UNL     1       2.378   1.259   1.278  0.00  0.00    +0.051 C 
ENDBRANCH   1  28
BRANCH   7  29
ATOM     29  C   UNL     1       0.187   2.288  -0.126  0.00  0.00    +0.160 C 
BRANCH  29  30
ATOM     30  C   UNL     1       0.712   2.503  -1.523  0.00  0.00    +0.014 A 
ATOM     31  C   UNL     1       2.074   2.553  -1.750  0.00  0.00    +0.009 A 
ATOM     32  C   UNL     1       2.556   2.750  -3.030  0.00  0.00    +0.001 A 
ATOM     33  C   UNL     1       1.677   2.898  -4.087  0.00  0.00    +0.004 A 
ATOM     34  C   UNL     1       0.314   2.848  -3.866  0.00  0.00    +0.046 A 
ATOM     35  C   UNL     1      -0.172   2.646  -2.582  0.00  0.00    +0.125 A 
BRANCH  35  36
ATOM     36  O   UNL     1      -1.512   2.591  -2.362  0.00  0.00    -0.495 OA
ATOM     37  C   UNL     1      -2.364   2.876  -3.474  0.00  0.00    +0.277 C 
ENDBRANCH  35  36
ENDBRANCH  29  30
ENDBRANCH   7  29
TORSDOF 8
