REMARK  Name = ZINC16513083
REMARK  7 active torsions:
REMARK  status: ('A' for Active; 'I' for Inactive)
REMARK    1  A    between atoms: C_4  and  O_32
REMARK    2  A    between atoms: C_5  and  N_7
REMARK    3  A    between atoms: N_7  and  C_8
REMARK    4  A    between atoms: C_10  and  N_20
REMARK    5  A    between atoms: C_11  and  N_17
REMARK    6  A    between atoms: N_20  and  C_21
REMARK    7  A    between atoms: C_23  and  N_29
REMARK                            x       y       z     vdW  Elec       q    Type
REMARK                         _______ _______ _______ _____ _____    ______ ____
ROOT
ATOM      1  C   UNL     1      -0.057  -2.940  -0.002  0.00  0.00    +0.065 A 
ATOM      2  C   UNL     1      -1.192  -2.107  -0.040  0.00  0.00    +0.051 A 
ATOM      3  C   UNL     1      -2.461  -2.632  -0.171  0.00  0.00    +0.066 A 
ATOM      4  C   UNL     1      -2.692  -4.024  -0.273  0.00  0.00    +0.178 A 
ATOM      5  C   UNL     1      -1.609  -4.933  -0.244  0.00  0.00    +0.168 A 
ATOM      6  C   UNL     1      -0.238  -4.403  -0.111  0.00  0.00    +0.158 A 
ATOM      7  N   UNL     1       0.592  -5.408  -0.114  0.00  0.00    -0.047 NA
ATOM      8  O   UNL     1      -0.161  -6.601  -0.249  0.00  0.00    -0.241 OA
ATOM      9  N   UNL     1      -1.531  -6.244  -0.317  0.00  0.00    -0.046 NA
ENDROOT
BRANCH   4  10
ATOM     10  N   UNL     1      -4.084  -4.535  -0.412  0.00  0.00    +0.061 N 
ATOM     11  O   UNL     1      -4.611  -4.693  -1.608  0.00  0.00    -0.126 OA
ATOM     12  O   UNL     1      -4.787  -4.830   0.662  0.00  0.00    -0.126 OA
ENDBRANCH   4  10
BRANCH   1  13
ATOM     13  N   UNL     1       1.174  -2.411   0.126  0.00  0.00    -0.310 N 
ATOM     14  H   UNL     1       1.463  -2.057   0.982  0.00  0.00    +0.152 HD
BRANCH  13  19
ATOM     15  C   UNL     1       2.505  -2.923  -3.248  0.00  0.00    +0.002 A 
ATOM     16  C   UNL     1       3.738  -2.296  -3.142  0.00  0.00    +0.004 A 
ATOM     17  C   UNL     1       4.122  -1.708  -1.952  0.00  0.00    +0.047 A 
ATOM     18  C   UNL     1       3.274  -1.740  -0.857  0.00  0.00    +0.138 A 
ATOM     19  C   UNL     1       2.027  -2.372  -0.961  0.00  0.00    +0.073 A 
ATOM     20  C   UNL     1       1.651  -2.963  -2.167  0.00  0.00    +0.027 A 
BRANCH  18  21
ATOM     21  O   UNL     1       3.650  -1.163   0.313  0.00  0.00    -0.505 OA
ATOM     22  H   UNL     1       3.394  -0.234   0.393  0.00  0.00    +0.292 HD
ENDBRANCH  18  21
ENDBRANCH  13  19
ENDBRANCH   1  13
BRANCH   3  23
ATOM     23  N   UNL     1      -3.538  -1.774  -0.202  0.00  0.00    -0.311 N 
ATOM     24  H   UNL     1      -3.758  -1.302  -1.020  0.00  0.00    +0.152 HD
BRANCH  23  25
ATOM     25  C   UNL     1      -4.310  -1.583   0.942  0.00  0.00    +0.052 A 
ATOM     26  C   UNL     1      -4.015  -2.283   2.107  0.00  0.00    +0.059 A 
ATOM     27  C   UNL     1      -4.782  -2.092   3.238  0.00  0.00    +0.146 A 
ATOM     28  C   UNL     1      -5.845  -1.205   3.215  0.00  0.00    +0.073 A 
ATOM     29  C   UNL     1      -6.143  -0.506   2.058  0.00  0.00    +0.044 A 
ATOM     30  C   UNL     1      -5.376  -0.688   0.923  0.00  0.00    +0.064 A 
ATOM     31 CL   UNL     1      -5.745   0.194  -0.526  0.00  0.00    -0.082 Cl
ATOM     32 CL   UNL     1      -6.807  -0.968   4.640  0.00  0.00    -0.081 Cl
BRANCH  27  33
ATOM     33  N   UNL     1      -4.468  -2.837   4.479  0.00  0.00    +0.058 N 
ATOM     34  O   UNL     1      -3.388  -3.587   4.540  0.00  0.00    -0.126 OA
ATOM     35  O   UNL     1      -5.269  -2.748   5.520  0.00  0.00    -0.126 OA
ENDBRANCH  27  33
ENDBRANCH  23  25
ENDBRANCH   3  23
TORSDOF 7
