REMARK  Name = ZINC03114895
REMARK  6 active torsions:
REMARK  status: ('A' for Active; 'I' for Inactive)
REMARK    1  A    between atoms: C_1  and  C_2
REMARK    2  A    between atoms: C_4  and  S_20
REMARK    3  A    between atoms: C_5  and  C_19
REMARK    4  A    between atoms: C_6  and  S_8
REMARK    5  A    between atoms: S_8  and  N_11
REMARK    6  A    between atoms: S_20  and  C_23
REMARK                            x       y       z     vdW  Elec       q    Type
REMARK                         _______ _______ _______ _____ _____    ______ ____
ROOT
ATOM      1  C   UNL     1       7.268  -0.210  -4.953  0.00  0.00    +0.044 C 
ATOM      2  C   UNL     1       6.156  -0.242  -3.936  0.00  0.00    -0.047 A 
ATOM      3  C   UNL     1       4.858  -0.495  -4.340  0.00  0.00    +0.031 A 
ATOM      4  C   UNL     1       3.838  -0.524  -3.407  0.00  0.00    +0.099 A 
ATOM      5  C   UNL     1       4.116  -0.301  -2.071  0.00  0.00    +0.001 A 
ATOM      6  C   UNL     1       5.413  -0.049  -1.668  0.00  0.00    +0.113 A 
ATOM      7  C   UNL     1       6.433  -0.015  -2.602  0.00  0.00    +0.032 A 
ATOM      8  C   UNL     1       3.004  -0.333  -1.055  0.00  0.00    +0.048 C 
ENDROOT
BRANCH   6   9
ATOM      9  S   UNL     1       5.768   0.235   0.034  0.00  0.00    +0.074 S 
ATOM     10  O   UNL     1       4.720   1.054   0.536  0.00  0.00    -0.150 OA
ATOM     11  O   UNL     1       7.134   0.618   0.106  0.00  0.00    -0.150 OA
BRANCH   9  12
ATOM     12  N   UNL     1       5.643  -1.222   0.810  0.00  0.00    -0.199 N 
ATOM     13  C   UNL     1       6.451  -2.287   0.425  0.00  0.00    +0.138 A 
ATOM     14  C   UNL     1       6.425  -3.471   1.155  0.00  0.00    +0.046 A 
ATOM     15  C   UNL     1       7.233  -4.522   0.762  0.00  0.00    +0.025 A 
ATOM     16  C   UNL     1       8.045  -4.352  -0.353  0.00  0.00    +0.059 A 
ATOM     17  C   UNL     1       8.020  -3.149  -1.031  0.00  0.00    +0.133 A 
ATOM     18  N   UNL     1       7.238  -2.164  -0.632  0.00  0.00    -0.238 NA
ATOM     19 CL   UNL     1       9.079  -5.639  -0.889  0.00  0.00    -0.082 Cl
ATOM     20  H   UNL     1       5.005  -1.334   1.533  0.00  0.00    +0.175 HD
ENDBRANCH   9  12
ENDBRANCH   6   9
BRANCH   4  21
ATOM     21  S   UNL     1       2.183  -0.846  -3.921  0.00  0.00    +0.025 S 
ATOM     22  O   UNL     1       1.358   0.090  -3.242  0.00  0.00    -0.164 OA
ATOM     23  O   UNL     1       2.211  -0.951  -5.338  0.00  0.00    -0.164 OA
BRANCH  21  24
ATOM     24  C   UNL     1       1.748  -2.439  -3.307  0.00  0.00    +0.094 A 
ATOM     25  C   UNL     1       2.172  -3.575  -3.971  0.00  0.00    +0.029 A 
ATOM     26  C   UNL     1       1.836  -4.825  -3.487  0.00  0.00    +0.022 A 
ATOM     27  C   UNL     1       1.065  -4.940  -2.344  0.00  0.00    +0.041 A 
ATOM     28  C   UNL     1       0.636  -3.802  -1.683  0.00  0.00    +0.022 A 
ATOM     29  C   UNL     1       0.978  -2.553  -2.165  0.00  0.00    +0.029 A 
ATOM     30 CL   UNL     1       0.637  -6.509  -1.738  0.00  0.00    -0.084 Cl
ENDBRANCH  21  24
ENDBRANCH   4  21
TORSDOF 4
