REMARK  Name = ZINC13063671
REMARK  11 active torsions:
REMARK  status: ('A' for Active; 'I' for Inactive)
REMARK    1  A    between atoms: C_1  and  C_2
REMARK    2  A    between atoms: C_2  and  C_3
REMARK    3  A    between atoms: C_10  and  C_15
REMARK    4  A    between atoms: C_15  and  N_70
REMARK    5  A    between atoms: C_16  and  N_70
REMARK    6  A    between atoms: C_21  and  C_23
REMARK    7  A    between atoms: C_21  and  C_25
REMARK    8  A    between atoms: C_21  and  N_70
REMARK    9  A    between atoms: C_23  and  C_24
REMARK   10  A    between atoms: N_29  and  C_30
REMARK   11  A    between atoms: C_30  and  C_31
REMARK                            x       y       z     vdW  Elec       q    Type
REMARK                         _______ _______ _______ _____ _____    ______ ____
ROOT
ATOM      1  N   UNL     1      -1.643   3.485   0.255  0.00  0.00    +0.391 N 
ATOM      2  H   UNL     1      -2.541   3.116   0.590  0.00  0.00    -0.080 HD
ENDROOT
BRANCH   1   3
ATOM      3  C   UNL     1      -1.663   4.960   0.356  0.00  0.00    -0.067 C 
ATOM      4  C   UNL     1      -1.589   5.380   1.839  0.00  0.00    -0.015 C 
ATOM      5  C   UNL     1      -2.534   6.603   1.935  0.00  0.00    -0.002 C 
ATOM      6  C   UNL     1      -3.697   6.212   0.989  0.00  0.00    -0.002 C 
ATOM      7  C   UNL     1      -3.003   5.489  -0.184  0.00  0.00    -0.015 C 
ENDBRANCH   1   3
BRANCH   1   8
ATOM      8  C   UNL     1      -1.452   3.078  -1.153  0.00  0.00    -0.036 C 
BRANCH   8  16
ATOM      9  C   UNL     1      -5.577   5.834  -4.851  0.00  0.00    -0.047 A 
ATOM     10  C   UNL     1      -6.574   4.879  -4.712  0.00  0.00    +0.005 A 
ATOM     11  C   UNL     1      -6.381   3.772  -3.914  0.00  0.00    +0.026 A 
ATOM     12  C   UNL     1      -5.174   3.608  -3.241  0.00  0.00    +0.049 A 
ATOM     13  C   UNL     1      -4.165   4.579  -3.385  0.00  0.00    -0.001 A 
ATOM     14  C   UNL     1      -4.384   5.695  -4.200  0.00  0.00    +0.013 A 
ATOM     15  C   UNL     1      -2.901   4.400  -2.669  0.00  0.00    +0.017 A 
ATOM     16  C   UNL     1      -2.744   3.296  -1.899  0.00  0.00    +0.001 A 
ATOM     17  C   UNL     1      -3.787   2.351  -1.788  0.00  0.00    +0.251 A 
ATOM     18  O   UNL     1      -3.626   1.368  -1.087  0.00  0.00    -0.268 OA
ATOM     19  N   UNL     1      -4.953   2.510  -2.438  0.00  0.00    -0.322 N 
ATOM     20  H   UNL     1      -5.650   1.841  -2.340  0.00  0.00    +0.169 HD
BRANCH   9  22
ATOM     21  C   UNL     1      -5.359   6.723  -7.156  0.00  0.00    +0.009 C 
ATOM     22  C   UNL     1      -5.812   7.037  -5.728  0.00  0.00    +0.032 C 
ENDBRANCH   9  22
ENDBRANCH   8  16
ENDBRANCH   1   8
BRANCH   1  23
ATOM     23  C   UNL     1      -0.556   2.936   1.092  0.00  0.00    +0.003 C 
BRANCH  23  24
ATOM     24  C   UNL     1      -0.848   1.484   1.370  0.00  0.00    +0.138 A 
ATOM     25  N   UNL     1      -1.203   0.576   0.494  0.00  0.00    -0.115 NA
ATOM     26  N   UNL     1      -1.357  -0.541   1.118  0.00  0.00    -0.023 NA
ATOM     27  N   UNL     1      -1.117  -0.367   2.371  0.00  0.00    -0.044 NA
ATOM     28  N   UNL     1      -0.799   0.869   2.566  0.00  0.00    -0.228 N 
BRANCH  28  29
ATOM     29  C   UNL     1      -0.451   1.486   3.848  0.00  0.00    +0.178 C 
BRANCH  29  30
ATOM     30  C   UNL     1      -1.718   2.023   4.516  0.00  0.00    +0.140 C 
ATOM     31  C   UNL     1      -1.347   2.776   5.812  0.00  0.00    +0.035 C 
ATOM     32  C   UNL     1      -2.489   2.355   6.776  0.00  0.00    +0.031 C 
ATOM     33  C   UNL     1      -2.753   0.903   6.304  0.00  0.00    +0.160 C 
ATOM     34  O   UNL     1      -2.575   0.934   4.879  0.00  0.00    -0.375 OA
ENDBRANCH  29  30
ENDBRANCH  28  29
ENDBRANCH  23  24
BRANCH  23  35
ATOM     35  C   UNL     1       0.788   3.057   0.371  0.00  0.00    -0.011 C 
ATOM     36  C   UNL     1       1.157   4.535   0.225  0.00  0.00    +0.002 C 
ENDBRANCH  23  35
ENDBRANCH   1  23
TORSDOF 9
