REMARK  Name = ZINC39897456
REMARK  12 active torsions:
REMARK  status: ('A' for Active; 'I' for Inactive)
REMARK    1  A    between atoms: C_1  and  C_2
REMARK    2  A    between atoms: C_7  and  C_8
REMARK    3  A    between atoms: C_8  and  C_9
REMARK    4  A    between atoms: N_13  and  C_30
REMARK    5  A    between atoms: C_15  and  C_16
REMARK    6  A    between atoms: C_15  and  C_18
REMARK    7  A    between atoms: N_20  and  C_21
REMARK    8  A    between atoms: C_26  and  O_27
REMARK    9  A    between atoms: O_27  and  C_28
REMARK   10  A    between atoms: C_33  and  C_36
REMARK   11  A    between atoms: C_36  and  C_37
REMARK   12  A    between atoms: C_36  and  C_38
REMARK                            x       y       z     vdW  Elec       q    Type
REMARK                         _______ _______ _______ _____ _____    ______ ____
ROOT
ATOM      1  C   UNL     1      -0.964  -0.414   3.292  0.00  0.00    +0.143 C 
ATOM      2  C   UNL     1      -0.917   0.672   4.354  0.00  0.00    +0.238 C 
ATOM      3  O   UNL     1      -0.035   1.504   4.388  0.00  0.00    -0.274 OA
ATOM      4  N   UNL     1      -1.899   0.653   5.239  0.00  0.00    -0.232 N 
ATOM      5  C   UNL     1      -2.903  -0.284   5.211  0.00  0.00    +0.098 C 
ATOM      6  C   UNL     1      -3.987  -0.412   6.080  0.00  0.00    +0.142 C 
ATOM      7  S   UNL     1      -2.495  -1.301   3.798  0.00  0.00    -0.095 S 
ENDROOT
BRANCH   4   8
ATOM      8  C   UNL     1      -1.916   1.627   6.246  0.00  0.00    +0.042 A 
ATOM      9  C   UNL     1      -2.391   2.902   5.973  0.00  0.00    +0.024 A 
ATOM     10  C   UNL     1      -2.406   3.860   6.968  0.00  0.00    +0.006 A 
ATOM     11  C   UNL     1      -1.949   3.550   8.235  0.00  0.00    -0.045 A 
ATOM     12  C   UNL     1      -1.475   2.281   8.511  0.00  0.00    +0.006 A 
ATOM     13  C   UNL     1      -1.463   1.317   7.522  0.00  0.00    +0.024 A 
BRANCH  11  14
ATOM     14  C   UNL     1      -1.966   4.598   9.318  0.00  0.00    +0.013 C 
ATOM     15  C   UNL     1      -2.843   4.119  10.477  0.00  0.00    +0.012 C 
ATOM     16  C   UNL     1      -0.541   4.835   9.821  0.00  0.00    +0.012 C 
ENDBRANCH  11  14
ENDBRANCH   4   8
BRANCH   6  17
ATOM     17  C   UNL     1      -4.970  -1.474   5.872  0.00  0.00    +0.261 C 
ATOM     18  O   UNL     1      -4.842  -2.248   4.941  0.00  0.00    -0.269 OA
ATOM     19  N   UNL     1      -6.017  -1.597   6.712  0.00  0.00    -0.278 N 
ATOM     20  H   UNL     1      -6.171  -0.928   7.397  0.00  0.00    +0.155 HD
BRANCH  19  21
ATOM     21  C   UNL     1      -6.884  -2.691   6.594  0.00  0.00    +0.076 A 
ATOM     22  C   UNL     1      -6.473  -3.837   5.928  0.00  0.00    +0.027 A 
ATOM     23  C   UNL     1      -7.330  -4.915   5.814  0.00  0.00    +0.002 A 
ATOM     24  C   UNL     1      -8.597  -4.856   6.363  0.00  0.00    +0.004 A 
ATOM     25  C   UNL     1      -9.014  -3.718   7.028  0.00  0.00    +0.047 A 
ATOM     26  C   UNL     1      -8.160  -2.635   7.152  0.00  0.00    +0.141 A 
BRANCH  26  27
ATOM     27  O   UNL     1      -8.566  -1.517   7.811  0.00  0.00    -0.493 OA
ATOM     28  C   UNL     1      -9.887  -1.530   8.356  0.00  0.00    +0.277 C 
ENDBRANCH  26  27
ENDBRANCH  19  21
ENDBRANCH   6  17
BRANCH   6  29
ATOM     29  C   UNL     1      -4.138   0.499   7.175  0.00  0.00    +0.107 C 
ATOM     30  N   UNL     1      -4.257   1.221   8.044  0.00  0.00    -0.191 NA
ENDBRANCH   6  29
BRANCH   1  31
ATOM     31  C   UNL     1       0.260  -1.328   3.377  0.00  0.00    +0.059 C 
BRANCH  31  38
ATOM     32  C   UNL     1       1.240  -0.725   0.727  0.00  0.00    +0.044 C 
ATOM     33  C   UNL     1       0.655  -2.082   1.023  0.00  0.00    -0.047 A 
ATOM     34  C   UNL     1       0.593  -3.040   0.029  0.00  0.00    +0.003 A 
ATOM     35  C   UNL     1       0.056  -4.284   0.300  0.00  0.00    +0.000 A 
ATOM     36  C   UNL     1      -0.418  -4.571   1.567  0.00  0.00    +0.000 A 
ATOM     37  C   UNL     1      -0.354  -3.614   2.562  0.00  0.00    +0.004 A 
ATOM     38  C   UNL     1       0.186  -2.370   2.291  0.00  0.00    -0.043 A 
ENDBRANCH  31  38
ENDBRANCH   1  31
TORSDOF 8
