REMARK  Name = ZINC39396016
REMARK  5 active torsions:
REMARK  status: ('A' for Active; 'I' for Inactive)
REMARK    1  A    between atoms: C_6  and  C_7
REMARK    2  A    between atoms: C_11  and  C_13
REMARK    3  A    between atoms: C_14  and  C_15
REMARK    4  A    between atoms: C_14  and  C_17
REMARK    5  A    between atoms: N_19  and  C_20
REMARK                            x       y       z     vdW  Elec       q    Type
REMARK                         _______ _______ _______ _____ _____    ______ ____
ROOT
ATOM      1  C   UNL     1      -0.793  -2.825  -1.245  0.00  0.00    +0.012 C 
ATOM      2  C   UNL     1       0.243  -3.680  -1.156  0.00  0.00    +0.110 C 
ENDROOT
BRANCH   1   7
ATOM      3  C   UNL     1      -1.340  -0.566  -0.363  0.00  0.00    +0.083 C 
ATOM      4  N   UNL     1      -2.592  -0.252  -0.170  0.00  0.00    -0.153 NA
ATOM      5  N   UNL     1      -3.347  -1.339   0.257  0.00  0.00    -0.161 NA
ATOM      6  C   UNL     1      -2.643  -2.418   0.367  0.00  0.00    +0.121 C 
ATOM      7  C   UNL     1      -1.230  -2.042  -0.034  0.00  0.00    +0.107 C 
BRANCH   3  13
ATOM      8  C   UNL     1      -0.526   1.673  -1.077  0.00  0.00    +0.011 A 
ATOM      9  C   UNL     1       0.491   2.503  -1.498  0.00  0.00    +0.020 A 
ATOM     10  C   UNL     1       1.774   2.005  -1.661  0.00  0.00    +0.041 A 
ATOM     11  C   UNL     1       2.044   0.671  -1.401  0.00  0.00    +0.020 A 
ATOM     12  C   UNL     1       1.037  -0.170  -0.979  0.00  0.00    +0.011 A 
ATOM     13  C   UNL     1      -0.260   0.326  -0.813  0.00  0.00    -0.001 A 
ATOM     14 CL   UNL     1       3.048   3.057  -2.193  0.00  0.00    -0.084 Cl
ENDBRANCH   3  13
ENDBRANCH   1   7
BRANCH   2  15
ATOM     15  C   UNL     1       0.756  -4.083   0.170  0.00  0.00    +0.254 C 
ATOM     16  O   UNL     1       0.163  -3.752   1.178  0.00  0.00    -0.269 OA
ATOM     17  N   UNL     1       1.881  -4.819   0.261  0.00  0.00    -0.308 N 
ATOM     18  H   UNL     1       2.355  -5.084  -0.543  0.00  0.00    +0.149 HD
BRANCH  17  19
ATOM     19  C   UNL     1       2.390  -5.220   1.575  0.00  0.00    +0.073 C 
ATOM     20  C   UNL     1       3.196  -4.051   2.176  0.00  0.00    +0.022 C 
ATOM     21  C   UNL     1       3.276  -4.242   3.667  0.00  0.00    +0.002 C 
ATOM     22  C   UNL     1       4.561  -4.974   4.099  0.00  0.00    +0.000 C 
ATOM     23  C   UNL     1       4.919  -6.151   3.171  0.00  0.00    +0.000 C 
ATOM     24  C   UNL     1       3.713  -6.958   2.774  0.00  0.00    +0.002 C 
ATOM     25  C   UNL     1       3.190  -6.426   1.424  0.00  0.00    +0.022 C 
ENDBRANCH  17  19
ENDBRANCH   2  15
BRANCH   2  26
ATOM     26  C   UNL     1       0.849  -4.197  -2.346  0.00  0.00    +0.104 C 
ATOM     27  N   UNL     1       1.330  -4.607  -3.290  0.00  0.00    -0.191 NA
ENDBRANCH   2  26
TORSDOF 5
