REMARK  Name = ZINC11023098
REMARK  10 active torsions:
REMARK  status: ('A' for Active; 'I' for Inactive)
REMARK    1  A    between atoms: C_1  and  C_2
REMARK    2  A    between atoms: C_2  and  C_3
REMARK    3  A    between atoms: C_3  and  C_4
REMARK    4  A    between atoms: C_4  and  N_5
REMARK    5  A    between atoms: C_18  and  S_19
REMARK    6  A    between atoms: S_19  and  C_20
REMARK    7  A    between atoms: C_20  and  C_21
REMARK    8  A    between atoms: N_23  and  C_24
REMARK    9  A    between atoms: C_29  and  C_34
REMARK   10  A    between atoms: C_31  and  C_33
REMARK                            x       y       z     vdW  Elec       q    Type
REMARK                         _______ _______ _______ _____ _____    ______ ____
ROOT
ATOM      1  N   UNL     1       0.002  -0.004   0.002  0.00  0.00    -0.277 N 
ATOM      2  C   UNL     1       1.167  -0.684  -0.012  0.00  0.00    +0.263 A 
ATOM      3  O   UNL     1       1.174  -1.900  -0.018  0.00  0.00    -0.267 OA
ATOM      4  C   UNL     1       2.432   0.074  -0.020  0.00  0.00    +0.064 A 
ATOM      5  C   UNL     1       3.664  -0.577  -0.035  0.00  0.00    +0.015 A 
ATOM      6  C   UNL     1       4.827   0.165  -0.041  0.00  0.00    +0.001 A 
ATOM      7  C   UNL     1       4.773   1.550  -0.034  0.00  0.00    +0.002 A 
ATOM      8  C   UNL     1       3.558   2.206  -0.019  0.00  0.00    +0.027 A 
ATOM      9  C   UNL     1       2.380   1.476  -0.013  0.00  0.00    +0.064 A 
ATOM     10  N   UNL     1       1.140   2.112   0.003  0.00  0.00    -0.256 N 
ATOM     11  C   UNL     1      -0.017   1.382   0.010  0.00  0.00    +0.240 A 
ATOM     12  N   UNL     1      -1.024   2.226   0.029  0.00  0.00    -0.109 NA
ATOM     13  N   UNL     1      -0.503   3.526   0.026  0.00  0.00    -0.120 NA
ATOM     14  C   UNL     1       0.804   3.439   0.013  0.00  0.00    +0.198 A 
ENDROOT
BRANCH   1  15
ATOM     15  C   UNL     1      -1.263  -0.742   0.010  0.00  0.00    +0.128 C 
BRANCH  15  16
ATOM     16  C   UNL     1      -1.718  -0.992  -1.429  0.00  0.00    +0.021 C 
BRANCH  16  18
ATOM     17  C   UNL     1      -3.493  -2.012  -2.861  0.00  0.00    +0.004 C 
ATOM     18  C   UNL     1      -3.039  -1.762  -1.421  0.00  0.00    -0.002 C 
ENDBRANCH  16  18
ENDBRANCH  15  16
ENDBRANCH   1  15
BRANCH  14  19
ATOM     19  S   UNL     1       1.932   4.793   0.008  0.00  0.00    -0.076 S 
BRANCH  19  20
ATOM     20  C   UNL     1       0.861   6.257   0.027  0.00  0.00    +0.173 C 
BRANCH  20  21
ATOM     21  C   UNL     1       1.710   7.502   0.025  0.00  0.00    +0.224 C 
ATOM     22  O   UNL     1       2.919   7.410   0.012  0.00  0.00    -0.275 OA
ATOM     23  N   UNL     1       1.126   8.716   0.037  0.00  0.00    -0.312 N 
ATOM     24  H   UNL     1       0.159   8.789   0.047  0.00  0.00    +0.149 HD
BRANCH  23  25
ATOM     25  C   UNL     1       1.952   9.926   0.035  0.00  0.00    +0.076 C 
ATOM     26  C   UNL     1       2.329  10.284  -1.405  0.00  0.00    +0.022 C 
ATOM     27  C   UNL     1       3.191  11.548  -1.407  0.00  0.00    +0.002 C 
ATOM     28  C   UNL     1       2.405  12.703  -0.783  0.00  0.00    +0.003 C 
ATOM     29  C   UNL     1       2.029  12.345   0.656  0.00  0.00    -0.009 C 
ATOM     30  C   UNL     1       1.166  11.081   0.658  0.00  0.00    +0.009 C 
ATOM     31  C   UNL     1       0.789  10.724   2.097  0.00  0.00    +0.009 C 
ATOM     32  C   UNL     1       1.243  13.500   1.280  0.00  0.00    +0.008 C 
ENDBRANCH  23  25
ENDBRANCH  20  21
ENDBRANCH  19  20
ENDBRANCH  14  19
TORSDOF 7
