REMARK  Name = ZINC08860811
REMARK  7 active torsions:
REMARK  status: ('A' for Active; 'I' for Inactive)
REMARK    1  A    between atoms: C_4  and  C_7
REMARK    2  A    between atoms: C_7  and  C_8
REMARK    3  A    between atoms: C_8  and  N_9
REMARK    4  A    between atoms: C_10  and  C_12
REMARK    5  A    between atoms: C_17  and  N_18
REMARK    6  A    between atoms: C_19  and  C_21
REMARK    7  A    between atoms: C_21  and  N_22
REMARK                            x       y       z     vdW  Elec       q    Type
REMARK                         _______ _______ _______ _____ _____    ______ ____
ROOT
ATOM      1  N   UNL     1       0.002  -0.004   0.003  0.00  0.00    -0.284 N 
ATOM      2  C   UNL     1      -0.016   1.343   0.007  0.00  0.00    +0.235 C 
ATOM      3  O   UNL     1      -1.075   1.935   0.005  0.00  0.00    -0.274 OA
ATOM      4  H   UNL     1       0.845  -0.477  -0.079  0.00  0.00    +0.155 HD
ENDROOT
BRANCH   1  10
ATOM      5  C   UNL     1      -1.280  -2.022  -0.392  0.00  0.00    +0.058 A 
ATOM      6  C   UNL     1      -2.480  -2.727  -0.272  0.00  0.00    +0.015 A 
ATOM      7  C   UNL     1      -3.564  -2.138   0.341  0.00  0.00    +0.001 A 
ATOM      8  C   UNL     1      -3.471  -0.849   0.841  0.00  0.00    +0.002 A 
ATOM      9  C   UNL     1      -2.291  -0.142   0.734  0.00  0.00    +0.024 A 
ATOM     10  C   UNL     1      -1.189  -0.718   0.115  0.00  0.00    +0.046 A 
BRANCH   5  12
ATOM     11  N   UNL     1      -0.234  -3.860  -1.621  0.00  0.00    -0.311 N 
ATOM     12  C   UNL     1      -0.115  -2.647  -1.047  0.00  0.00    +0.246 C 
ATOM     13  O   UNL     1       0.954  -2.066  -1.069  0.00  0.00    -0.270 OA
ATOM     14  H   UNL     1      -1.087  -4.323  -1.603  0.00  0.00    +0.149 HD
BRANCH  11  15
ATOM     15  C   UNL     1       0.922  -4.480  -2.272  0.00  0.00    +0.109 C 
BRANCH  15  16
ATOM     16  C   UNL     1       0.519  -5.843  -2.838  0.00  0.00    +0.054 C 
BRANCH  16  20
ATOM     17  C   UNL     1       3.892  -7.651  -4.736  0.00  0.00    +0.000 A 
ATOM     18  C   UNL     1       3.650  -7.878  -3.394  0.00  0.00    +0.000 A 
ATOM     19  C   UNL     1       2.559  -7.293  -2.780  0.00  0.00    +0.004 A 
ATOM     20  C   UNL     1       1.709  -6.481  -3.507  0.00  0.00    -0.046 A 
ATOM     21  C   UNL     1       1.948  -6.258  -4.851  0.00  0.00    +0.004 A 
ATOM     22  C   UNL     1       3.042  -6.839  -5.464  0.00  0.00    +0.000 A 
ENDBRANCH  16  20
ENDBRANCH  15  16
ENDBRANCH  11  15
ENDBRANCH   5  12
ENDBRANCH   1  10
BRANCH   2  23
ATOM     23  C   UNL     1       1.278   2.115   0.007  0.00  0.00    +0.214 C 
BRANCH  23  24
ATOM     24  N   UNL     1       0.991   3.551   0.012  0.00  0.00    -0.215 N 
ATOM     25  C   UNL     1       0.844   4.289   1.129  0.00  0.00    +0.247 C 
ATOM     26  O   UNL     1       0.920   3.903   2.275  0.00  0.00    -0.273 OA
ATOM     27  C   UNL     1       0.564   5.706   0.656  0.00  0.00    +0.113 C 
ATOM     28  C   UNL     1       1.761   6.590   1.071  0.00  0.00    +0.035 C 
ATOM     29  C   UNL     1       1.819   7.785   0.161  0.00  0.00    +0.003 C 
ATOM     30  C   UNL     1       1.082   9.009   0.740  0.00  0.00    +0.000 C 
ATOM     31  C   UNL     1      -0.259   8.641   1.403  0.00  0.00    +0.000 C 
ATOM     32  C   UNL     1      -1.030   7.625   0.605  0.00  0.00    +0.003 C 
ATOM     33  C   UNL     1      -0.703   6.223   1.155  0.00  0.00    +0.035 C 
ATOM     34  N   UNL     1       0.585   5.581  -0.816  0.00  0.00    -0.285 N 
ATOM     35  C   UNL     1       0.848   4.292  -1.092  0.00  0.00    +0.310 C 
ATOM     36  O   UNL     1       0.941   3.849  -2.220  0.00  0.00    -0.252 OA
ATOM     37  H   UNL     1       0.441   6.293  -1.459  0.00  0.00    +0.151 HD
ENDBRANCH  23  24
ENDBRANCH   2  23
TORSDOF 7
