REMARK  Name = ZINC27550628
REMARK  10 active torsions:
REMARK  status: ('A' for Active; 'I' for Inactive)
REMARK    1  A    between atoms: C_1  and  C_2
REMARK    2  A    between atoms: C_4  and  C_9
REMARK    3  A    between atoms: C_5  and  S_7
REMARK    4  A    between atoms: S_7  and  C_8
REMARK    5  A    between atoms: C_11  and  C_33
REMARK    6  A    between atoms: C_12  and  N_32
REMARK    7  A    between atoms: N_13  and  C_23
REMARK    8  A    between atoms: C_19  and  C_21
REMARK    9  A    between atoms: C_19  and  C_22
REMARK   10  A    between atoms: C_28  and  N_29
REMARK                            x       y       z     vdW  Elec       q    Type
REMARK                         _______ _______ _______ _____ _____    ______ ____
ROOT
ATOM      1  C   UNL     1      -0.405  -4.209  -0.758  0.00  0.00    +0.099 C 
ATOM      2  C   UNL     1      -1.308  -4.806   0.281  0.00  0.00    +0.077 C 
ATOM      3  C   UNL     1      -2.270  -4.062   0.886  0.00  0.00    +0.107 C 
ATOM      4  N   UNL     1      -2.426  -2.735   0.556  0.00  0.00    -0.258 N 
ATOM      5  C   UNL     1      -1.411  -2.046  -0.055  0.00  0.00    +0.025 C 
ATOM      6  C   UNL     1      -0.418  -2.703  -0.690  0.00  0.00    +0.025 C 
ATOM      7  C   UNL     1       0.637  -2.005  -1.304  0.00  0.00    +0.162 C 
ATOM      8  O   UNL     1       1.510  -2.626  -1.877  0.00  0.00    -0.292 OA
ATOM      9  C   UNL     1       0.710  -0.502  -1.262  0.00  0.00    +0.086 C 
ATOM     10  C   UNL     1       0.002  -0.004   0.002  0.00  0.00    -0.023 C 
ATOM     11  C   UNL     1      -1.432  -0.538   0.003  0.00  0.00    +0.058 C 
ATOM     12  C   UNL     1      -0.019   1.526   0.010  0.00  0.00    +0.011 C 
ATOM     13  C   UNL     1       0.741  -0.515   1.240  0.00  0.00    +0.011 C 
ENDROOT
BRANCH   1  17
ATOM     14  C   UNL     1      -3.840  -4.521  -4.505  0.00  0.00    +0.051 C 
ATOM     15  C   UNL     1      -2.524  -4.736  -3.804  0.00  0.00    -0.012 A 
ATOM     16  C   UNL     1      -2.142  -4.335  -2.568  0.00  0.00    +0.016 A 
ATOM     17  C   UNL     1      -0.868  -4.644  -2.124  0.00  0.00    -0.014 A 
ATOM     18  C   UNL     1      -0.042  -5.354  -2.944  0.00  0.00    +0.049 A 
ATOM     19  S   UNL     1      -1.069  -5.593  -4.384  0.00  0.00    -0.087 S 
BRANCH  18  20
ATOM     20  S   UNL     1       1.609  -5.896  -2.656  0.00  0.00    -0.121 S 
ATOM     21  C   UNL     1       2.055  -6.773  -4.180  0.00  0.00    +0.090 C 
ENDBRANCH  18  20
ENDBRANCH   1  17
BRANCH   4  22
ATOM     22  C   UNL     1      -3.630  -2.084   0.847  0.00  0.00    +0.070 A 
ATOM     23  C   UNL     1      -4.661  -2.079  -0.085  0.00  0.00    +0.026 A 
ATOM     24  C   UNL     1      -5.848  -1.436   0.205  0.00  0.00    +0.002 A 
ATOM     25  C   UNL     1      -6.012  -0.798   1.421  0.00  0.00    +0.002 A 
ATOM     26  C   UNL     1      -4.988  -0.801   2.350  0.00  0.00    +0.034 A 
ATOM     27  C   UNL     1      -3.800  -1.447   2.069  0.00  0.00    +0.148 A 
BRANCH  27  28
ATOM     28  N   UNL     1      -2.706  -1.455   3.066  0.00  0.00    +0.058 N 
ATOM     29  O   UNL     1      -2.856  -0.896   4.138  0.00  0.00    -0.126 OA
ATOM     30  O   UNL     1      -1.657  -2.020   2.815  0.00  0.00    -0.126 OA
ENDBRANCH  27  28
ENDBRANCH   4  22
BRANCH   3  31
ATOM     31  N   UNL     1      -3.089  -4.635   1.829  0.00  0.00    -0.345 N 
ATOM     32  H   UNL     1      -3.868  -4.033   2.320  0.00  0.00    +0.144 HD
ATOM     33  H   UNL     1      -2.965  -5.696   2.093  0.00  0.00    +0.144 HD
ENDBRANCH   3  31
BRANCH   2  34
ATOM     34  C   UNL     1      -1.153  -6.184   0.640  0.00  0.00    +0.099 C 
ATOM     35  N   UNL     1      -1.030  -7.276   0.926  0.00  0.00    -0.191 NA
ENDBRANCH   2  34
TORSDOF 6
