REMARK  Name = ZINC14233418
REMARK  10 active torsions:
REMARK  status: ('A' for Active; 'I' for Inactive)
REMARK    1  A    between atoms: C_1  and  C_2
REMARK    2  A    between atoms: C_5  and  N_18
REMARK    3  A    between atoms: C_7  and  S_8
REMARK    4  A    between atoms: S_8  and  N_11
REMARK    5  A    between atoms: C_19  and  C_21
REMARK    6  A    between atoms: C_21  and  C_22
REMARK    7  A    between atoms: C_22  and  C_23
REMARK    8  A    between atoms: C_24  and  C_34
REMARK    9  A    between atoms: C_25  and  C_32
REMARK   10  A    between atoms: C_30  and  C_31
REMARK                            x       y       z     vdW  Elec       q    Type
REMARK                         _______ _______ _______ _____ _____    ______ ____
ROOT
ATOM      1  N   UNL     1       4.858   5.314   2.677  0.00  0.00    -0.285 N 
ATOM      2  C   UNL     1       3.882   5.487   1.764  0.00  0.00    +0.218 C 
ATOM      3  O   UNL     1       3.978   6.364   0.932  0.00  0.00    -0.275 OA
ATOM      4  H   UNL     1       4.747   4.663   3.388  0.00  0.00    +0.155 HD
ENDROOT
BRANCH   1   9
ATOM      5  C   UNL     1       9.612   8.393   2.365  0.00  0.00    +0.046 C 
ATOM      6  C   UNL     1       8.349   7.575   2.448  0.00  0.00    -0.024 A 
ATOM      7  C   UNL     1       7.617   7.319   1.303  0.00  0.00    +0.007 A 
ATOM      8  C   UNL     1       6.462   6.565   1.375  0.00  0.00    +0.023 A 
ATOM      9  C   UNL     1       6.030   6.073   2.600  0.00  0.00    +0.035 A 
ATOM     10  C   UNL     1       6.768   6.332   3.748  0.00  0.00    +0.052 A 
ATOM     11  C   UNL     1       7.926   7.082   3.668  0.00  0.00    +0.110 A 
BRANCH  11  12
ATOM     12  S   UNL     1       8.862   7.412   5.124  0.00  0.00    +0.061 S 
ATOM     13  O   UNL     1       9.135   8.806   5.124  0.00  0.00    -0.153 OA
ATOM     14  O   UNL     1       8.188   6.767   6.196  0.00  0.00    -0.153 OA
BRANCH  12  15
ATOM     15  N   UNL     1      10.320   6.644   4.952  0.00  0.00    -0.177 NA
ATOM     16  C   UNL     1      10.405   5.238   5.278  0.00  0.00    +0.109 C 
ATOM     17  C   UNL     1      10.755   5.065   6.771  0.00  0.00    +0.017 C 
ATOM     18  C   UNL     1      12.151   5.457   7.017  0.00  0.00    +0.001 C 
ATOM     19  C   UNL     1      12.453   6.924   6.724  0.00  0.00    +0.001 C 
ATOM     20  C   UNL     1      12.764   7.087   5.257  0.00  0.00    +0.017 C 
ATOM     21  C   UNL     1      11.479   7.425   4.478  0.00  0.00    +0.109 C 
ENDBRANCH  12  15
ENDBRANCH  11  12
ENDBRANCH   1   9
BRANCH   2  22
ATOM     22  C   UNL     1       2.670   4.591   1.777  0.00  0.00    +0.101 C 
BRANCH  22  23
ATOM     23  C   UNL     1       1.724   4.997   0.645  0.00  0.00    +0.046 C 
BRANCH  23  24
ATOM     24  C   UNL     1       0.512   4.100   0.658  0.00  0.00    -0.024 A 
ATOM     25  C   UNL     1       0.551   2.868   0.004  0.00  0.00    -0.023 A 
ATOM     26  C   UNL     1      -0.580   2.055   0.029  0.00  0.00    +0.119 A 
ATOM     27  C   UNL     1      -1.735   2.512   0.715  0.00  0.00    +0.267 A 
ATOM     28  O   UNL     1      -2.740   1.821   0.747  0.00  0.00    -0.266 OA
ATOM     29  N   UNL     1      -1.718   3.707   1.334  0.00  0.00    -0.325 N 
ATOM     30  H   UNL     1      -2.509   4.013   1.804  0.00  0.00    +0.169 HD
ATOM     31  C   UNL     1      -0.614   4.493   1.305  0.00  0.00    +0.019 A 
ATOM     32  C   UNL     1      -0.637   5.827   2.006  0.00  0.00    +0.063 C 
ATOM     33  C   UNL     1       1.797   2.423  -0.717  0.00  0.00    +0.045 C 
BRANCH  26  34
ATOM     34  C   UNL     1      -0.578   0.784  -0.631  0.00  0.00    +0.105 C 
ATOM     35  N   UNL     1      -0.577  -0.224  -1.154  0.00  0.00    -0.191 NA
ENDBRANCH  26  34
ENDBRANCH  23  24
ENDBRANCH  22  23
ENDBRANCH   2  22
TORSDOF 7
