REMARK  Name = ZINC04967921
REMARK  8 active torsions:
REMARK  status: ('A' for Active; 'I' for Inactive)
REMARK    1  A    between atoms: C_1  and  C_2
REMARK    2  A    between atoms: C_5  and  N_8
REMARK    3  A    between atoms: N_11  and  C_12
REMARK    4  A    between atoms: C_12  and  C_18
REMARK    5  A    between atoms: N_20  and  C_21
REMARK    6  A    between atoms: C_21  and  C_22
REMARK    7  A    between atoms: C_27  and  O_28
REMARK    8  A    between atoms: O_28  and  C_29
REMARK                            x       y       z     vdW  Elec       q    Type
REMARK                         _______ _______ _______ _____ _____    ______ ____
ROOT
ATOM      1  C   UNL     1       0.310  -6.941   2.383  0.00  0.00    +0.112 C 
ATOM      2  C   UNL     1       1.553  -6.446   3.124  0.00  0.00    +0.035 C 
ATOM      3  C   UNL     1       2.803  -6.792   2.311  0.00  0.00    +0.003 C 
ATOM      4  C   UNL     1       2.888  -8.309   2.128  0.00  0.00    +0.000 C 
ATOM      5  C   UNL     1       1.644  -8.804   1.387  0.00  0.00    +0.003 C 
ATOM      6  C   UNL     1       0.395  -8.458   2.200  0.00  0.00    +0.035 C 
ENDROOT
BRANCH   1  10
ATOM      7  N   UNL     1      -0.126  -4.381  -0.218  0.00  0.00    -0.269 N 
ATOM      8  C   UNL     1       0.047  -4.962   0.986  0.00  0.00    +0.305 C 
ATOM      9  O   UNL     1       0.035  -4.285   1.996  0.00  0.00    -0.252 OA
ATOM     10  N   UNL     1       0.233  -6.294   1.071  0.00  0.00    -0.285 N 
ATOM     11  H   UNL     1      -0.190  -4.929  -1.016  0.00  0.00    +0.156 HD
ATOM     12  H   UNL     1       0.316  -6.825   0.263  0.00  0.00    +0.151 HD
BRANCH   7  17
ATOM     13  C   UNL     1      -0.475   1.267  -0.618  0.00  0.00    +0.044 C 
ATOM     14  C   UNL     1      -0.382  -0.233  -0.512  0.00  0.00    -0.050 A 
ATOM     15  C   UNL     1       0.415  -0.808   0.461  0.00  0.00    +0.005 A 
ATOM     16  C   UNL     1       0.502  -2.183   0.561  0.00  0.00    +0.023 A 
ATOM     17  C   UNL     1      -0.212  -2.988  -0.316  0.00  0.00    +0.035 A 
ATOM     18  C   UNL     1      -1.012  -2.408  -1.292  0.00  0.00    +0.023 A 
ATOM     19  C   UNL     1      -1.099  -1.032  -1.383  0.00  0.00    +0.005 A 
ENDBRANCH   7  17
ENDBRANCH   1  10
BRANCH   1  20
ATOM     20  C   UNL     1      -0.921  -6.600   3.184  0.00  0.00    +0.237 C 
ATOM     21  O   UNL     1      -0.841  -6.455   4.385  0.00  0.00    -0.273 OA
ATOM     22  N   UNL     1      -2.109  -6.458   2.565  0.00  0.00    -0.309 N 
ATOM     23  H   UNL     1      -2.188  -6.644   1.616  0.00  0.00    +0.149 HD
BRANCH  22  24
ATOM     24  C   UNL     1      -3.284  -6.022   3.325  0.00  0.00    +0.143 C 
BRANCH  24  25
ATOM     25  C   UNL     1      -4.476  -5.943   2.406  0.00  0.00    +0.011 A 
ATOM     26  C   UNL     1      -4.877  -4.723   1.898  0.00  0.00    +0.009 A 
ATOM     27  C   UNL     1      -5.971  -4.649   1.056  0.00  0.00    +0.001 A 
ATOM     28  C   UNL     1      -6.666  -5.797   0.719  0.00  0.00    +0.004 A 
ATOM     29  C   UNL     1      -6.268  -7.019   1.224  0.00  0.00    +0.046 A 
ATOM     30  C   UNL     1      -5.167  -7.096   2.066  0.00  0.00    +0.125 A 
BRANCH  30  31
ATOM     31  O   UNL     1      -4.771  -8.299   2.560  0.00  0.00    -0.495 OA
ATOM     32  C   UNL     1      -5.530  -9.444   2.167  0.00  0.00    +0.277 C 
ENDBRANCH  30  31
ENDBRANCH  24  25
ENDBRANCH  22  24
ENDBRANCH   1  20
TORSDOF 6
