REMARK  Name = ZINC09672764
REMARK  8 active torsions:
REMARK  status: ('A' for Active; 'I' for Inactive)
REMARK    1  A    between atoms: C_1  and  C_2
REMARK    2  A    between atoms: C_3  and  C_28
REMARK    3  A    between atoms: C_4  and  C_21
REMARK    4  A    between atoms: C_9  and  S_11
REMARK    5  A    between atoms: S_11  and  C_12
REMARK    6  A    between atoms: C_12  and  C_13
REMARK    7  A    between atoms: C_24  and  O_27
REMARK    8  A    between atoms: N_30  and  C_31
REMARK                            x       y       z     vdW  Elec       q    Type
REMARK                         _______ _______ _______ _____ _____    ______ ____
ROOT
ATOM      1  C   UNL     1      -0.019   1.503   0.008  0.00  0.00    +0.061 C 
ATOM      2  C   UNL     1       0.002  -0.004  -0.008  0.00  0.00    +0.018 C 
ATOM      3  C   UNL     1      -1.163  -0.668  -0.005  0.00  0.00    +0.060 C 
ATOM      4  C   UNL     1      -1.253  -2.170  -0.032  0.00  0.00    +0.177 C 
ATOM      5  N   UNL     1       0.066  -2.741   0.231  0.00  0.00    -0.220 N 
ATOM      6  C   UNL     1       1.212  -2.016   0.225  0.00  0.00    +0.219 A 
ATOM      7  N   UNL     1       2.204  -2.823   0.488  0.00  0.00    -0.187 NA
ATOM      8  C   UNL     1       1.733  -4.066   0.672  0.00  0.00    +0.211 A 
ATOM      9  N   UNL     1       0.426  -4.055   0.524  0.00  0.00    -0.141 NA
ATOM     10  N   UNL     1       1.213  -0.651  -0.031  0.00  0.00    -0.287 N 
ATOM     11  H   UNL     1       2.037  -0.173  -0.215  0.00  0.00    +0.155 HD
ENDROOT
BRANCH   4  12
ATOM     12  C   UNL     1      -1.733  -2.620  -1.388  0.00  0.00    -0.018 A 
ATOM     13  C   UNL     1      -0.998  -2.313  -2.518  0.00  0.00    +0.009 A 
ATOM     14  C   UNL     1      -1.437  -2.724  -3.762  0.00  0.00    +0.046 A 
ATOM     15  C   UNL     1      -2.616  -3.447  -3.876  0.00  0.00    +0.117 A 
ATOM     16  C   UNL     1      -3.351  -3.754  -2.741  0.00  0.00    +0.046 A 
ATOM     17  C   UNL     1      -2.905  -3.345  -1.499  0.00  0.00    +0.009 A 
BRANCH  15  18
ATOM     18  O   UNL     1      -3.049  -3.852  -5.099  0.00  0.00    -0.507 OA
ATOM     19  H   UNL     1      -2.722  -4.723  -5.364  0.00  0.00    +0.292 HD
ENDBRANCH  15  18
ENDBRANCH   4  12
BRANCH   3  20
ATOM     20  C   UNL     1      -2.365   0.079   0.025  0.00  0.00    +0.248 C 
ATOM     21  O   UNL     1      -2.325   1.296   0.048  0.00  0.00    -0.270 OA
ATOM     22  N   UNL     1      -3.553  -0.557   0.029  0.00  0.00    -0.280 N 
ATOM     23  H   UNL     1      -3.587  -1.523  -0.057  0.00  0.00    +0.155 HD
BRANCH  22  24
ATOM     24  C   UNL     1      -4.738   0.176   0.156  0.00  0.00    +0.052 A 
ATOM     25  C   UNL     1      -4.853   1.439  -0.419  0.00  0.00    +0.026 A 
ATOM     26  C   UNL     1      -6.046   2.125  -0.266  0.00  0.00    +0.021 A 
ATOM     27  C   UNL     1      -7.075   1.540   0.447  0.00  0.00    +0.111 A 
ATOM     28  N   UNL     1      -6.935   0.342   0.980  0.00  0.00    -0.261 NA
ATOM     29  C   UNL     1      -5.818  -0.348   0.854  0.00  0.00    +0.134 A 
ENDBRANCH  22  24
ENDBRANCH   3  20
BRANCH   8  30
ATOM     30  S   UNL     1       2.709  -5.483   1.051  0.00  0.00    -0.080 S 
BRANCH  30  31
ATOM     31  C   UNL     1       4.405  -4.843   1.118  0.00  0.00    +0.114 C 
BRANCH  31  32
ATOM     32  C   UNL     1       5.354  -5.969   1.438  0.00  0.00    -0.019 A 
ATOM     33  C   UNL     1       5.655  -6.266   2.755  0.00  0.00    +0.006 A 
ATOM     34  C   UNL     1       6.526  -7.299   3.048  0.00  0.00    +0.000 A 
ATOM     35  C   UNL     1       7.096  -8.035   2.026  0.00  0.00    +0.001 A 
ATOM     36  C   UNL     1       6.797  -7.738   0.710  0.00  0.00    +0.020 A 
ATOM     37  C   UNL     1       5.921  -6.708   0.416  0.00  0.00    +0.045 A 
ATOM     38 CL   UNL     1       5.538  -6.339  -1.237  0.00  0.00    -0.083 Cl
ENDBRANCH  31  32
ENDBRANCH  30  31
ENDBRANCH   8  30
TORSDOF 7
