REMARK  Name = ZINC31170044
REMARK  9 active torsions:
REMARK  status: ('A' for Active; 'I' for Inactive)
REMARK    1  A    between atoms: C_1  and  C_2
REMARK    2  A    between atoms: C_2  and  C_29
REMARK    3  A    between atoms: C_3  and  C_4
REMARK    4  A    between atoms: C_4  and  C_5
REMARK    5  A    between atoms: C_9  and  O_12
REMARK    6  A    between atoms: C_10  and  O_11
REMARK    7  A    between atoms: C_24  and  O_27
REMARK    8  A    between atoms: C_25  and  O_26
REMARK    9  A    between atoms: O_27  and  C_28
REMARK                            x       y       z     vdW  Elec       q    Type
REMARK                         _______ _______ _______ _____ _____    ______ ____
ROOT
ATOM      1  C   UNL     1       2.001   1.119   3.405  0.00  0.00    +0.002 A 
ATOM      2  C   UNL     1       2.147   0.777   4.734  0.00  0.00    +0.018 A 
ATOM      3  C   UNL     1       3.083   1.421   5.533  0.00  0.00    +0.039 A 
ATOM      4  C   UNL     1       3.860   2.426   4.983  0.00  0.00    +0.172 A 
ATOM      5  C   UNL     1       3.718   2.776   3.646  0.00  0.00    +0.201 A 
ATOM      6  C   UNL     1       2.784   2.120   2.852  0.00  0.00    +0.166 A 
ATOM      7  O   UNL     1       4.763   3.093   5.754  0.00  0.00    -0.487 OA
ATOM      8  C   UNL     1       4.414   3.211   7.137  0.00  0.00    +0.241 C 
ATOM      9  C   UNL     1       4.270   1.812   7.734  0.00  0.00    +0.105 C 
ATOM     10  C   UNL     1       3.213   1.002   6.965  0.00  0.00    +0.218 C 
ATOM     11  O   UNL     1       1.993   1.274   7.679  0.00  0.00    -0.479 OA
ATOM     12  C   UNL     1       2.296   1.568   8.963  0.00  0.00    +0.170 A 
ATOM     13  C   UNL     1       3.643   1.918   9.101  0.00  0.00    +0.008 A 
ATOM     14  C   UNL     1       4.196   2.271  10.315  0.00  0.00    +0.011 A 
ATOM     15  C   UNL     1       3.353   2.263  11.420  0.00  0.00    +0.050 A 
ATOM     16  C   UNL     1       2.019   1.915  11.305  0.00  0.00    +0.165 A 
ATOM     17  C   UNL     1       1.455   1.560  10.079  0.00  0.00    +0.201 A 
ENDROOT
BRANCH   6  18
ATOM     18  O   UNL     1       2.639   2.459   1.543  0.00  0.00    -0.503 OA
ATOM     19  H   UNL     1       3.263   3.254   1.108  0.00  0.00    +0.292 HD
ENDBRANCH   6  18
BRANCH   5  20
ATOM     20  O   UNL     1       4.492   3.761   3.113  0.00  0.00    -0.501 OA
ATOM     21  H   UNL     1       4.379   4.037   2.054  0.00  0.00    +0.292 HD
ENDBRANCH   5  20
BRANCH  17  22
ATOM     22  O   UNL     1       0.141   1.219   9.975  0.00  0.00    -0.501 OA
ATOM     23  H   UNL     1      -0.500   1.220  10.869  0.00  0.00    +0.292 HD
ENDBRANCH  17  22
BRANCH  16  24
ATOM     24  O   UNL     1       1.235   1.919  12.416  0.00  0.00    -0.491 OA
ATOM     25  C   UNL     1       1.858   2.291  13.647  0.00  0.00    +0.277 C 
ENDBRANCH  16  24
BRANCH   1  26
ATOM     26  C   UNL     1       0.983   0.405   2.554  0.00  0.00    +0.066 C 
BRANCH  26  29
ATOM     27  C   UNL     1      -0.013   1.086   0.008  0.00  0.00    +0.038 C 
ATOM     28  C   UNL     1      -0.718   1.572   1.248  0.00  0.00    -0.079 C 
ATOM     29  C   UNL     1      -0.255   1.255   2.432  0.00  0.00    -0.023 C 
ATOM     30  C   UNL     1      -1.956   2.422   1.126  0.00  0.00    +0.038 C 
ENDBRANCH  26  29
ENDBRANCH   1  26
TORSDOF 6
