REMARK  Name = ZINC12644875
REMARK  10 active torsions:
REMARK  status: ('A' for Active; 'I' for Inactive)
REMARK    1  A    between atoms: C_1  and  C_2
REMARK    2  A    between atoms: C_2  and  C_27
REMARK    3  A    between atoms: N_5  and  C_9
REMARK    4  A    between atoms: C_9  and  C_10
REMARK    5  A    between atoms: C_10  and  O_12
REMARK    6  A    between atoms: O_12  and  C_13
REMARK    7  A    between atoms: C_13  and  C_14
REMARK    8  A    between atoms: N_16  and  C_17
REMARK    9  A    between atoms: C_20  and  S_23
REMARK   10  A    between atoms: S_23  and  N_26
REMARK                            x       y       z     vdW  Elec       q    Type
REMARK                         _______ _______ _______ _____ _____    ______ ____
ROOT
ATOM      1  C   UNL     1       2.668   9.393   2.742  0.00  0.00    +0.238 C 
ENDROOT
BRANCH   1   6
ATOM      2  C   UNL     1       0.987   7.978  -1.411  0.00  0.00    +0.047 C 
ATOM      3  C   UNL     1       1.068   7.439   0.018  0.00  0.00    +0.135 C 
ATOM      4  C   UNL     1       2.291   7.987   0.726  0.00  0.00    +0.251 C 
ATOM      5  O   UNL     1       3.452   7.830   0.411  0.00  0.00    -0.272 OA
ATOM      6  N   UNL     1       1.821   8.686   1.778  0.00  0.00    -0.213 N 
ATOM      7  C   UNL     1       0.484   8.656   1.832  0.00  0.00    +0.310 C 
ATOM      8  O   UNL     1      -0.170   9.214   2.691  0.00  0.00    -0.252 OA
ATOM      9  N   UNL     1      -0.055   7.939   0.829  0.00  0.00    -0.281 N 
ATOM     10  H   UNL     1      -0.999   7.783   0.671  0.00  0.00    +0.152 HD
BRANCH   3  11
ATOM     11  C   UNL     1       1.089   5.932   0.014  0.00  0.00    -0.015 A 
ATOM     12  C   UNL     1       2.312   5.262   0.010  0.00  0.00    +0.007 A 
ATOM     13  C   UNL     1       2.366   3.902   0.006  0.00  0.00    +0.009 A 
ATOM     14  C   UNL     1       1.174   3.159   0.007  0.00  0.00    -0.018 A 
ATOM     15  C   UNL     1       1.190   1.754   0.003  0.00  0.00    +0.008 A 
ATOM     16  C   UNL     1       0.015   1.067   0.004  0.00  0.00    +0.001 A 
ATOM     17  C   UNL     1      -1.208   1.736   0.003  0.00  0.00    +0.001 A 
ATOM     18  C   UNL     1      -1.262   3.096   0.013  0.00  0.00    +0.008 A 
ATOM     19  C   UNL     1      -0.069   3.840   0.012  0.00  0.00    -0.018 A 
ATOM     20  C   UNL     1      -0.085   5.245   0.016  0.00  0.00    +0.014 A 
ENDBRANCH   3  11
ENDBRANCH   1   6
BRANCH   1  21
ATOM     21  C   UNL     1       2.898  10.805   2.268  0.00  0.00    +0.326 C 
ATOM     22  O   UNL     1       2.405  11.182   1.231  0.00  0.00    -0.249 OA
BRANCH  21  23
ATOM     23  O   UNL     1       3.651  11.643   2.997  0.00  0.00    -0.454 OA
BRANCH  23  24
ATOM     24  C   UNL     1       3.830  12.988   2.480  0.00  0.00    +0.328 C 
BRANCH  24  25
ATOM     25  C   UNL     1       4.697  13.779   3.425  0.00  0.00    +0.255 C 
ATOM     26  O   UNL     1       5.122  13.260   4.436  0.00  0.00    -0.272 OA
ATOM     27  N   UNL     1       4.999  15.063   3.148  0.00  0.00    -0.283 N 
ATOM     28  H   UNL     1       4.716  15.457   2.309  0.00  0.00    +0.155 HD
BRANCH  27  29
ATOM     29  C   UNL     1       5.723  15.826   4.072  0.00  0.00    +0.034 A 
ATOM     30  C   UNL     1       5.457  17.182   4.213  0.00  0.00    +0.025 A 
ATOM     31  C   UNL     1       6.169  17.931   5.129  0.00  0.00    +0.030 A 
ATOM     32  C   UNL     1       7.153  17.335   5.897  0.00  0.00    +0.105 A 
ATOM     33  C   UNL     1       7.424  15.987   5.754  0.00  0.00    +0.030 A 
ATOM     34  C   UNL     1       6.711  15.231   4.844  0.00  0.00    +0.025 A 
BRANCH  32  35
ATOM     35  S   UNL     1       8.063  18.297   7.059  0.00  0.00    +0.056 S 
ATOM     36  O   UNL     1       7.248  19.412   7.391  0.00  0.00    -0.153 OA
ATOM     37  O   UNL     1       8.552  17.392   8.040  0.00  0.00    -0.153 OA
BRANCH  35  38
ATOM     38  N   UNL     1       9.388  18.897   6.268  0.00  0.00    -0.204 NA
ATOM     39  H   UNL     1       9.530  18.687   5.332  0.00  0.00    +0.144 HD
ATOM     40  H   UNL     1      10.023  19.458   6.741  0.00  0.00    +0.144 HD
ENDBRANCH  35  38
ENDBRANCH  32  35
ENDBRANCH  27  29
ENDBRANCH  24  25
ENDBRANCH  23  24
ENDBRANCH  21  23
ENDBRANCH   1  21
TORSDOF 9
