REMARK  Name = ZINC39607181
REMARK  9 active torsions:
REMARK  status: ('A' for Active; 'I' for Inactive)
REMARK    1  A    between atoms: C_1  and  C_2
REMARK    2  A    between atoms: C_2  and  N_3
REMARK    3  A    between atoms: C_4  and  C_10
REMARK    4  A    between atoms: C_6  and  C_8
REMARK    5  A    between atoms: C_14  and  C_23
REMARK    6  A    between atoms: N_25  and  C_26
REMARK    7  A    between atoms: C_26  and  C_27
REMARK    8  A    between atoms: C_30  and  C_34
REMARK    9  A    between atoms: C_32  and  C_33
REMARK                            x       y       z     vdW  Elec       q    Type
REMARK                         _______ _______ _______ _____ _____    ______ ____
ROOT
ATOM      1  C   UNL     1      -1.528  -0.703   2.399  0.00  0.00    +0.266 C 
ATOM      2  O   UNL     1      -2.101  -1.141   3.379  0.00  0.00    -0.268 OA
ATOM      3  N   UNL     1      -0.255  -0.273   2.499  0.00  0.00    -0.295 N 
ATOM      4  C   UNL     1       0.633   0.198   1.410  0.00  0.00    +0.121 C 
ATOM      5  C   UNL     1       1.403   1.390   2.022  0.00  0.00    +0.100 C 
ATOM      6  C   UNL     1       1.362   1.146   3.540  0.00  0.00    -0.004 C 
ATOM      7  C   UNL     1       0.572  -0.157   3.725  0.00  0.00    +0.115 C 
ATOM      8  C   UNL     1       0.644   2.295   4.240  0.00  0.00    -0.010 C 
ATOM      9  C   UNL     1       0.666   2.058   5.753  0.00  0.00    -0.082 C 
ATOM     10  N   UNL     1       2.056   1.969   6.216  0.00  0.00    +0.379 N 
ATOM     11  C   UNL     1       2.713   0.805   5.608  0.00  0.00    -0.082 C 
ATOM     12  C   UNL     1       2.777   0.989   4.089  0.00  0.00    -0.010 C 
ATOM     13  H   UNL     1       2.551   2.808   5.954  0.00  0.00    -0.086 HD
ATOM     14  H   UNL     1       2.070   1.874   7.220  0.00  0.00    -0.086 HD
ENDROOT
BRANCH   1  16
ATOM     15  N   UNL     1      -2.238  -1.605   0.134  0.00  0.00    -0.258 N 
ATOM     16  C   UNL     1      -2.225  -0.642   1.105  0.00  0.00    +0.138 A 
ATOM     17  C   UNL     1      -3.001   0.400   0.626  0.00  0.00    +0.071 A 
ATOM     18  C   UNL     1      -3.440  -0.015  -0.634  0.00  0.00    +0.075 A 
ATOM     19  N   UNL     1      -2.946  -1.205  -0.860  0.00  0.00    -0.175 NA
ATOM     20  C   UNL     1      -4.321   0.772  -1.570  0.00  0.00    +0.069 C 
ATOM     21 BR   UNL     1      -3.384   2.037   1.493  0.00  0.00    -0.046 Br
BRANCH  15  23
ATOM     22  C   UNL     1      -0.105  -2.728  -0.283  0.00  0.00    +0.029 C 
ATOM     23  C   UNL     1      -1.544  -2.892   0.213  0.00  0.00    +0.141 C 
ENDBRANCH  15  23
ENDBRANCH   1  16
BRANCH   5  24
ATOM     24  C   UNL     1       0.720   2.688   1.678  0.00  0.00    +0.218 C 
ATOM     25  O   UNL     1      -0.489   2.731   1.587  0.00  0.00    -0.275 OA
ATOM     26  N   UNL     1       1.452   3.801   1.472  0.00  0.00    -0.311 N 
ATOM     27  H   UNL     1       2.421   3.751   1.474  0.00  0.00    +0.149 HD
BRANCH  26  28
ATOM     28  C   UNL     1       0.784   5.085   1.246  0.00  0.00    +0.139 C 
BRANCH  28  29
ATOM     29  C   UNL     1       1.815   6.137   0.924  0.00  0.00    -0.027 A 
ATOM     30  C   UNL     1       2.196   7.049   1.890  0.00  0.00    +0.006 A 
ATOM     31  C   UNL     1       3.141   8.014   1.594  0.00  0.00    +0.004 A 
ATOM     32  C   UNL     1       3.705   8.066   0.333  0.00  0.00    -0.050 A 
ATOM     33  C   UNL     1       3.324   7.153  -0.632  0.00  0.00    +0.007 A 
ATOM     34  C   UNL     1       2.382   6.186  -0.336  0.00  0.00    -0.046 A 
ATOM     35  C   UNL     1       1.970   5.188  -1.387  0.00  0.00    +0.044 C 
ATOM     36  C   UNL     1       4.734   9.118   0.011  0.00  0.00    +0.044 C 
ENDBRANCH  28  29
ENDBRANCH  26  28
ENDBRANCH   5  24
TORSDOF 5
