REMARK  Name = ZINC59170633
REMARK  9 active torsions:
REMARK  status: ('A' for Active; 'I' for Inactive)
REMARK    1  A    between atoms: C_1  and  C_2
REMARK    2  A    between atoms: C_2  and  C_3
REMARK    3  A    between atoms: C_6  and  N_9
REMARK    4  A    between atoms: C_10  and  C_12
REMARK    5  A    between atoms: C_16  and  C_34
REMARK    6  A    between atoms: N_22  and  N_23
REMARK    7  A    between atoms: N_23  and  S_24
REMARK    8  A    between atoms: S_24  and  C_27
REMARK    9  A    between atoms: C_30  and  C_33
REMARK                            x       y       z     vdW  Elec       q    Type
REMARK                         _______ _______ _______ _____ _____    ______ ____
ROOT
ATOM      1  C   UNL     1       4.669  -1.967  -6.225  0.00  0.00    +0.099 A 
ATOM      2  C   UNL     1       6.017  -2.219  -6.134  0.00  0.00    +0.030 A 
ATOM      3  C   UNL     1       6.613  -3.104  -7.143  0.00  0.00    +0.018 A 
ATOM      4  C   UNL     1       7.901  -3.620  -6.968  0.00  0.00    +0.015 A 
ATOM      5  C   UNL     1       8.438  -4.451  -7.928  0.00  0.00    -0.050 A 
ATOM      6  C   UNL     1       7.709  -4.777  -9.060  0.00  0.00    +0.007 A 
ATOM      7  C   UNL     1       6.435  -4.273  -9.246  0.00  0.00    +0.047 A 
ATOM      8  C   UNL     1       5.878  -3.435  -8.294  0.00  0.00    +0.137 A 
ATOM      9  O   UNL     1       4.630  -2.928  -8.466  0.00  0.00    -0.437 OA
ATOM     10  C   UNL     1       3.931  -2.617  -7.333  0.00  0.00    +0.225 A 
ATOM     11  N   UNL     1       2.659  -2.879  -7.231  0.00  0.00    -0.260 N 
ATOM     12  C   UNL     1       9.826  -5.008  -7.744  0.00  0.00    +0.044 C 
ATOM     13  H   UNL     1       2.209  -2.773  -6.378  0.00  0.00    +0.189 HD
ENDROOT
BRANCH   1  15
ATOM     14  N   UNL     1       4.638  -0.663  -4.160  0.00  0.00    -0.281 N 
ATOM     15  C   UNL     1       3.986  -1.092  -5.258  0.00  0.00    +0.253 C 
ATOM     16  O   UNL     1       2.832  -0.757  -5.450  0.00  0.00    -0.270 OA
ATOM     17  H   UNL     1       5.586  -0.843  -4.057  0.00  0.00    +0.155 HD
BRANCH  14  21
ATOM     18  C   UNL     1       2.587   1.441  -1.207  0.00  0.00    -0.048 A 
ATOM     19  C   UNL     1       3.705   0.698  -0.874  0.00  0.00    +0.005 A 
ATOM     20  C   UNL     1       4.387  -0.001  -1.851  0.00  0.00    +0.023 A 
ATOM     21  C   UNL     1       3.950   0.043  -3.168  0.00  0.00    +0.034 A 
ATOM     22  C   UNL     1       2.826   0.790  -3.499  0.00  0.00    +0.023 A 
ATOM     23  C   UNL     1       2.146   1.483  -2.517  0.00  0.00    +0.005 A 
BRANCH  18  25
ATOM     24  C   UNL     1       0.762   1.308   0.466  0.00  0.00    +0.009 C 
ATOM     25  C   UNL     1       1.845   2.203  -0.139  0.00  0.00    +0.032 C 
ENDBRANCH  18  25
ENDBRANCH  14  21
ENDBRANCH   1  15
BRANCH  11  26
ATOM     26  N   UNL     1       1.941  -3.312  -8.353  0.00  0.00    -0.157 N 
ATOM     27  H   UNL     1       2.405  -3.496  -9.184  0.00  0.00    +0.194 HD
BRANCH  26  28
ATOM     28  S   UNL     1       0.299  -3.509  -8.259  0.00  0.00    +0.085 S 
ATOM     29  O   UNL     1      -0.170  -3.646  -9.594  0.00  0.00    -0.149 OA
ATOM     30  O   UNL     1       0.065  -4.496  -7.264  0.00  0.00    -0.149 OA
BRANCH  28  31
ATOM     31  C   UNL     1      -0.373  -2.002  -7.641  0.00  0.00    +0.110 A 
ATOM     32  C   UNL     1      -0.493  -1.806  -6.278  0.00  0.00    +0.029 A 
ATOM     33  C   UNL     1      -1.020  -0.624  -5.794  0.00  0.00    +0.005 A 
ATOM     34  C   UNL     1      -1.426   0.363  -6.672  0.00  0.00    -0.050 A 
ATOM     35  C   UNL     1      -1.304   0.168  -8.035  0.00  0.00    +0.005 A 
ATOM     36  C   UNL     1      -0.773  -1.013  -8.520  0.00  0.00    +0.029 A 
ATOM     37  C   UNL     1      -2.001   1.652  -6.144  0.00  0.00    +0.044 C 
ENDBRANCH  28  31
ENDBRANCH  26  28
ENDBRANCH  11  26
TORSDOF 6
