REMARK  Name = ZINC63667424
REMARK  6 active torsions:
REMARK  status: ('A' for Active; 'I' for Inactive)
REMARK    1  A    between atoms: C_7  and  C_10
REMARK    2  A    between atoms: C_10  and  C_11
REMARK    3  A    between atoms: C_11  and  N_12
REMARK    4  A    between atoms: C_13  and  C_15
REMARK    5  A    between atoms: N_21  and  C_28
REMARK    6  A    between atoms: C_28  and  C_29
REMARK                            x       y       z     vdW  Elec       q    Type
REMARK                         _______ _______ _______ _____ _____    ______ ____
ROOT
ATOM      1  C   UNL     1      -1.736  -6.537  -2.622  0.00  0.00    +0.038 C 
ATOM      2  C   UNL     1      -2.093  -7.138  -3.810  0.00  0.00    +0.035 C 
ATOM      3  C   UNL     1      -2.938  -8.269  -3.770  0.00  0.00    +0.049 C 
ATOM      4  N   UNL     1      -3.667  -8.582  -4.812  0.00  0.00    -0.196 NA
ATOM      5  C   UNL     1      -4.581  -9.558  -4.772  0.00  0.00    +0.163 C 
ATOM      6  S   UNL     1      -5.348 -10.037  -6.226  0.00  0.00    -0.016 S 
ATOM      7  N   UNL     1      -4.915 -10.174  -3.626  0.00  0.00    -0.247 N 
ATOM      8  C   UNL     1      -4.208  -9.966  -2.498  0.00  0.00    +0.234 C 
ATOM      9  O   UNL     1      -4.558 -10.491  -1.462  0.00  0.00    -0.274 OA
ATOM     10  C   UNL     1      -2.994  -9.093  -2.517  0.00  0.00    +0.144 C 
ATOM     11  C   UNL     1      -2.888  -8.230  -1.298  0.00  0.00    -0.008 C 
ATOM     12  C   UNL     1      -2.270  -7.051  -1.355  0.00  0.00    +0.010 C 
ENDROOT
BRANCH   1  14
ATOM     13  N   UNL     1      -0.458  -4.798  -1.460  0.00  0.00    -0.311 N 
ATOM     14  C   UNL     1      -0.811  -5.380  -2.623  0.00  0.00    +0.244 C 
ATOM     15  O   UNL     1      -0.370  -4.956  -3.673  0.00  0.00    -0.270 OA
ATOM     16  H   UNL     1      -0.810  -5.136  -0.622  0.00  0.00    +0.149 HD
BRANCH  13  17
ATOM     17  C   UNL     1       0.457  -3.653  -1.462  0.00  0.00    +0.109 C 
BRANCH  17  18
ATOM     18  C   UNL     1       0.691  -3.186  -0.024  0.00  0.00    +0.052 C 
BRANCH  18  25
ATOM     19  C   UNL     1      -0.016   1.348   0.009  0.00  0.00    +0.001 A 
ATOM     20  C   UNL     1       1.166   2.101   0.002  0.00  0.00    +0.002 A 
ATOM     21  C   UNL     1       2.391   1.535  -0.013  0.00  0.00    +0.026 A 
ATOM     22  C   UNL     1       2.529   0.120  -0.022  0.00  0.00    +0.043 A 
ATOM     23  N   UNL     1       3.587  -0.654  -0.037  0.00  0.00    -0.380 N 
ATOM     24  C   UNL     1       3.143  -2.053  -0.041  0.00  0.00    +0.144 C 
ATOM     25  C   UNL     1       1.631  -2.008  -0.025  0.00  0.00    -0.040 C 
ATOM     26  C   UNL     1       1.295  -0.698  -0.014  0.00  0.00    -0.001 A 
ATOM     27  C   UNL     1       0.002  -0.004   0.002  0.00  0.00    +0.010 A 
ATOM     28  H   UNL     1       4.509  -0.353  -0.045  0.00  0.00    +0.160 HD
ENDBRANCH  18  25
ENDBRANCH  17  18
ENDBRANCH  13  17
ENDBRANCH   1  14
BRANCH   7  29
ATOM     29  C   UNL     1      -6.063 -11.084  -3.602  0.00  0.00    +0.150 C 
BRANCH  29  30
ATOM     30  C   UNL     1      -5.604 -12.481  -3.929  0.00  0.00    -0.030 A 
ATOM     31  C   UNL     1      -5.578 -12.911  -5.243  0.00  0.00    +0.006 A 
ATOM     32  C   UNL     1      -5.157 -14.192  -5.543  0.00  0.00    +0.020 A 
ATOM     33  C   UNL     1      -4.761 -15.046  -4.529  0.00  0.00    +0.041 A 
ATOM     34  C   UNL     1      -4.787 -14.615  -3.214  0.00  0.00    +0.020 A 
ATOM     35  C   UNL     1      -5.203 -13.332  -2.916  0.00  0.00    +0.006 A 
ATOM     36 CL   UNL     1      -4.232 -16.656  -4.906  0.00  0.00    -0.084 Cl
ENDBRANCH  29  30
ENDBRANCH   7  29
TORSDOF 6
