REMARK  Name = ZINC13634665
REMARK  6 active torsions:
REMARK  status: ('A' for Active; 'I' for Inactive)
REMARK    1  A    between atoms: C_4  and  C_7
REMARK    2  A    between atoms: C_9  and  C_33
REMARK    3  A    between atoms: C_12  and  C_24
REMARK    4  A    between atoms: C_14  and  C_18
REMARK    5  A    between atoms: C_28  and  N_30
REMARK    6  A    between atoms: C_37  and  N_39
REMARK                            x       y       z     vdW  Elec       q    Type
REMARK                         _______ _______ _______ _____ _____    ______ ____
ROOT
ATOM      1  C   UNL     1      -0.748   1.627   1.239  0.00  0.00    +0.107 C 
ATOM      2  C   UNL     1      -0.013   1.086   0.008  0.00  0.00    +0.099 C 
ATOM      3  N   UNL     1      -0.707   1.527  -1.208  0.00  0.00    -0.301 NA
ATOM      4  C   UNL     1      -0.644   2.986  -1.366  0.00  0.00    +0.099 C 
ATOM      5  C   UNL     1      -1.422   3.656  -0.228  0.00  0.00    +0.107 C 
ATOM      6  C   UNL     1      -0.888   3.127   1.087  0.00  0.00    +0.152 C 
ATOM      7  O   UNL     1      -0.585   3.877   1.984  0.00  0.00    -0.296 OA
ATOM      8  H   UNL     1      -0.238   1.062  -2.087  0.00  0.00    +0.123 HD
ENDROOT
BRANCH   1  12
ATOM      9  C   UNL     1      -4.617  -0.163   1.510  0.00  0.00    +0.000 A 
ATOM     10  C   UNL     1      -3.707  -0.328   2.536  0.00  0.00    +0.000 A 
ATOM     11  C   UNL     1      -2.454   0.252   2.449  0.00  0.00    +0.004 A 
ATOM     12  C   UNL     1      -2.113   0.995   1.335  0.00  0.00    -0.035 A 
ATOM     13  C   UNL     1      -3.026   1.163   0.310  0.00  0.00    +0.004 A 
ATOM     14  C   UNL     1      -4.276   0.580   0.395  0.00  0.00    +0.000 A 
ENDBRANCH   1  12
BRANCH   5  15
ATOM     15  C   UNL     1      -1.230   5.149  -0.291  0.00  0.00    -0.035 A 
ATOM     16  C   UNL     1       0.041   5.686  -0.205  0.00  0.00    +0.004 A 
ATOM     17  C   UNL     1       0.218   7.056  -0.268  0.00  0.00    +0.000 A 
ATOM     18  C   UNL     1      -0.877   7.889  -0.406  0.00  0.00    +0.000 A 
ATOM     19  C   UNL     1      -2.148   7.352  -0.487  0.00  0.00    +0.000 A 
ATOM     20  C   UNL     1      -2.325   5.982  -0.429  0.00  0.00    +0.004 A 
ENDBRANCH   5  15
BRANCH   4  21
ATOM     21  C   UNL     1      -1.253   3.375  -2.689  0.00  0.00    -0.027 A 
ATOM     22  C   UNL     1      -2.390   2.732  -3.142  0.00  0.00    +0.005 A 
ATOM     23  C   UNL     1      -2.951   3.092  -4.353  0.00  0.00    +0.003 A 
ATOM     24  C   UNL     1      -2.369   4.088  -5.115  0.00  0.00    +0.033 A 
ATOM     25  C   UNL     1      -1.230   4.727  -4.664  0.00  0.00    +0.127 A 
ATOM     26  C   UNL     1      -0.671   4.370  -3.451  0.00  0.00    +0.038 A 
BRANCH  25  27
ATOM     27  N   UNL     1      -0.607   5.793  -5.481  0.00  0.00    +0.056 N 
ATOM     28  O   UNL     1       0.398   6.356  -5.083  0.00  0.00    -0.126 OA
ATOM     29  O   UNL     1      -1.099   6.108  -6.549  0.00  0.00    -0.126 OA
ENDBRANCH  25  27
ENDBRANCH   4  21
BRANCH   2  30
ATOM     30  C   UNL     1       1.401   1.608  -0.003  0.00  0.00    -0.027 A 
ATOM     31  C   UNL     1       2.112   1.653  -1.187  0.00  0.00    +0.005 A 
ATOM     32  C   UNL     1       3.408   2.135  -1.198  0.00  0.00    +0.003 A 
ATOM     33  C   UNL     1       3.995   2.564  -0.022  0.00  0.00    +0.033 A 
ATOM     34  C   UNL     1       3.285   2.515   1.163  0.00  0.00    +0.127 A 
ATOM     35  C   UNL     1       1.988   2.036   1.173  0.00  0.00    +0.038 A 
BRANCH  34  36
ATOM     36  N   UNL     1       3.914   2.975   2.422  0.00  0.00    +0.056 N 
ATOM     37  O   UNL     1       3.289   2.931   3.466  0.00  0.00    -0.126 OA
ATOM     38  O   UNL     1       5.057   3.396   2.413  0.00  0.00    -0.126 OA
ENDBRANCH  34  36
ENDBRANCH   2  30
TORSDOF 6
