REMARK  Name = ZINC64945275
REMARK  6 active torsions:
REMARK  status: ('A' for Active; 'I' for Inactive)
REMARK    1  A    between atoms: C_6  and  C_7
REMARK    2  A    between atoms: C_7  and  N_8
REMARK    3  A    between atoms: C_12  and  S_15
REMARK    4  A    between atoms: S_15  and  C_16
REMARK    5  A    between atoms: C_16  and  C_17
REMARK    6  A    between atoms: N_19  and  C_20
REMARK                            x       y       z     vdW  Elec       q    Type
REMARK                         _______ _______ _______ _____ _____    ______ ____
ROOT
ATOM      1  N   UNL     1      -1.746  -0.983  -1.369  0.00  0.00    -0.324 N 
ATOM      2  C   UNL     1      -2.922  -1.688  -1.616  0.00  0.00    +0.142 A 
ATOM      3  C   UNL     1      -3.692  -2.160  -0.551  0.00  0.00    +0.048 A 
ATOM      4  C   UNL     1      -4.851  -2.854  -0.846  0.00  0.00    +0.040 A 
ATOM      5  C   UNL     1      -5.179  -3.040  -2.190  0.00  0.00    +0.120 A 
ATOM      6  N   UNL     1      -4.387  -2.557  -3.134  0.00  0.00    -0.141 NA
ATOM      7  N   UNL     1      -3.314  -1.908  -2.860  0.00  0.00    -0.133 NA
ATOM      8  H   UNL     1      -1.214  -0.652  -2.109  0.00  0.00    +0.148 HD
ENDROOT
BRANCH   1   9
ATOM      9  C   UNL     1      -1.313  -0.741   0.010  0.00  0.00    +0.138 C 
BRANCH   9  15
ATOM     10  C   UNL     1      -0.050   1.419   0.012  0.00  0.00    +0.009 A 
ATOM     11  C   UNL     1       1.132   2.137   0.004  0.00  0.00    +0.050 A 
ATOM     12  C   UNL     1       2.347   1.473  -0.014  0.00  0.00    +0.166 A 
ATOM     13  C   UNL     1       2.375   0.080  -0.024  0.00  0.00    +0.167 A 
ATOM     14  C   UNL     1       1.187  -0.633  -0.017  0.00  0.00    +0.054 A 
ATOM     15  C   UNL     1      -0.022   0.037   0.002  0.00  0.00    -0.027 A 
ATOM     16  O   UNL     1       3.677  -0.330  -0.041  0.00  0.00    -0.453 OA
ATOM     17  C   UNL     1       4.437   0.821  -0.454  0.00  0.00    +0.466 C 
ATOM     18  O   UNL     1       3.631   1.935  -0.025  0.00  0.00    -0.453 OA
ENDBRANCH   9  15
ENDBRANCH   1   9
BRANCH   5  19
ATOM     19  S   UNL     1      -6.643  -3.917  -2.629  0.00  0.00    -0.095 S 
BRANCH  19  20
ATOM     20  C   UNL     1      -6.638  -3.899  -4.443  0.00  0.00    +0.172 C 
BRANCH  20  21
ATOM     21  C   UNL     1      -7.854  -4.627  -4.956  0.00  0.00    +0.227 C 
ATOM     22  O   UNL     1      -8.646  -5.110  -4.175  0.00  0.00    -0.275 OA
ATOM     23  N   UNL     1      -8.061  -4.740  -6.283  0.00  0.00    -0.285 N 
ATOM     24  H   UNL     1      -7.465  -4.297  -6.907  0.00  0.00    +0.155 HD
BRANCH  23  25
ATOM     25  C   UNL     1      -9.136  -5.498  -6.761  0.00  0.00    +0.034 A 
ATOM     26  C   UNL     1     -10.337  -5.521  -6.063  0.00  0.00    +0.023 A 
ATOM     27  C   UNL     1     -11.394  -6.269  -6.539  0.00  0.00    +0.006 A 
ATOM     28  C   UNL     1     -11.264  -6.998  -7.710  0.00  0.00    -0.044 A 
ATOM     29  C   UNL     1     -10.069  -6.977  -8.407  0.00  0.00    -0.042 A 
ATOM     30  C   UNL     1      -9.008  -6.224  -7.936  0.00  0.00    +0.027 A 
ATOM     31  C   UNL     1     -10.182  -7.847  -9.641  0.00  0.00    +0.036 C 
ATOM     32  C   UNL     1     -11.414  -8.742  -9.392  0.00  0.00    +0.009 C 
ATOM     33  C   UNL     1     -12.259  -7.883  -8.428  0.00  0.00    +0.036 C 
ENDBRANCH  23  25
ENDBRANCH  20  21
ENDBRANCH  19  20
ENDBRANCH   5  19
TORSDOF 6
