REMARK  Name = ZINC32100905
REMARK  10 active torsions:
REMARK  status: ('A' for Active; 'I' for Inactive)
REMARK    1  A    between atoms: C_1  and  C_2
REMARK    2  A    between atoms: C_5  and  C_28
REMARK    3  A    between atoms: C_6  and  O_8
REMARK    4  A    between atoms: O_8  and  C_9
REMARK    5  A    between atoms: C_9  and  C_10
REMARK    6  A    between atoms: C_13  and  C_23
REMARK    7  A    between atoms: C_13  and  O_27
REMARK    8  A    between atoms: C_15  and  C_17
REMARK    9  A    between atoms: C_28  and  C_29
REMARK   10  A    between atoms: C_28  and  C_30
REMARK                            x       y       z     vdW  Elec       q    Type
REMARK                         _______ _______ _______ _____ _____    ______ ____
ROOT
ATOM      1  C   UNL     1      -4.792  -0.886   0.045  0.00  0.00    +0.275 C 
ATOM      2  O   UNL     1      -5.610  -1.782   0.049  0.00  0.00    -0.270 OA
ATOM      3  N   UNL     1      -3.476  -1.175   0.030  0.00  0.00    -0.149 N 
ATOM      4  C   UNL     1      -2.896  -2.528   0.017  0.00  0.00    +0.257 C 
ATOM      5  C   UNL     1      -1.377  -2.270   0.004  0.00  0.00    +0.124 C 
ATOM      6  C   UNL     1      -1.263  -0.762   0.011  0.00  0.00    +0.071 C 
ATOM      7  N   UNL     1      -2.441  -0.242   0.031  0.00  0.00    -0.178 NA
ENDROOT
BRANCH   6   8
ATOM      8  C   UNL     1       0.002  -0.004   0.002  0.00  0.00    -0.002 A 
ATOM      9  C   UNL     1      -0.017   1.393   0.010  0.00  0.00    +0.010 A 
ATOM     10  C   UNL     1       1.170   2.095   0.002  0.00  0.00    +0.001 A 
ATOM     11  C   UNL     1       2.378   1.420  -0.013  0.00  0.00    +0.000 A 
ATOM     12  C   UNL     1       2.404   0.036  -0.021  0.00  0.00    +0.001 A 
ATOM     13  C   UNL     1       1.225  -0.679  -0.013  0.00  0.00    +0.010 A 
ENDBRANCH   6   8
BRANCH   4  14
ATOM     14  C   UNL     1      -3.325  -3.289  -1.239  0.00  0.00    +0.438 C 
ATOM     15  F   UNL     1      -2.657  -4.517  -1.291  0.00  0.00    -0.166 F 
ATOM     16  F   UNL     1      -4.706  -3.510  -1.202  0.00  0.00    -0.166 F 
ATOM     17  F   UNL     1      -3.003  -2.535  -2.373  0.00  0.00    -0.166 F 
ENDBRANCH   4  14
BRANCH   4  18
ATOM     18  O   UNL     1      -3.274  -3.248   1.192  0.00  0.00    -0.363 OA
ATOM     19  H   UNL     1      -2.924  -4.280   1.341  0.00  0.00    +0.212 HD
ENDBRANCH   4  18
BRANCH   1  20
ATOM     20  C   UNL     1      -5.248   0.550   0.057  0.00  0.00    +0.326 C 
BRANCH  20  21
ATOM     21  O   UNL     1      -6.676   0.596   0.072  0.00  0.00    -0.482 OA
BRANCH  21  27
ATOM     22  C   UNL     1      -6.192   5.453   0.093  0.00  0.00    +0.044 C 
ATOM     23  C   UNL     1      -7.052   4.215   0.095  0.00  0.00    -0.047 A 
ATOM     24  C   UNL     1      -8.430   4.330   0.110  0.00  0.00    +0.004 A 
ATOM     25  C   UNL     1      -9.221   3.196   0.113  0.00  0.00    +0.008 A 
ATOM     26  C   UNL     1      -8.636   1.945   0.094  0.00  0.00    -0.003 A 
ATOM     27  C   UNL     1      -7.254   1.826   0.085  0.00  0.00    +0.125 A 
ATOM     28  C   UNL     1      -6.462   2.966   0.083  0.00  0.00    +0.049 A 
BRANCH  26  29
ATOM     29  C   UNL     1      -9.499   0.709   0.090  0.00  0.00    +0.016 C 
ATOM     30  C   UNL     1     -10.375   0.695   1.344  0.00  0.00    +0.012 C 
ATOM     31  C   UNL     1     -10.390   0.713  -1.154  0.00  0.00    +0.012 C 
ENDBRANCH  26  29
ENDBRANCH  21  27
ENDBRANCH  20  21
ENDBRANCH   1  20
TORSDOF 7
