REMARK  Name = ZINC11787496
REMARK  13 active torsions:
REMARK  status: ('A' for Active; 'I' for Inactive)
REMARK    1  A    between atoms: C_1  and  C_2
REMARK    2  A    between atoms: C_2  and  C_3
REMARK    3  A    between atoms: C_2  and  C_4
REMARK    4  A    between atoms: C_4  and  C_5
REMARK    5  A    between atoms: C_5  and  C_7
REMARK    6  A    between atoms: C_5  and  N_27
REMARK    7  A    between atoms: C_16  and  C_17
REMARK    8  A    between atoms: C_16  and  N_69
REMARK    9  A    between atoms: C_18  and  O_25
REMARK   10  A    between atoms: C_22  and  O_23
REMARK   11  A    between atoms: O_23  and  C_24
REMARK   12  A    between atoms: O_25  and  C_26
REMARK   13  A    between atoms: C_28  and  C_30
REMARK                            x       y       z     vdW  Elec       q    Type
REMARK                         _______ _______ _______ _____ _____    ______ ____
ROOT
ATOM      1  C   UNL     1       1.209   1.742  -0.000  0.00  0.00    +0.154 A 
ATOM      2  N   UNL     1      -0.015   1.284   0.009  0.00  0.00    -0.132 NA
ATOM      3  N   UNL     1       0.002  -0.004   0.002  0.00  0.00    -0.134 NA
ATOM      4  C   UNL     1       1.234  -0.422  -0.017  0.00  0.00    +0.132 A 
ATOM      5  N   UNL     1       2.034   0.673  -0.002  0.00  0.00    -0.315 N 
ATOM      6  C   UNL     1       3.496   0.669   0.024  0.00  0.00    +0.106 C 
ATOM      7  C   UNL     1       4.009  -0.611  -0.642  0.00  0.00    -0.056 C 
ATOM      8  C   UNL     1       2.846  -2.014   0.971  0.00  0.00    -0.071 C 
ATOM      9  C   UNL     1       1.724  -1.846  -0.058  0.00  0.00    +0.058 C 
ATOM     10  N   UNL     1       4.159  -1.669   0.382  0.00  0.00    +0.384 N 
ATOM     11  H   UNL     1       4.775  -1.322   1.127  0.00  0.00    -0.081 HD
ENDROOT
BRANCH   1  12
ATOM     12  C   UNL     1       1.623   3.191  -0.007  0.00  0.00    +0.142 C 
BRANCH  12  13
ATOM     13  N   UNL     1       0.824   3.931   0.974  0.00  0.00    -0.301 N 
ATOM     14  C   UNL     1       1.307   5.067   1.516  0.00  0.00    +0.246 C 
ATOM     15  O   UNL     1       2.404   5.477   1.192  0.00  0.00    -0.270 OA
ATOM     16  H   UNL     1      -0.051   3.604   1.232  0.00  0.00    +0.150 HD
BRANCH  14  17
ATOM     17  C   UNL     1       0.501   5.814   2.505  0.00  0.00    +0.055 A 
ATOM     18  C   UNL     1       0.993   6.992   3.080  0.00  0.00    +0.016 A 
ATOM     19  C   UNL     1       0.197   7.656   3.997  0.00  0.00    +0.020 A 
ATOM     20  C   UNL     1      -1.042   7.134   4.321  0.00  0.00    +0.111 A 
ATOM     21  N   UNL     1      -1.478   6.019   3.767  0.00  0.00    -0.263 NA
ATOM     22  C   UNL     1      -0.760   5.354   2.886  0.00  0.00    +0.123 A 
ENDBRANCH  14  17
ENDBRANCH  12  13
BRANCH  12  23
ATOM     23  C   UNL     1       1.394   3.780  -1.400  0.00  0.00    +0.033 C 
BRANCH  23  25
ATOM     24  C   UNL     1       3.447   5.197  -1.254  0.00  0.00    +0.007 C 
ATOM     25  C   UNL     1       1.929   5.213  -1.442  0.00  0.00    -0.015 C 
ATOM     26  C   UNL     1       1.589   5.845  -2.793  0.00  0.00    +0.007 C 
ENDBRANCH  23  25
ENDBRANCH  12  23
ENDBRANCH   1  12
BRANCH  10  27
ATOM     27  C   UNL     1       4.768  -2.869  -0.220  0.00  0.00    -0.036 C 
BRANCH  27  28
ATOM     28  C   UNL     1       5.137  -3.826   0.884  0.00  0.00    +0.019 A 
ATOM     29  C   UNL     1       6.383  -3.744   1.486  0.00  0.00    +0.125 A 
ATOM     30  C   UNL     1       6.719  -4.623   2.507  0.00  0.00    +0.046 A 
ATOM     31  C   UNL     1       5.816  -5.586   2.915  0.00  0.00    +0.007 A 
ATOM     32  C   UNL     1       4.575  -5.673   2.313  0.00  0.00    +0.046 A 
ATOM     33  C   UNL     1       4.233  -4.793   1.296  0.00  0.00    +0.125 A 
BRANCH  33  34
ATOM     34  O   UNL     1       3.013  -4.879   0.705  0.00  0.00    -0.495 OA
ATOM     35  C   UNL     1       2.132  -5.899   1.180  0.00  0.00    +0.277 C 
ENDBRANCH  33  34
BRANCH  29  36
ATOM     36  O   UNL     1       7.274  -2.801   1.081  0.00  0.00    -0.495 OA
ATOM     37  C   UNL     1       8.539  -2.775   1.745  0.00  0.00    +0.277 C 
ENDBRANCH  29  36
ENDBRANCH  27  28
ENDBRANCH  10  27
TORSDOF 9
