REMARK  Name = ZINC21969491
REMARK  10 active torsions:
REMARK  status: ('A' for Active; 'I' for Inactive)
REMARK    1  A    between atoms: C_1  and  C_2
REMARK    2  A    between atoms: C_2  and  C_3
REMARK    3  A    between atoms: C_2  and  C_4
REMARK    4  A    between atoms: C_2  and  C_5
REMARK    5  A    between atoms: C_12  and  C_14
REMARK    6  A    between atoms: N_16  and  N_17
REMARK    7  A    between atoms: C_18  and  C_20
REMARK    8  A    between atoms: C_24  and  N_26
REMARK    9  A    between atoms: N_26  and  S_27
REMARK   10  A    between atoms: S_27  and  C_30
REMARK                            x       y       z     vdW  Elec       q    Type
REMARK                         _______ _______ _______ _____ _____    ______ ____
ROOT
ATOM      1  C   UNL     1       8.364  -1.620  -4.691  0.00  0.00    +0.267 C 
ATOM      2  O   UNL     1       8.799  -0.552  -4.302  0.00  0.00    -0.268 OA
ATOM      3  N   UNL     1       7.088  -1.965  -4.425  0.00  0.00    -0.230 N 
ATOM      4  H   UNL     1       6.695  -2.930  -4.777  0.00  0.00    +0.173 HD
ENDROOT
BRANCH   1  11
ATOM      5  C   UNL     1      13.078  -4.733  -7.349  0.00  0.00    -0.001 C 
ATOM      6  C   UNL     1      12.105  -5.391  -8.331  0.00  0.00    +0.009 C 
ATOM      7  C   UNL     1      10.794  -5.700  -7.594  0.00  0.00    +0.043 C 
ATOM      8  C   UNL     1      10.381  -4.478  -6.833  0.00  0.00    -0.006 A 
ATOM      9  C   UNL     1      11.150  -3.387  -6.547  0.00  0.00    -0.036 A 
ATOM     10  C   UNL     1      10.547  -2.370  -5.824  0.00  0.00    +0.024 A 
ATOM     11  C   UNL     1       9.226  -2.530  -5.449  0.00  0.00    +0.076 A 
ATOM     12  S   UNL     1       8.849  -4.140  -6.122  0.00  0.00    -0.088 S 
ATOM     13  C   UNL     1      12.603  -3.319  -7.012  0.00  0.00    +0.040 C 
BRANCH   5  15
ATOM     14  C   UNL     1      15.446  -4.016  -6.998  0.00  0.00    +0.011 C 
ATOM     15  C   UNL     1      14.469  -4.663  -7.982  0.00  0.00    -0.035 C 
ATOM     16  C   UNL     1      14.947  -6.077  -8.320  0.00  0.00    +0.011 C 
ATOM     17  C   UNL     1      14.406  -3.827  -9.262  0.00  0.00    +0.011 C 
ENDBRANCH   5  15
ENDBRANCH   1  11
BRANCH   3  18
ATOM     18  N   UNL     1       6.263  -1.095  -3.700  0.00  0.00    -0.230 N 
ATOM     19  C   UNL     1       4.988  -1.440  -3.434  0.00  0.00    +0.260 C 
ATOM     20  O   UNL     1       4.553  -2.506  -3.823  0.00  0.00    -0.269 OA
ATOM     21  H   UNL     1       6.657  -0.129  -3.349  0.00  0.00    +0.173 HD
BRANCH  19  22
ATOM     22  C   UNL     1       4.118  -0.521  -2.669  0.00  0.00    +0.040 A 
ATOM     23  C   UNL     1       4.615   0.704  -2.221  0.00  0.00    +0.013 A 
ATOM     24  C   UNL     1       3.801   1.560  -1.507  0.00  0.00    +0.003 A 
ATOM     25  C   UNL     1       2.491   1.211  -1.238  0.00  0.00    +0.024 A 
ATOM     26  C   UNL     1       1.988  -0.009  -1.674  0.00  0.00    +0.048 A 
ATOM     27  C   UNL     1       2.798  -0.876  -2.393  0.00  0.00    +0.037 A 
BRANCH  26  28
ATOM     28  N   UNL     1       0.665  -0.360  -1.394  0.00  0.00    -0.221 N 
ATOM     29  H   UNL     1      -0.159   0.108  -1.954  0.00  0.00    +0.173 HD
BRANCH  28  30
ATOM     30  S   UNL     1       0.336  -1.481  -0.220  0.00  0.00    +0.040 S 
ATOM     31  O   UNL     1       1.141  -2.603  -0.554  0.00  0.00    -0.155 OA
ATOM     32  O   UNL     1      -1.081  -1.585  -0.205  0.00  0.00    -0.155 OA
ATOM     33  C   UNL     1       0.924  -0.727   1.321  0.00  0.00    +0.218 C 
ENDBRANCH  28  30
ENDBRANCH  26  28
ENDBRANCH  19  22
ENDBRANCH   3  18
TORSDOF 6
