REMARK  Name = ZINC35361477
REMARK  6 active torsions:
REMARK  status: ('A' for Active; 'I' for Inactive)
REMARK    1  A    between atoms: C_1  and  C_2
REMARK    2  A    between atoms: N_14  and  N_15
REMARK    3  A    between atoms: N_15  and  C_16
REMARK    4  A    between atoms: C_16  and  N_18
REMARK    5  A    between atoms: C_22  and  C_29
REMARK    6  A    between atoms: C_25  and  O_28
REMARK                            x       y       z     vdW  Elec       q    Type
REMARK                         _______ _______ _______ _____ _____    ______ ____
ROOT
ATOM      1  C   UNL     1      -0.019   1.522   0.010  0.00  0.00    +0.018 C 
ATOM      2  C   UNL     1       0.002  -0.004   0.002  0.00  0.00    +0.011 C 
ATOM      3  C   UNL     1      -1.385  -0.586  -0.002  0.00  0.00    +0.013 C 
ATOM      4  C   UNL     1      -2.001  -0.578   1.401  0.00  0.00    +0.005 C 
ATOM      5  C   UNL     1      -1.165   0.171   2.421  0.00  0.00    +0.003 C 
ATOM      6  C   UNL     1       0.263  -0.338   2.519  0.00  0.00    +0.001 C 
ATOM      7  C   UNL     1       0.831  -0.614   1.147  0.00  0.00    +0.005 C 
ATOM      8  C   UNL     1       2.226  -0.045   0.845  0.00  0.00    +0.010 C 
ATOM      9  C   UNL     1       2.295  -0.158  -0.705  0.00  0.00    +0.053 C 
ATOM     10  C   UNL     1       0.868  -0.403  -1.187  0.00  0.00    +0.043 C 
ATOM     11  N   UNL     1       0.471  -0.837  -2.312  0.00  0.00    -0.189 NA
ATOM     12  C   UNL     1       0.289  -1.674   3.282  0.00  0.00    +0.031 C 
ATOM     13  C   UNL     1      -0.467  -1.584   4.567  0.00  0.00    -0.027 C 
ATOM     14  C   UNL     1      -1.423  -0.730   4.777  0.00  0.00    -0.065 C 
ATOM     15  C   UNL     1      -1.860   0.283   3.767  0.00  0.00    -0.008 C 
ATOM     16  C   UNL     1      -3.378   0.222   3.598  0.00  0.00    +0.014 C 
ATOM     17  C   UNL     1      -4.080   0.303   4.952  0.00  0.00    +0.032 C 
ATOM     18  C   UNL     1      -3.642  -0.852   5.852  0.00  0.00    +0.119 C 
ATOM     19  C   UNL     1      -2.136  -0.758   6.118  0.00  0.00    +0.062 C 
ATOM     20  C   UNL     1      -1.507   1.673   4.318  0.00  0.00    +0.016 C 
ENDROOT
BRANCH  11  21
ATOM     21  N   UNL     1       1.404  -1.161  -3.306  0.00  0.00    -0.219 N 
ATOM     22  H   UNL     1       2.353  -1.054  -3.135  0.00  0.00    +0.176 HD
BRANCH  21  23
ATOM     23  C   UNL     1       0.983  -1.622  -4.501  0.00  0.00    +0.147 C 
ATOM     24  S   UNL     1       2.123  -2.018  -5.715  0.00  0.00    -0.017 S 
BRANCH  23  25
ATOM     25  N   UNL     1      -0.335  -1.772  -4.739  0.00  0.00    -0.339 N 
ATOM     26  H   UNL     1      -0.981  -1.548  -4.051  0.00  0.00    +0.144 HD
ATOM     27  H   UNL     1      -0.638  -2.104  -5.599  0.00  0.00    +0.144 HD
ENDBRANCH  23  25
ENDBRANCH  21  23
ENDBRANCH  11  21
BRANCH  18  28
ATOM     28  O   UNL     1      -4.348  -0.782   7.093  0.00  0.00    -0.391 OA
ATOM     29  H   UNL     1      -4.120  -1.486   7.715  0.00  0.00    +0.210 HD
ENDBRANCH  18  28
TORSDOF 4
