REMARK  Name = ZINC35033970
REMARK  9 active torsions:
REMARK  status: ('A' for Active; 'I' for Inactive)
REMARK    1  A    between atoms: C_1  and  C_2
REMARK    2  A    between atoms: C_2  and  C_3
REMARK    3  A    between atoms: C_3  and  C_5
REMARK    4  A    between atoms: C_3  and  N_18
REMARK    5  A    between atoms: N_15  and  C_16
REMARK    6  A    between atoms: C_16  and  C_17
REMARK    7  A    between atoms: C_22  and  C_25
REMARK    8  A    between atoms: N_28  and  C_29
REMARK    9  A    between atoms: C_32  and  N_35
REMARK                            x       y       z     vdW  Elec       q    Type
REMARK                         _______ _______ _______ _____ _____    ______ ____
ROOT
ATOM      1  N   UNL     1      -2.547  -0.915  -1.705  0.00  0.00    +0.388 N 
ATOM      2  C   UNL     1      -2.760   0.422  -1.138  0.00  0.00    -0.058 C 
ATOM      3  C   UNL     1      -3.018   1.421  -2.271  0.00  0.00    +0.091 C 
ATOM      4  N   UNL     1      -4.136   0.923  -3.087  0.00  0.00    -0.286 N 
ATOM      5  C   UNL     1      -4.080  -0.468  -3.563  0.00  0.00    +0.058 C 
ATOM      6  C   UNL     1      -3.772  -1.378  -2.369  0.00  0.00    -0.055 C 
ATOM      7  C   UNL     1      -5.427  -0.856  -4.176  0.00  0.00    +0.026 C 
ATOM      8  C   UNL     1      -5.181   1.718  -3.390  0.00  0.00    +0.307 C 
ATOM      9  O   UNL     1      -6.141   1.261  -3.980  0.00  0.00    -0.252 OA
ATOM     10  N   UNL     1      -5.163   3.018  -3.038  0.00  0.00    -0.269 N 
ATOM     11  H   UNL     1      -4.360   3.406  -2.657  0.00  0.00    +0.156 HD
ATOM     12  H   UNL     1      -1.796  -0.877  -2.378  0.00  0.00    -0.081 HD
ENDROOT
BRANCH  10  13
ATOM     13  C   UNL     1      -6.302   3.809  -3.223  0.00  0.00    +0.035 A 
ATOM     14  C   UNL     1      -7.566   3.242  -3.125  0.00  0.00    +0.025 A 
ATOM     15  C   UNL     1      -8.689   4.026  -3.307  0.00  0.00    +0.034 A 
ATOM     16  C   UNL     1      -8.556   5.373  -3.587  0.00  0.00    +0.126 A 
ATOM     17  C   UNL     1      -7.298   5.941  -3.685  0.00  0.00    +0.034 A 
ATOM     18  C   UNL     1      -6.172   5.164  -3.498  0.00  0.00    +0.025 A 
BRANCH  16  19
ATOM     19  N   UNL     1      -9.761   6.210  -3.781  0.00  0.00    +0.056 N 
ATOM     20  O   UNL     1     -10.861   5.715  -3.696  0.00  0.00    -0.126 OA
ATOM     21  O   UNL     1      -9.646   7.389  -4.026  0.00  0.00    -0.126 OA
ENDBRANCH  16  19
ENDBRANCH  10  13
BRANCH   1  22
ATOM     22  C   UNL     1      -2.192  -1.850  -0.630  0.00  0.00    -0.001 C 
BRANCH  22  23
ATOM     23  C   UNL     1      -1.993  -3.228  -1.207  0.00  0.00    +0.099 A 
ATOM     24  N   UNL     1      -1.464  -3.330  -2.389  0.00  0.00    -0.235 NA
ATOM     25  C   UNL     1      -1.255  -4.537  -2.972  0.00  0.00    +0.078 A 
ATOM     26  C   UNL     1      -0.686  -4.647  -4.242  0.00  0.00    +0.028 A 
ATOM     27  C   UNL     1      -0.491  -5.893  -4.796  0.00  0.00    +0.002 A 
ATOM     28  C   UNL     1      -0.854  -7.043  -4.107  0.00  0.00    +0.001 A 
ATOM     29  C   UNL     1      -1.417  -6.959  -2.852  0.00  0.00    +0.015 A 
ATOM     30  C   UNL     1      -1.622  -5.708  -2.274  0.00  0.00    +0.065 A 
ATOM     31  C   UNL     1      -2.219  -5.557  -0.938  0.00  0.00    +0.262 A 
ATOM     32  O   UNL     1      -2.557  -6.526  -0.284  0.00  0.00    -0.267 OA
ATOM     33  N   UNL     1      -2.371  -4.300  -0.462  0.00  0.00    -0.298 N 
BRANCH  33  34
ATOM     34  C   UNL     1      -2.954  -4.091   0.865  0.00  0.00    +0.123 C 
ATOM     35  C   UNL     1      -4.477  -4.011   0.747  0.00  0.00    +0.027 C 
ENDBRANCH  33  34
ENDBRANCH  22  23
BRANCH  22  37
ATOM     36  C   UNL     1       0.231  -1.356  -0.992  0.00  0.00    +0.002 C 
ATOM     37  C   UNL     1      -0.897  -1.387   0.042  0.00  0.00    -0.011 C 
ENDBRANCH  22  37
ENDBRANCH   1  22
TORSDOF 6
