REMARK  Name = ZINC39726692
REMARK  6 active torsions:
REMARK  status: ('A' for Active; 'I' for Inactive)
REMARK    1  A    between atoms: C_1  and  C_2
REMARK    2  A    between atoms: C_2  and  C_4
REMARK    3  A    between atoms: C_2  and  S_15
REMARK    4  A    between atoms: S_15  and  C_16
REMARK    5  A    between atoms: C_20  and  C_25
REMARK    6  A    between atoms: N_21  and  C_22
REMARK                            x       y       z     vdW  Elec       q    Type
REMARK                         _______ _______ _______ _____ _____    ______ ____
ROOT
ATOM      1  C   UNL     1      -2.023  -0.160  -1.742  0.00  0.00    +0.238 C 
ATOM      2  N   UNL     1      -1.235  -0.790  -2.814  0.00  0.00    -0.237 N 
ATOM      3  N   UNL     1      -0.769   0.249  -3.629  0.00  0.00    -0.169 NA
ATOM      4  C   UNL     1      -1.171   1.412  -3.190  0.00  0.00    +0.147 C 
ATOM      5  N   UNL     1      -1.951   1.281  -2.035  0.00  0.00    -0.282 N 
ATOM      6  H   UNL     1      -1.070  -1.739  -2.933  0.00  0.00    +0.171 HD
ENDROOT
BRANCH   4   7
ATOM      7  C   UNL     1      -0.861   2.638  -3.800  0.00  0.00    +0.022 C 
ATOM      8  C   UNL     1      -0.179   2.834  -5.001  0.00  0.00    +0.006 A 
ATOM      9  C   UNL     1       0.384   1.938  -5.935  0.00  0.00    +0.010 A 
ATOM     10  C   UNL     1       1.002   2.420  -7.043  0.00  0.00    +0.001 A 
ATOM     11  C   UNL     1       1.099   3.792  -7.288  0.00  0.00    +0.002 A 
ATOM     12  C   UNL     1       0.582   4.709  -6.434  0.00  0.00    +0.026 A 
ATOM     13  C   UNL     1      -0.080   4.280  -5.254  0.00  0.00    +0.043 A 
ATOM     14  N   UNL     1      -0.658   4.959  -4.283  0.00  0.00    -0.380 N 
ATOM     15  C   UNL     1      -1.202   4.022  -3.295  0.00  0.00    +0.152 C 
ATOM     16  H   UNL     1      -0.718   5.926  -4.232  0.00  0.00    +0.160 HD
ENDBRANCH   4   7
BRANCH   5  17
ATOM     17  C   UNL     1      -2.573   2.363  -1.267  0.00  0.00    +0.078 C 
ATOM     18  C   UNL     1      -3.197   2.002   0.083  0.00  0.00    +0.024 C 
ATOM     19  C   UNL     1      -4.095   2.334  -1.111  0.00  0.00    +0.024 C 
ENDBRANCH   5  17
BRANCH   1  20
ATOM     20  S   UNL     1      -1.288  -0.516  -0.122  0.00  0.00    -0.106 S 
BRANCH  20  22
ATOM     21  C   UNL     1       0.656   1.391  -0.372  0.00  0.00    +0.029 C 
ATOM     22  C   UNL     1       0.470  -0.127  -0.342  0.00  0.00    +0.133 C 
BRANCH  22  23
ATOM     23  C   UNL     1       1.260  -0.708   0.802  0.00  0.00    +0.233 C 
ATOM     24  O   UNL     1       0.708  -0.965   1.851  0.00  0.00    -0.274 OA
ATOM     25  N   UNL     1       2.579  -0.943   0.659  0.00  0.00    -0.270 N 
ATOM     26  C   UNL     1       3.334  -0.770  -0.585  0.00  0.00    +0.118 C 
ATOM     27  C   UNL     1       4.779  -1.160  -0.238  0.00  0.00    +0.056 C 
ATOM     28  C   UNL     1       4.731  -1.537   1.226  0.00  0.00    -0.024 A 
ATOM     29  C   UNL     1       3.430  -1.382   1.679  0.00  0.00    +0.040 A 
ATOM     30  C   UNL     1       3.139  -1.667   3.013  0.00  0.00    +0.024 A 
ATOM     31  C   UNL     1       4.134  -2.094   3.867  0.00  0.00    +0.002 A 
ATOM     32  C   UNL     1       5.429  -2.241   3.407  0.00  0.00    +0.000 A 
ATOM     33  C   UNL     1       5.724  -1.969   2.083  0.00  0.00    +0.005 A 
ENDBRANCH  22  23
ENDBRANCH  20  22
ENDBRANCH   1  20
TORSDOF 5
