REMARK  Name = ZINC39725518
REMARK  8 active torsions:
REMARK  status: ('A' for Active; 'I' for Inactive)
REMARK    1  A    between atoms: C_1  and  C_2
REMARK    2  A    between atoms: C_5  and  N_9
REMARK    3  A    between atoms: C_6  and  C_8
REMARK    4  A    between atoms: C_10  and  C_12
REMARK    5  A    between atoms: C_12  and  S_13
REMARK    6  A    between atoms: S_13  and  C_14
REMARK    7  A    between atoms: N_28  and  C_29
REMARK    8  A    between atoms: C_34  and  C_35
REMARK                            x       y       z     vdW  Elec       q    Type
REMARK                         _______ _______ _______ _____ _____    ______ ____
ROOT
ATOM      1  C   UNL     1      -0.564  -8.920  -2.755  0.00  0.00    +0.259 C 
ATOM      2  N   UNL     1       0.683  -9.501  -2.249  0.00  0.00    -0.248 NA
ATOM      3  C   UNL     1       0.734 -10.025  -1.071  0.00  0.00    +0.101 C 
ATOM      4  C   UNL     1       1.788 -10.681  -0.264  0.00  0.00    +0.028 A 
ATOM      5  C   UNL     1       3.122 -10.976  -0.474  0.00  0.00    +0.012 A 
ATOM      6  C   UNL     1       3.852 -11.617   0.516  0.00  0.00    +0.001 A 
ATOM      7  C   UNL     1       3.249 -11.960   1.713  0.00  0.00    +0.002 A 
ATOM      8  C   UNL     1       1.917 -11.673   1.940  0.00  0.00    +0.028 A 
ATOM      9  C   UNL     1       1.162 -11.026   0.954  0.00  0.00    +0.074 A 
ATOM     10  N   UNL     1      -0.136 -10.636   0.923  0.00  0.00    -0.240 NA
ATOM     11  C   UNL     1      -0.469 -10.055  -0.196  0.00  0.00    +0.152 C 
ATOM     12  C   UNL     1      -1.735  -9.474  -0.691  0.00  0.00    +0.274 C 
ATOM     13  O   UNL     1      -2.731  -9.487   0.005  0.00  0.00    -0.268 OA
ATOM     14  N   UNL     1      -1.771  -8.929  -1.925  0.00  0.00    -0.234 N 
ENDROOT
BRANCH  14  15
ATOM     15  C   UNL     1      -2.958  -8.374  -2.410  0.00  0.00    +0.042 A 
ATOM     16  C   UNL     1      -3.283  -7.056  -2.113  0.00  0.00    +0.024 A 
ATOM     17  C   UNL     1      -4.456  -6.510  -2.594  0.00  0.00    +0.002 A 
ATOM     18  C   UNL     1      -5.309  -7.274  -3.370  0.00  0.00    +0.000 A 
ATOM     19  C   UNL     1      -4.990  -8.587  -3.666  0.00  0.00    +0.005 A 
ATOM     20  C   UNL     1      -3.814  -9.137  -3.193  0.00  0.00    -0.029 A 
ATOM     21  C   UNL     1      -3.464 -10.565  -3.522  0.00  0.00    +0.045 C 
ENDBRANCH  14  15
BRANCH   1  22
ATOM     22  S   UNL     1      -0.217  -7.192  -3.184  0.00  0.00    -0.106 S 
BRANCH  22  23
ATOM     23  C   UNL     1       0.189  -6.418  -1.595  0.00  0.00    +0.168 C 
BRANCH  23  25
ATOM     24  N   UNL     1       0.722  -4.156  -0.747  0.00  0.00    -0.285 N 
ATOM     25  C   UNL     1       0.406  -4.940  -1.797  0.00  0.00    +0.227 C 
ATOM     26  O   UNL     1       0.298  -4.457  -2.904  0.00  0.00    -0.275 OA
ATOM     27  H   UNL     1       0.868  -4.551   0.127  0.00  0.00    +0.155 HD
BRANCH  24  32
ATOM     28  C   UNL     1       1.189   1.455  -1.439  0.00  0.00    +0.044 C 
ATOM     29  C   UNL     1       1.065  -0.035  -1.255  0.00  0.00    -0.050 A 
ATOM     30  C   UNL     1       1.316  -0.885  -2.317  0.00  0.00    +0.005 A 
ATOM     31  C   UNL     1       1.203  -2.251  -2.152  0.00  0.00    +0.024 A 
ATOM     32  C   UNL     1       0.837  -2.772  -0.918  0.00  0.00    +0.036 A 
ATOM     33  C   UNL     1       0.586  -1.916   0.147  0.00  0.00    -0.029 A 
ATOM     34  C   UNL     1       0.705  -0.551  -0.024  0.00  0.00    +0.008 A 
ATOM     35  C   UNL     1       0.189  -2.477   1.488  0.00  0.00    +0.045 C 
ENDBRANCH  24  32
ENDBRANCH  23  25
ENDBRANCH  22  23
ENDBRANCH   1  22
TORSDOF 5
