REMARK  Name = ZINC12883089
REMARK  7 active torsions:
REMARK  status: ('A' for Active; 'I' for Inactive)
REMARK    1  A    between atoms: C_1  and  C_2
REMARK    2  A    between atoms: C_18  and  C_20
REMARK    3  A    between atoms: C_20  and  N_76
REMARK    4  A    between atoms: C_24  and  C_26
REMARK    5  A    between atoms: C_26  and  C_27
REMARK    6  A    between atoms: C_26  and  C_33
REMARK    7  A    between atoms: C_26  and  O_39
REMARK                            x       y       z     vdW  Elec       q    Type
REMARK                         _______ _______ _______ _____ _____    ______ ____
ROOT
ATOM      1  C   UNL     1       0.493   1.276   0.086  0.00  0.00    -0.078 C 
ATOM      2  C   UNL     1      -0.296   1.979  -1.034  0.00  0.00    -0.020 C 
ATOM      3  C   UNL     1       0.135   1.269  -2.338  0.00  0.00    -0.014 C 
ATOM      4  C   UNL     1       1.502   0.646  -1.958  0.00  0.00    -0.027 C 
ATOM      5  N   UNL     1       1.278   0.227  -0.565  0.00  0.00    +0.384 N 
ATOM      6  H   UNL     1       0.757  -0.658  -0.548  0.00  0.00    -0.081 HD
ENDROOT
BRANCH   5   7
ATOM      7  C   UNL     1       2.583   0.039   0.138  0.00  0.00    -0.063 C 
BRANCH   7  22
ATOM      8  C   UNL     1       2.989  -2.541   5.096  0.00  0.00    +0.011 C 
ATOM      9  C   UNL     1       4.409  -2.098   4.737  0.00  0.00    -0.023 C 
ATOM     10  C   UNL     1       5.398  -2.671   5.751  0.00  0.00    +0.007 C 
ATOM     11  C   UNL     1       5.024  -2.207   7.160  0.00  0.00    +0.003 C 
ATOM     12  C   UNL     1       5.142  -0.682   7.242  0.00  0.00    +0.037 C 
ATOM     13  C   UNL     1       4.259  -0.055   6.160  0.00  0.00    +0.096 C 
ATOM     14  C   UNL     1       4.506  -0.566   4.739  0.00  0.00    +0.030 C 
ATOM     15  C   UNL     1       3.434  -0.020   3.799  0.00  0.00    +0.014 C 
ATOM     16  C   UNL     1       3.681  -0.489   2.364  0.00  0.00    +0.042 C 
ATOM     17  C   UNL     1       3.820  -2.022   2.299  0.00  0.00    +0.181 C 
ATOM     18  C   UNL     1       4.762  -2.589   3.333  0.00  0.00    +0.052 C 
ATOM     19  O   UNL     1       2.451  -2.495   2.448  0.00  0.00    -0.461 OA
ATOM     20  C   UNL     1       1.665  -1.673   1.717  0.00  0.00    +0.309 C 
ATOM     21  O   UNL     1       0.600  -1.972   1.231  0.00  0.00    -0.251 OA
ATOM     22  C   UNL     1       2.331  -0.315   1.605  0.00  0.00    +0.088 C 
ATOM     23  C   UNL     1       3.847   1.406   6.333  0.00  0.00    +0.196 C 
ATOM     24  O   UNL     1       2.931   0.324   6.516  0.00  0.00    -0.368 OA
ENDBRANCH   7  22
ENDBRANCH   5   7
BRANCH   4  25
ATOM     25  C   UNL     1       1.816  -0.554  -2.853  0.00  0.00    +0.104 C 
BRANCH  25  26
ATOM     26  C   UNL     1       1.843  -0.113  -4.294  0.00  0.00    -0.013 A 
ATOM     27  C   UNL     1       2.216   1.180  -4.613  0.00  0.00    +0.007 A 
ATOM     28  C   UNL     1       2.245   1.584  -5.935  0.00  0.00    +0.000 A 
ATOM     29  C   UNL     1       1.893   0.698  -6.936  0.00  0.00    +0.000 A 
ATOM     30  C   UNL     1       1.515  -0.593  -6.616  0.00  0.00    +0.000 A 
ATOM     31  C   UNL     1       1.490  -0.998  -5.295  0.00  0.00    +0.007 A 
ENDBRANCH  25  26
BRANCH  25  32
ATOM     32  C   UNL     1       3.160  -1.123  -2.477  0.00  0.00    -0.013 A 
ATOM     33  C   UNL     1       4.266  -0.297  -2.406  0.00  0.00    +0.007 A 
ATOM     34  C   UNL     1       5.497  -0.818  -2.058  0.00  0.00    +0.000 A 
ATOM     35  C   UNL     1       5.625  -2.168  -1.787  0.00  0.00    +0.000 A 
ATOM     36  C   UNL     1       4.521  -2.995  -1.862  0.00  0.00    +0.000 A 
ATOM     37  C   UNL     1       3.288  -2.473  -2.207  0.00  0.00    +0.007 A 
ENDBRANCH  25  32
BRANCH  25  38
ATOM     38  O   UNL     1       0.810  -1.554  -2.680  0.00  0.00    -0.381 OA
ATOM     39  H   UNL     1       0.736  -1.885  -1.775  0.00  0.00    +0.211 HD
ENDBRANCH  25  38
ENDBRANCH   4  25
TORSDOF 6
