REMARK  Name = ZINC04127931
REMARK  7 active torsions:
REMARK  status: ('A' for Active; 'I' for Inactive)
REMARK    1  A    between atoms: C_1  and  C_2
REMARK    2  A    between atoms: C_7  and  N_12
REMARK    3  A    between atoms: C_9  and  C_11
REMARK    4  A    between atoms: C_13  and  C_15
REMARK    5  A    between atoms: C_23  and  C_33
REMARK    6  A    between atoms: N_29  and  C_30
REMARK    7  A    between atoms: N_35  and  C_36
REMARK                            x       y       z     vdW  Elec       q    Type
REMARK                         _______ _______ _______ _____ _____    ______ ____
ROOT
ATOM      1  C   UNL     1       1.177  -1.016  -1.122  0.00  0.00    +0.199 C 
ATOM      2  C   UNL     1       0.430  -2.305  -1.236  0.00  0.00    +0.127 C 
ATOM      3  C   UNL     1      -0.517  -2.329  -2.422  0.00  0.00    +0.009 C 
ATOM      4  C   UNL     1      -1.108  -3.536  -2.399  0.00  0.00    +0.004 C 
ATOM      5  C   UNL     1      -0.532  -4.209  -1.147  0.00  0.00    +0.155 C 
ATOM      6  O   UNL     1       0.844  -3.644  -1.096  0.00  0.00    -0.358 OA
ATOM      7  C   UNL     1      -1.255  -3.423   0.015  0.00  0.00    +0.123 C 
ATOM      8  C   UNL     1      -0.422  -2.169   0.089  0.00  0.00    +0.128 C 
ATOM      9  C   UNL     1      -0.896  -0.779  -0.046  0.00  0.00    +0.224 C 
ATOM     10  O   UNL     1      -1.965  -0.342   0.324  0.00  0.00    -0.275 OA
ATOM     11  N   UNL     1       0.105  -0.074  -0.669  0.00  0.00    -0.283 N 
ENDROOT
BRANCH   1  13
ATOM     12  N   UNL     1       2.930  -1.063  -2.866  0.00  0.00    -0.311 N 
ATOM     13  C   UNL     1       1.734  -0.595  -2.458  0.00  0.00    +0.237 C 
ATOM     14  O   UNL     1       1.106   0.164  -3.165  0.00  0.00    -0.274 OA
ATOM     15  H   UNL     1       3.432  -1.670  -2.301  0.00  0.00    +0.149 HD
BRANCH  12  21
ATOM     16  C   UNL     1       6.563  -2.950  -4.173  0.00  0.00    +0.008 C 
ATOM     17  C   UNL     1       5.590  -1.883  -3.668  0.00  0.00    -0.009 C 
ATOM     18  C   UNL     1       6.327  -0.551  -3.516  0.00  0.00    +0.003 C 
ATOM     19  C   UNL     1       5.354   0.516  -3.010  0.00  0.00    +0.002 C 
ATOM     20  C   UNL     1       4.210   0.678  -4.013  0.00  0.00    +0.022 C 
ATOM     21  C   UNL     1       3.472  -0.654  -4.165  0.00  0.00    +0.076 C 
ATOM     22  C   UNL     1       4.445  -1.721  -4.670  0.00  0.00    +0.009 C 
ATOM     23  C   UNL     1       3.708  -3.053  -4.822  0.00  0.00    +0.009 C 
ENDBRANCH  12  21
ENDBRANCH   1  13
BRANCH   7  24
ATOM     24  C   UNL     1      -2.681  -3.105  -0.353  0.00  0.00    +0.224 C 
ATOM     25  O   UNL     1      -3.016  -1.955  -0.545  0.00  0.00    -0.275 OA
ATOM     26  N   UNL     1      -3.585  -4.098  -0.470  0.00  0.00    -0.285 N 
ATOM     27  H   UNL     1      -3.302  -5.023  -0.392  0.00  0.00    +0.155 HD
BRANCH  26  28
ATOM     28  C   UNL     1      -4.932  -3.795  -0.703  0.00  0.00    +0.033 A 
ATOM     29  C   UNL     1      -5.489  -2.644  -0.161  0.00  0.00    +0.025 A 
ATOM     30  C   UNL     1      -6.817  -2.346  -0.396  0.00  0.00    +0.022 A 
ATOM     31  C   UNL     1      -7.594  -3.197  -1.162  0.00  0.00    +0.041 A 
ATOM     32  C   UNL     1      -7.042  -4.347  -1.699  0.00  0.00    +0.022 A 
ATOM     33  C   UNL     1      -5.714  -4.648  -1.471  0.00  0.00    +0.025 A 
ATOM     34 CL   UNL     1      -9.265  -2.822  -1.449  0.00  0.00    -0.084 Cl
ENDBRANCH  26  28
ENDBRANCH   7  24
BRANCH  11  35
ATOM     35  C   UNL     1       0.118   1.378  -0.866  0.00  0.00    +0.077 C 
ATOM     36  C   UNL     1      -0.966   2.196  -0.162  0.00  0.00    +0.024 C 
ATOM     37  C   UNL     1      -1.024   1.991  -1.678  0.00  0.00    +0.024 C 
ENDBRANCH  11  35
TORSDOF 5
