REMARK  Name = ZINC31169843
REMARK  12 active torsions:
REMARK  status: ('A' for Active; 'I' for Inactive)
REMARK    1  A    between atoms: C_1  and  O_2
REMARK    2  A    between atoms: O_2  and  C_3
REMARK    3  A    between atoms: C_5  and  C_10
REMARK    4  A    between atoms: C_8  and  O_9
REMARK    5  A    between atoms: C_11  and  O_23
REMARK    6  A    between atoms: C_15  and  O_22
REMARK    7  A    between atoms: C_17  and  O_21
REMARK    8  A    between atoms: O_23  and  C_24
REMARK    9  A    between atoms: C_26  and  O_40
REMARK   10  A    between atoms: C_28  and  O_39
REMARK   11  A    between atoms: C_30  and  O_38
REMARK   12  A    between atoms: C_32  and  C_35
REMARK                            x       y       z     vdW  Elec       q    Type
REMARK                         _______ _______ _______ _____ _____    ______ ____
ROOT
ATOM      1  C   UNL     1       4.763  -0.009   0.068  0.00  0.00    +0.181 A 
ATOM      2  C   UNL     1       4.842   1.349   0.143  0.00  0.00    +0.214 A 
ATOM      3  C   UNL     1       3.657   2.123   0.046  0.00  0.00    +0.238 A 
ATOM      4  O   UNL     1       3.688   3.342   0.109  0.00  0.00    -0.283 OA
ATOM      5  C   UNL     1       2.388   1.399  -0.133  0.00  0.00    +0.109 A 
ATOM      6  C   UNL     1       1.170   2.083  -0.238  0.00  0.00    +0.135 A 
ATOM      7  C   UNL     1      -0.001   1.368  -0.405  0.00  0.00    +0.091 A 
ATOM      8  C   UNL     1       0.033  -0.021  -0.469  0.00  0.00    +0.124 A 
ATOM      9  C   UNL     1       1.234  -0.705  -0.367  0.00  0.00    +0.092 A 
ATOM     10  C   UNL     1       2.419  -0.005  -0.198  0.00  0.00    +0.147 A 
ATOM     11  O   UNL     1       3.597  -0.656  -0.097  0.00  0.00    -0.451 OA
ENDROOT
BRANCH   1  14
ATOM     12  C   UNL     1       7.234  -2.631   1.128  0.00  0.00    +0.162 A 
ATOM     13  C   UNL     1       6.069  -1.894   1.036  0.00  0.00    +0.061 A 
ATOM     14  C   UNL     1       6.005  -0.799   0.170  0.00  0.00    +0.025 A 
ATOM     15  C   UNL     1       7.118  -0.458  -0.604  0.00  0.00    +0.015 A 
ATOM     16  C   UNL     1       8.279  -1.194  -0.502  0.00  0.00    +0.050 A 
ATOM     17  C   UNL     1       8.342  -2.281   0.358  0.00  0.00    +0.158 A 
BRANCH  12  19
ATOM     18  C   UNL     1       6.127  -3.998   2.728  0.00  0.00    +0.277 C 
ATOM     19  O   UNL     1       7.300  -3.697   1.969  0.00  0.00    -0.491 OA
ENDBRANCH  12  19
BRANCH  17  20
ATOM     20  O   UNL     1       9.488  -3.006   0.450  0.00  0.00    -0.503 OA
ATOM     21  H   UNL     1      10.363  -2.731  -0.156  0.00  0.00    +0.292 HD
ENDBRANCH  17  20
ENDBRANCH   1  14
BRANCH   8  22
ATOM     22  O   UNL     1      -1.123  -0.715  -0.633  0.00  0.00    -0.507 OA
ATOM     23  H   UNL     1      -1.103  -1.813  -0.685  0.00  0.00    +0.292 HD
ENDBRANCH   8  22
BRANCH   6  24
ATOM     24  O   UNL     1       1.139   3.439  -0.175  0.00  0.00    -0.506 OA
ATOM     25  H   UNL     1       0.180   3.972  -0.258  0.00  0.00    +0.292 HD
ENDBRANCH   6  24
BRANCH   2  26
ATOM     26  O   UNL     1       6.048   1.958   0.309  0.00  0.00    -0.453 OA
BRANCH  26  27
ATOM     27  C   UNL     1       6.481   2.185   1.651  0.00  0.00    +0.340 C 
ATOM     28  C   UNL     1       7.899   2.760   1.640  0.00  0.00    +0.214 C 
ATOM     29  C   UNL     1       8.333   3.056   3.079  0.00  0.00    +0.180 C 
ATOM     30  C   UNL     1       7.323   4.013   3.719  0.00  0.00    +0.186 C 
ATOM     31  C   UNL     1       5.927   3.389   3.650  0.00  0.00    +0.266 C 
ATOM     32  O   UNL     1       5.598   3.110   2.288  0.00  0.00    -0.322 OA
BRANCH  31  33
ATOM     33  C   UNL     1       4.918   4.349   4.224  0.00  0.00    +0.387 C 
ATOM     34  O   UNL     1       4.063   4.824   3.514  0.00  0.00    -0.243 OA
ATOM     35  O   UNL     1       4.968   4.678   5.525  0.00  0.00    -0.243 OA
ENDBRANCH  31  33
BRANCH  30  36
ATOM     36  O   UNL     1       7.678   4.239   5.085  0.00  0.00    -0.386 OA
ATOM     37  H   UNL     1       7.064   4.904   5.710  0.00  0.00    +0.210 HD
ENDBRANCH  30  36
BRANCH  29  38
ATOM     38  O   UNL     1       8.379   1.839   3.826  0.00  0.00    -0.386 OA
ATOM     39  H   UNL     1       8.672   1.855   4.886  0.00  0.00    +0.210 HD
ENDBRANCH  29  38
BRANCH  28  40
ATOM     40  O   UNL     1       7.919   3.968   0.877  0.00  0.00    -0.383 OA
ATOM     41  H   UNL     1       8.858   4.528   0.757  0.00  0.00    +0.210 HD
ENDBRANCH  28  40
ENDBRANCH  26  27
ENDBRANCH   2  26
TORSDOF 11
