REMARK  Name = ZINC35427358
REMARK  4 active torsions:
REMARK  status: ('A' for Active; 'I' for Inactive)
REMARK    1  A    between atoms: C_1  and  C_2
REMARK    2  A    between atoms: C_7  and  N_8
REMARK    3  A    between atoms: C_23  and  C_25
REMARK    4  A    between atoms: N_33  and  C_36
REMARK                            x       y       z     vdW  Elec       q    Type
REMARK                         _______ _______ _______ _____ _____    ______ ____
ROOT
ATOM      1  N   UNL     1       0.035  -0.832   2.348  0.00  0.00    -0.269 N 
ATOM      2  C   UNL     1      -0.020  -1.237   3.632  0.00  0.00    +0.308 C 
ATOM      3  O   UNL     1       0.077  -2.419   3.901  0.00  0.00    -0.252 OA
ATOM      4  N   UNL     1      -0.182  -0.332   4.617  0.00  0.00    -0.268 N 
ATOM      5  C   UNL     1      -0.309   1.108   4.330  0.00  0.00    +0.148 C 
ATOM      6  C   UNL     1      -1.338   1.791   5.205  0.00  0.00    +0.004 A 
ATOM      7  C   UNL     1      -2.562   2.281   4.715  0.00  0.00    -0.034 A 
ATOM      8  C   UNL     1      -3.398   2.897   5.594  0.00  0.00    -0.021 A 
ATOM      9  S   UNL     1      -2.525   2.813   7.136  0.00  0.00    -0.077 S 
ATOM     10  C   UNL     1      -1.102   1.955   6.535  0.00  0.00    +0.090 A 
ATOM     11  N   UNL     1       0.033   1.492   7.189  0.00  0.00    -0.312 N 
ATOM     12  C   UNL     1       0.855   2.084   8.086  0.00  0.00    +0.092 A 
ATOM     13  C   UNL     1       1.860   1.222   8.364  0.00  0.00    +0.020 A 
ATOM     14  C   UNL     1       1.631   0.046   7.618  0.00  0.00    +0.025 A 
ATOM     15  C   UNL     1       0.495   0.223   6.927  0.00  0.00    +0.049 A 
ATOM     16  C   UNL     1      -0.248  -0.738   6.042  0.00  0.00    +0.155 C 
ATOM     17  C   UNL     1      -4.732   3.497   5.295  0.00  0.00    -0.036 C 
ATOM     18  N   UNL     1      -4.856   3.644   3.832  0.00  0.00    +0.381 N 
ATOM     19  C   UNL     1      -4.500   2.377   3.181  0.00  0.00    -0.074 C 
ATOM     20  C   UNL     1      -2.987   2.148   3.254  0.00  0.00    +0.018 C 
ATOM     21  C   UNL     1      -6.240   3.999   3.491  0.00  0.00    -0.096 C 
ATOM     22  H   UNL     1       0.026   0.115   2.137  0.00  0.00    +0.156 HD
ATOM     23  H   UNL     1      -4.234   4.372   3.514  0.00  0.00    -0.082 HD
ENDROOT
BRANCH   1  30
ATOM     24  C   UNL     1      -1.065  -0.146  -0.185  0.00  0.00    +0.045 C 
ATOM     25  C   UNL     1      -0.419  -1.484   0.067  0.00  0.00    -0.029 A 
ATOM     26  C   UNL     1      -0.343  -2.417  -0.949  0.00  0.00    +0.005 A 
ATOM     27  C   UNL     1       0.250  -3.645  -0.719  0.00  0.00    +0.000 A 
ATOM     28  C   UNL     1       0.768  -3.943   0.529  0.00  0.00    +0.002 A 
ATOM     29  C   UNL     1       0.695  -3.014   1.548  0.00  0.00    +0.023 A 
ATOM     30  C   UNL     1       0.106  -1.778   1.318  0.00  0.00    +0.038 A 
ENDBRANCH   1  30
BRANCH  16  31
ATOM     31  C   UNL     1      -1.691  -0.792   6.471  0.00  0.00    -0.020 A 
ATOM     32  C   UNL     1      -2.681  -1.037   5.537  0.00  0.00    +0.006 A 
ATOM     33  C   UNL     1      -4.005  -1.087   5.930  0.00  0.00    +0.002 A 
ATOM     34  C   UNL     1      -4.341  -0.892   7.257  0.00  0.00    +0.020 A 
ATOM     35  C   UNL     1      -3.351  -0.647   8.192  0.00  0.00    +0.041 A 
ATOM     36  C   UNL     1      -2.025  -0.604   7.799  0.00  0.00    +0.025 A 
ATOM     37 CL   UNL     1      -3.772  -0.403   9.858  0.00  0.00    -0.084 Cl
ENDBRANCH  16  31
TORSDOF 2
