REMARK  Name = ZINC67487899
REMARK  6 active torsions:
REMARK  status: ('A' for Active; 'I' for Inactive)
REMARK    1  A    between atoms: C_1  and  C_2
REMARK    2  A    between atoms: C_5  and  N_9
REMARK    3  A    between atoms: N_12  and  C_13
REMARK    4  A    between atoms: C_13  and  C_15
REMARK    5  A    between atoms: C_13  and  C_16
REMARK    6  A    between atoms: C_23  and  C_25
REMARK                            x       y       z     vdW  Elec       q    Type
REMARK                         _______ _______ _______ _____ _____    ______ ____
ROOT
ATOM      1  N   UNL     1       0.581  -4.030  -0.345  0.00  0.00    -0.267 N 
ATOM      2  C   UNL     1       0.239  -4.776  -1.415  0.00  0.00    +0.305 C 
ATOM      3  O   UNL     1       0.033  -4.242  -2.488  0.00  0.00    -0.252 OA
ATOM      4  N   UNL     1       0.127  -6.113  -1.295  0.00  0.00    -0.288 N 
ATOM      5  H   UNL     1       0.813  -4.460   0.492  0.00  0.00    +0.156 HD
ATOM      6  H   UNL     1       0.292  -6.539  -0.440  0.00  0.00    +0.151 HD
ENDROOT
BRANCH   1  11
ATOM      7  C   UNL     1       0.656   1.632  -0.744  0.00  0.00    +0.044 C 
ATOM      8  C   UNL     1       0.636   0.129  -0.637  0.00  0.00    -0.048 A 
ATOM      9  C   UNL     1       0.981  -0.645  -1.730  0.00  0.00    +0.005 A 
ATOM     10  C   UNL     1       0.963  -2.023  -1.636  0.00  0.00    +0.026 A 
ATOM     11  C   UNL     1       0.600  -2.632  -0.443  0.00  0.00    +0.070 A 
ATOM     12  C   UNL     1       0.254  -1.852   0.654  0.00  0.00    +0.145 A 
ATOM     13  C   UNL     1       0.278  -0.473   0.555  0.00  0.00    +0.043 A 
ATOM     14  F   UNL     1      -0.101  -2.441   1.818  0.00  0.00    -0.204 F 
ENDBRANCH   1  11
BRANCH   4  15
ATOM     15  C   UNL     1      -0.244  -6.924  -2.458  0.00  0.00    +0.157 C 
ATOM     16  C   UNL     1      -1.768  -6.955  -2.593  0.00  0.00    +0.038 C 
BRANCH  15  17
ATOM     17  C   UNL     1       0.273  -8.328  -2.277  0.00  0.00    +0.236 C 
ATOM     18  O   UNL     1       0.749  -8.666  -1.214  0.00  0.00    -0.274 OA
ATOM     19  N   UNL     1       0.207  -9.207  -3.296  0.00  0.00    -0.297 N 
ATOM     20  C   UNL     1      -0.296  -8.790  -4.613  0.00  0.00    +0.108 C 
ATOM     21  C   UNL     1       0.745  -9.156  -5.676  0.00  0.00    +0.019 C 
ATOM     22  C   UNL     1       1.073 -10.647  -5.572  0.00  0.00    +0.003 C 
ATOM     23  C   UNL     1       1.666 -10.945  -4.193  0.00  0.00    +0.022 C 
ATOM     24  C   UNL     1       0.642 -10.598  -3.114  0.00  0.00    +0.073 C 
ATOM     25  C   UNL     1       1.280 -10.760  -1.733  0.00  0.00    +0.028 C 
ENDBRANCH  15  17
ENDBRANCH   4  15
TORSDOF 3
