REMARK  Name = ZINC12041168
REMARK  12 active torsions:
REMARK  status: ('A' for Active; 'I' for Inactive)
REMARK    1  A    between atoms: C_1  and  O_2
REMARK    2  A    between atoms: O_2  and  C_3
REMARK    3  A    between atoms: C_6  and  C_9
REMARK    4  A    between atoms: C_10  and  C_11
REMARK    5  A    between atoms: C_11  and  N_71
REMARK    6  A    between atoms: C_23  and  N_31
REMARK    7  A    between atoms: C_25  and  O_27
REMARK    8  A    between atoms: O_27  and  C_28
REMARK    9  A    between atoms: C_28  and  C_29
REMARK   10  A    between atoms: C_32  and  C_34
REMARK   11  A    between atoms: C_34  and  S_35
REMARK   12  A    between atoms: S_35  and  C_36
REMARK                            x       y       z     vdW  Elec       q    Type
REMARK                         _______ _______ _______ _____ _____    ______ ____
ROOT
ATOM      1  C   UNL     1       0.113  -2.433   1.228  0.00  0.00    -0.077 C 
ATOM      2  C   UNL     1       0.142  -3.283   2.501  0.00  0.00    -0.005 C 
ATOM      3  C   UNL     1       1.341  -4.226   2.452  0.00  0.00    +0.021 C 
ATOM      4  C   UNL     1       2.631  -3.433   2.266  0.00  0.00    -0.005 C 
ATOM      5  C   UNL     1       2.522  -2.578   1.000  0.00  0.00    -0.077 C 
ATOM      6  C   UNL     1       1.411  -5.055   3.712  0.00  0.00    -0.034 A 
ATOM      7  C   UNL     1       1.859  -4.731   4.982  0.00  0.00    +0.004 A 
ATOM      8  C   UNL     1       1.826  -5.671   5.992  0.00  0.00    +0.000 A 
ATOM      9  C   UNL     1       1.344  -6.941   5.738  0.00  0.00    +0.000 A 
ATOM     10  C   UNL     1       0.896  -7.267   4.473  0.00  0.00    +0.006 A 
ATOM     11  C   UNL     1       0.927  -6.326   3.458  0.00  0.00    -0.021 A 
ATOM     12  C   UNL     1       0.500  -6.431   2.009  0.00  0.00    +0.133 C 
ATOM     13  C   UNL     1       1.171  -5.234   1.301  0.00  0.00    +0.154 C 
ATOM     14  N   UNL     1       1.371  -1.661   1.139  0.00  0.00    +0.382 N 
ATOM     15  H   UNL     1       1.485  -1.112   1.999  0.00  0.00    -0.081 HD
ENDROOT
BRANCH  12  16
ATOM     16  N   UNL     1      -0.957  -6.334   1.901  0.00  0.00    -0.305 N 
ATOM     17  C   UNL     1      -1.715  -7.446   1.976  0.00  0.00    +0.223 C 
ATOM     18  O   UNL     1      -1.189  -8.528   2.133  0.00  0.00    -0.275 OA
ATOM     19  H   UNL     1      -1.378  -5.469   1.775  0.00  0.00    +0.149 HD
BRANCH  17  20
ATOM     20  C   UNL     1      -3.214  -7.346   1.864  0.00  0.00    +0.164 C 
BRANCH  20  21
ATOM     21  S   UNL     1      -3.943  -9.001   2.003  0.00  0.00    -0.155 S 
ATOM     22  C   UNL     1      -5.727  -8.710   1.851  0.00  0.00    +0.085 C 
ENDBRANCH  20  21
ENDBRANCH  17  20
ENDBRANCH  12  16
BRANCH  14  23
ATOM     23  C   UNL     1       1.317  -0.740  -0.015  0.00  0.00    -0.051 C 
BRANCH  23  25
ATOM     24  C   UNL     1      -0.016   1.322   0.009  0.00  0.00    +0.002 C 
ATOM     25  C   UNL     1       0.002  -0.004   0.002  0.00  0.00    -0.045 C 
BRANCH  24  29
ATOM     26  C   UNL     1      -3.724   3.396   0.038  0.00  0.00    +0.120 A 
ATOM     27  C   UNL     1      -2.532   4.108   0.036  0.00  0.00    +0.046 A 
ATOM     28  C   UNL     1      -1.327   3.439   0.027  0.00  0.00    +0.011 A 
ATOM     29  C   UNL     1      -1.306   2.043   0.019  0.00  0.00    -0.025 A 
ATOM     30  C   UNL     1      -2.506   1.331   0.015  0.00  0.00    +0.011 A 
ATOM     31  C   UNL     1      -3.707   2.007   0.030  0.00  0.00    +0.046 A 
BRANCH  26  33
ATOM     32  C   UNL     1      -6.097   3.264   0.048  0.00  0.00    +0.277 C 
ATOM     33  O   UNL     1      -4.909   4.059   0.047  0.00  0.00    -0.495 OA
ENDBRANCH  26  33
ENDBRANCH  24  29
ENDBRANCH  23  25
ENDBRANCH  14  23
BRANCH  13  34
ATOM     34  O   UNL     1       2.441  -5.605   0.759  0.00  0.00    -0.370 OA
BRANCH  34  35
ATOM     35  C   UNL     1       2.404  -5.943  -0.629  0.00  0.00    +0.187 C 
BRANCH  35  36
ATOM     36  C   UNL     1       3.788  -6.316  -1.092  0.00  0.00    -0.007 C 
ATOM     37  C   UNL     1       3.965  -7.375  -1.842  0.00  0.00    +0.006 C 
ENDBRANCH  35  36
ENDBRANCH  34  35
ENDBRANCH  13  34
TORSDOF 10
