REMARK  Name = ZINC39659778
REMARK  5 active torsions:
REMARK  status: ('A' for Active; 'I' for Inactive)
REMARK    1  A    between atoms: C_3  and  O_31
REMARK    2  A    between atoms: C_6  and  C_7
REMARK    3  A    between atoms: C_11  and  C_20
REMARK    4  A    between atoms: N_22  and  C_23
REMARK    5  A    between atoms: O_31  and  C_32
REMARK                            x       y       z     vdW  Elec       q    Type
REMARK                         _______ _______ _______ _____ _____    ______ ____
ROOT
ATOM      1  C   UNL     1      -1.272  -0.762   0.013  0.00  0.00    +0.247 C 
ATOM      2  O   UNL     1      -2.330  -0.178   0.136  0.00  0.00    -0.270 OA
ATOM      3  N   UNL     1      -1.252  -2.106  -0.097  0.00  0.00    -0.296 N 
ATOM      4  C   UNL     1      -0.069  -2.997  -0.126  0.00  0.00    +0.121 C 
ATOM      5  C   UNL     1      -0.488  -4.229   0.708  0.00  0.00    +0.100 C 
ATOM      6  C   UNL     1      -2.025  -4.242   0.643  0.00  0.00    -0.004 C 
ATOM      7  C   UNL     1      -2.409  -3.025  -0.210  0.00  0.00    +0.115 C 
ATOM      8  C   UNL     1      -2.614  -4.105   2.043  0.00  0.00    -0.010 C 
ATOM      9  C   UNL     1      -4.141  -4.178   1.958  0.00  0.00    -0.082 C 
ATOM     10  N   UNL     1      -4.539  -5.459   1.362  0.00  0.00    +0.379 N 
ATOM     11  C   UNL     1      -4.046  -5.543  -0.018  0.00  0.00    -0.082 C 
ATOM     12  C   UNL     1      -2.515  -5.527  -0.017  0.00  0.00    -0.010 C 
ATOM     13  H   UNL     1      -4.150  -6.216   1.903  0.00  0.00    -0.086 HD
ATOM     14  H   UNL     1      -5.546  -5.531   1.363  0.00  0.00    -0.086 HD
ENDROOT
BRANCH   1  20
ATOM     15  C   UNL     1       0.067   1.258   0.586  0.00  0.00    +0.016 A 
ATOM     16  C   UNL     1       1.248   1.964   0.557  0.00  0.00    +0.047 A 
ATOM     17  C   UNL     1       2.366   1.428  -0.070  0.00  0.00    +0.130 A 
ATOM     18  C   UNL     1       2.296   0.176  -0.671  0.00  0.00    +0.047 A 
ATOM     19  C   UNL     1       1.119  -0.537  -0.646  0.00  0.00    +0.016 A 
ATOM     20  C   UNL     1      -0.007  -0.001  -0.016  0.00  0.00    +0.037 A 
BRANCH  17  21
ATOM     21  O   UNL     1       3.528   2.128  -0.097  0.00  0.00    -0.406 OA
BRANCH  21  22
ATOM     22  C   UNL     1       4.638   1.517  -0.759  0.00  0.00    +0.575 C 
ATOM     23  F   UNL     1       4.310   1.281  -2.098  0.00  0.00    -0.133 F 
ATOM     24  F   UNL     1       5.746   2.369  -0.693  0.00  0.00    -0.133 F 
ATOM     25  F   UNL     1       4.944   0.304  -0.133  0.00  0.00    -0.133 F 
ENDBRANCH  21  22
ENDBRANCH  17  21
ENDBRANCH   1  20
BRANCH   5  26
ATOM     26  C   UNL     1      -0.022  -4.081   2.134  0.00  0.00    +0.218 C 
ATOM     27  O   UNL     1      -0.004  -2.986   2.655  0.00  0.00    -0.275 OA
ATOM     28  N   UNL     1       0.373  -5.165   2.829  0.00  0.00    -0.312 N 
ATOM     29  H   UNL     1       0.358  -6.041   2.412  0.00  0.00    +0.149 HD
BRANCH  28  30
ATOM     30  C   UNL     1       0.826  -5.022   4.215  0.00  0.00    +0.073 C 
ATOM     31  C   UNL     1      -0.383  -5.043   5.151  0.00  0.00    +0.022 C 
ATOM     32  C   UNL     1       0.087  -5.293   6.586  0.00  0.00    +0.002 C 
ATOM     33  C   UNL     1       0.704  -4.013   7.151  0.00  0.00    +0.000 C 
ATOM     34  C   UNL     1       2.100  -3.815   6.557  0.00  0.00    +0.000 C 
ATOM     35  C   UNL     1       2.853  -5.147   6.566  0.00  0.00    +0.000 C 
ATOM     36  C   UNL     1       3.075  -5.617   5.127  0.00  0.00    +0.002 C 
ATOM     37  C   UNL     1       1.765  -6.177   4.567  0.00  0.00    +0.022 C 
ENDBRANCH  28  30
ENDBRANCH   5  26
TORSDOF 5
