REMARK  Name = ZINC38638361
REMARK  2 active torsions:
REMARK  status: ('A' for Active; 'I' for Inactive)
REMARK    1  A    between atoms: C_1  and  C_2
REMARK    2  A    between atoms: C_3  and  C_11
REMARK                            x       y       z     vdW  Elec       q    Type
REMARK                         _______ _______ _______ _____ _____    ______ ____
ROOT
ATOM      1  C   UNL     1      -0.018   1.503   0.010  0.00  0.00    +0.068 C 
ATOM      2  C   UNL     1       0.002  -0.004   0.002  0.00  0.00    +0.071 A 
ATOM      3  C   UNL     1       0.008  -0.863  -1.184  0.00  0.00    +0.065 A 
ATOM      4  C   UNL     1       0.028  -2.179  -0.711  0.00  0.00    +0.283 A 
ATOM      5  N   UNL     1       0.034  -2.116   0.644  0.00  0.00    -0.167 N 
ATOM      6  N   UNL     1       0.023  -0.779   1.048  0.00  0.00    -0.165 NA
ATOM      7  C   UNL     1       0.052  -3.207   1.495  0.00  0.00    +0.188 C 
ATOM      8  N   UNL     1       0.067  -4.439   0.995  0.00  0.00    -0.372 N 
ATOM      9  N   UNL     1       0.056  -3.023   2.811  0.00  0.00    -0.329 N 
ATOM     10  O   UNL     1       0.040  -3.302  -1.463  0.00  0.00    -0.265 OA
ATOM     11  H   UNL     1       0.064  -4.573   0.035  0.00  0.00    +0.159 HD
ATOM     12  H   UNL     1       0.045  -2.124   3.175  0.00  0.00    +0.145 HD
ATOM     13  H   UNL     1       0.069  -3.788   3.408  0.00  0.00    +0.145 HD
ATOM     14  H   UNL     1       0.080  -5.204   1.592  0.00  0.00    +0.159 HD
ENDROOT
BRANCH   3  15
ATOM     15  C   UNL     1      -0.004  -0.447  -2.533  0.00  0.00    +0.025 C 
ATOM     16  C   UNL     1       0.920  -0.968  -3.428  0.00  0.00    +0.003 C 
ATOM     17  C   UNL     1       1.934  -1.923  -3.166  0.00  0.00    +0.120 C 
ATOM     18  N   UNL     1       2.602  -2.161  -4.263  0.00  0.00    -0.254 NA
ATOM     19  C   UNL     1       2.140  -1.441  -5.312  0.00  0.00    +0.072 A 
ATOM     20  C   UNL     1       1.058  -0.653  -4.864  0.00  0.00    +0.009 A 
ATOM     21  C   UNL     1       0.388   0.186  -5.745  0.00  0.00    +0.010 A 
ATOM     22  C   UNL     1       0.783   0.245  -7.065  0.00  0.00    +0.001 A 
ATOM     23  C   UNL     1       1.845  -0.528  -7.515  0.00  0.00    +0.002 A 
ATOM     24  C   UNL     1       2.525  -1.360  -6.655  0.00  0.00    +0.028 A 
ENDBRANCH   3  15
TORSDOF 1
