REMARK  Name = ZINC37792743
REMARK  4 active torsions:
REMARK  status: ('A' for Active; 'I' for Inactive)
REMARK    1  A    between atoms: C_2  and  C_9
REMARK    2  A    between atoms: C_4  and  C_6
REMARK    3  A    between atoms: N_11  and  C_12
REMARK    4  A    between atoms: C_12  and  C_13
REMARK                            x       y       z     vdW  Elec       q    Type
REMARK                         _______ _______ _______ _____ _____    ______ ____
ROOT
ATOM      1  C   UNL     1       2.108   0.797  -1.289  0.00  0.00    +0.217 C 
ATOM      2  O   UNL     1       1.696   0.205  -2.264  0.00  0.00    -0.275 OA
ATOM      3  N   UNL     1       3.273   1.471  -1.352  0.00  0.00    -0.304 N 
ATOM      4  H   UNL     1       3.603   1.944  -0.572  0.00  0.00    +0.149 HD
ENDROOT
BRANCH   1   6
ATOM      5  C   UNL     1      -0.019   1.526   0.010  0.00  0.00    +0.029 C 
ATOM      6  C   UNL     1       1.317   0.779  -0.006  0.00  0.00    +0.090 C 
ATOM      7  C   UNL     1       0.002  -0.004   0.002  0.00  0.00    +0.115 C 
BRANCH   7   8
ATOM      8  C   UNL     1      -0.402  -0.698  -1.273  0.00  0.00    +0.360 C 
ATOM      9  O   UNL     1      -1.452  -0.407  -1.819  0.00  0.00    -0.246 OA
ATOM     10  O   UNL     1       0.321  -1.552  -1.758  0.00  0.00    -0.246 OA
ENDBRANCH   7   8
ENDBRANCH   1   6
BRANCH   3  11
ATOM     11  C   UNL     1       4.043   1.489  -2.598  0.00  0.00    +0.229 C 
BRANCH  11  12
ATOM     12  C   UNL     1       5.295   2.305  -2.405  0.00  0.00    +0.373 C 
ATOM     13  O   UNL     1       5.523   2.824  -1.325  0.00  0.00    -0.245 OA
ATOM     14  O   UNL     1       6.079   2.447  -3.327  0.00  0.00    -0.245 OA
ENDBRANCH  11  12
ENDBRANCH   3  11
TORSDOF 4
