REMARK  Name = ZINC01427387
REMARK  5 active torsions:
REMARK  status: ('A' for Active; 'I' for Inactive)
REMARK    1  A    between atoms: C_1  and  C_2
REMARK    2  A    between atoms: C_5  and  C_7
REMARK    3  A    between atoms: C_10  and  N_13
REMARK    4  A    between atoms: N_13  and  S_14
REMARK    5  A    between atoms: S_14  and  C_17
REMARK                            x       y       z     vdW  Elec       q    Type
REMARK                         _______ _______ _______ _____ _____    ______ ____
ROOT
ATOM      1  S   UNL     1       2.563  -0.417  -0.012  0.00  0.00    +0.073 S 
ATOM      2  O   UNL     1       1.658  -0.983  -0.951  0.00  0.00    -0.150 OA
ATOM      3  O   UNL     1       3.973  -0.517  -0.157  0.00  0.00    -0.150 OA
ENDROOT
BRANCH   1   4
ATOM      4  C   UNL     1       2.186   1.302   0.077  0.00  0.00    +0.116 A 
ATOM      5  C   UNL     1       3.176   2.236  -0.025  0.00  0.00    +0.030 A 
ATOM      6  C   UNL     1       2.919   3.607   0.041  0.00  0.00    +0.006 A 
ATOM      7  C   UNL     1       1.647   4.061   0.212  0.00  0.00    -0.039 A 
ATOM      8  C   UNL     1       0.627   3.121   0.317  0.00  0.00    -0.010 A 
ATOM      9  C   UNL     1       0.862   1.736   0.254  0.00  0.00    +0.009 A 
ATOM     10  C   UNL     1      -0.243   0.877   0.371  0.00  0.00    +0.010 A 
ATOM     11  C   UNL     1      -1.484   1.421   0.534  0.00  0.00    +0.001 A 
ATOM     12  C   UNL     1      -1.693   2.801   0.599  0.00  0.00    +0.004 A 
ATOM     13  C   UNL     1      -0.643   3.661   0.489  0.00  0.00    -0.039 A 
ATOM     14  C   UNL     1      -0.497   5.163   0.507  0.00  0.00    +0.040 C 
ATOM     15  C   UNL     1       1.014   5.427   0.325  0.00  0.00    +0.040 C 
ENDBRANCH   1   4
BRANCH   1  16
ATOM     16  N   UNL     1       2.191  -1.076   1.461  0.00  0.00    -0.216 N 
ATOM     17  H   UNL     1       1.513  -1.767   1.526  0.00  0.00    +0.174 HD
BRANCH  16  21
ATOM     18  C   UNL     1       4.166   0.233   4.889  0.00  0.00    +0.019 A 
ATOM     19  C   UNL     1       2.779   0.079   4.897  0.00  0.00    +0.013 A 
ATOM     20  C   UNL     1       2.128  -0.355   3.762  0.00  0.00    +0.025 A 
ATOM     21  C   UNL     1       2.853  -0.638   2.609  0.00  0.00    +0.048 A 
ATOM     22  C   UNL     1       4.235  -0.490   2.599  0.00  0.00    +0.025 A 
ATOM     23  C   UNL     1       4.891  -0.052   3.730  0.00  0.00    +0.013 A 
BRANCH  18  28
ATOM     24  C   UNL     1       5.094   1.813   9.557  0.00  0.00    +0.109 C 
ATOM     25  C   UNL     1       5.281   1.382   8.126  0.00  0.00    +0.193 A 
ATOM     26  N   UNL     1       6.422   1.313   7.499  0.00  0.00    -0.221 NA
ATOM     27  C   UNL     1       6.204   0.887   6.245  0.00  0.00    +0.161 A 
ATOM     28  C   UNL     1       4.867   0.697   6.105  0.00  0.00    +0.155 A 
ATOM     29  O   UNL     1       4.301   1.008   7.291  0.00  0.00    -0.440 OA
ENDBRANCH  18  28
ENDBRANCH  16  21
ENDBRANCH   1  16
TORSDOF 4
