REMARK  Name = ZINC08584081
REMARK  7 active torsions:
REMARK  status: ('A' for Active; 'I' for Inactive)
REMARK    1  A    between atoms: C_1  and  C_2
REMARK    2  A    between atoms: C_7  and  C_13
REMARK    3  A    between atoms: C_8  and  O_12
REMARK    4  A    between atoms: C_13  and  C_15
REMARK    5  A    between atoms: C_13  and  N_71
REMARK    6  A    between atoms: N_19  and  C_20
REMARK    7  A    between atoms: C_20  and  C_21
REMARK                            x       y       z     vdW  Elec       q    Type
REMARK                         _______ _______ _______ _____ _____    ______ ____
ROOT
ATOM      1  C   UNL     1      -0.018   1.503   0.010  0.00  0.00    +0.039 C 
ENDROOT
BRANCH   1  12
ATOM      2  C   UNL     1       2.103   1.522  -1.156  0.00  0.00    -0.077 C 
ATOM      3  C   UNL     1       3.465   2.216  -1.230  0.00  0.00    -0.018 C 
ATOM      4  C   UNL     1       3.267   3.673  -1.657  0.00  0.00    +0.003 C 
ATOM      5  C   UNL     1       2.333   4.366  -0.660  0.00  0.00    -0.044 C 
ATOM      6  C   UNL     1       1.004   3.610  -0.602  0.00  0.00    -0.071 C 
ATOM      7  C   UNL     1       2.981   4.368   0.726  0.00  0.00    +0.005 C 
ATOM      8  C   UNL     1       2.050   5.062   1.723  0.00  0.00    +0.000 C 
ATOM      9  C   UNL     1       1.803   6.503   1.272  0.00  0.00    +0.000 C 
ATOM     10  C   UNL     1       1.154   6.500  -0.113  0.00  0.00    +0.000 C 
ATOM     11  C   UNL     1       2.084   5.806  -1.111  0.00  0.00    +0.005 C 
ATOM     12  N   UNL     1       1.261   2.222  -0.163  0.00  0.00    +0.390 N 
ATOM     13  H   UNL     1       1.756   2.243   0.737  0.00  0.00    -0.080 HD
ENDBRANCH   1  12
BRANCH   1  20
ATOM     14  C   UNL     1      -2.832   4.545   6.768  0.00  0.00    +0.044 C 
ATOM     15  C   UNL     1      -2.086   4.017   5.569  0.00  0.00    -0.048 A 
ATOM     16  C   UNL     1      -0.694   4.071   5.550  0.00  0.00    +0.004 A 
ATOM     17  C   UNL     1       0.008   3.601   4.481  0.00  0.00    +0.010 A 
ATOM     18  C   UNL     1      -0.679   3.056   3.385  0.00  0.00    +0.001 A 
ATOM     19  C   UNL     1       0.012   2.560   2.261  0.00  0.00    +0.017 A 
ATOM     20  C   UNL     1      -0.716   2.044   1.232  0.00  0.00    +0.008 A 
ATOM     21  C   UNL     1      -2.114   2.022   1.308  0.00  0.00    +0.215 A 
ATOM     22  N   UNL     1      -2.754   2.481   2.361  0.00  0.00    -0.213 NA
ATOM     23  C   UNL     1      -2.094   3.000   3.403  0.00  0.00    +0.075 A 
ATOM     24  C   UNL     1      -2.783   3.495   4.524  0.00  0.00    +0.031 A 
BRANCH  21  25
ATOM     25  O   UNL     1      -2.825   1.510   0.273  0.00  0.00    -0.492 OA
ATOM     26  H   UNL     1      -2.999   0.562   0.347  0.00  0.00    +0.294 HD
ENDBRANCH  21  25
ENDBRANCH   1  20
BRANCH   1  27
ATOM     27  C   UNL     1       0.263   0.035   0.201  0.00  0.00    +0.143 A 
ATOM     28  N   UNL     1       1.192  -0.492   0.961  0.00  0.00    -0.115 NA
ATOM     29  N   UNL     1       1.112  -1.774   0.857  0.00  0.00    -0.023 NA
ATOM     30  N   UNL     1       0.155  -2.078   0.051  0.00  0.00    -0.044 NA
ATOM     31  N   UNL     1      -0.396  -0.991  -0.370  0.00  0.00    -0.228 N 
BRANCH  31  32
ATOM     32  C   UNL     1      -1.525  -0.890  -1.299  0.00  0.00    +0.178 C 
BRANCH  32  33
ATOM     33  C   UNL     1      -1.000  -0.825  -2.735  0.00  0.00    +0.140 C 
ATOM     34  C   UNL     1      -2.174  -0.603  -3.712  0.00  0.00    +0.035 C 
ATOM     35  C   UNL     1      -1.782  -1.511  -4.910  0.00  0.00    +0.031 C 
ATOM     36  C   UNL     1      -1.078  -2.680  -4.175  0.00  0.00    +0.160 C 
ATOM     37  O   UNL     1      -0.376  -2.067  -3.081  0.00  0.00    -0.375 OA
ENDBRANCH  32  33
ENDBRANCH  31  32
ENDBRANCH   1  27
TORSDOF 6
