REMARK  Name = ZINC03104258
REMARK  8 active torsions:
REMARK  status: ('A' for Active; 'I' for Inactive)
REMARK    1  A    between atoms: C_4  and  C_7
REMARK    2  A    between atoms: C_7  and  N_8
REMARK    3  A    between atoms: N_8  and  C_9
REMARK    4  A    between atoms: N_13  and  C_18
REMARK    5  A    between atoms: C_18  and  C_19
REMARK    6  A    between atoms: C_19  and  N_20
REMARK    7  A    between atoms: N_20  and  C_21
REMARK    8  A    between atoms: C_24  and  C_26
REMARK                            x       y       z     vdW  Elec       q    Type
REMARK                         _______ _______ _______ _____ _____    ______ ____
ROOT
ATOM      1  C   UNL     1       0.002  -0.004   0.002  0.00  0.00    +0.105 A 
ATOM      2  C   UNL     1      -0.017   1.363   0.009  0.00  0.00    +0.112 A 
ATOM      3  C   UNL     1       1.201   2.061   0.002  0.00  0.00    +0.258 A 
ATOM      4  O   UNL     1       1.209   3.280   0.008  0.00  0.00    -0.267 OA
ATOM      5  N   UNL     1       2.361   1.376  -0.013  0.00  0.00    -0.259 N 
ATOM      6  C   UNL     1       2.361   0.031  -0.020  0.00  0.00    +0.331 A 
ATOM      7  O   UNL     1       3.420  -0.568  -0.033  0.00  0.00    -0.246 OA
ATOM      8  N   UNL     1       1.208  -0.662  -0.013  0.00  0.00    -0.296 N 
ATOM      9  H   UNL     1       1.228  -1.632  -0.018  0.00  0.00    +0.172 HD
ENDROOT
BRANCH   1  10
ATOM     10  N   UNL     1      -1.173  -0.712   0.009  0.00  0.00    -0.326 N 
ATOM     11  H   UNL     1      -2.021  -0.243   0.019  0.00  0.00    +0.148 HD
BRANCH  10  12
ATOM     12  C   UNL     1      -1.145  -2.177   0.001  0.00  0.00    +0.138 C 
BRANCH  12  16
ATOM     13  C   UNL     1      -5.145  -3.676   0.029  0.00  0.00    +0.000 A 
ATOM     14  C   UNL     1      -4.508  -3.427  -1.172  0.00  0.00    +0.000 A 
ATOM     15  C   UNL     1      -3.214  -2.942  -1.181  0.00  0.00    +0.005 A 
ATOM     16  C   UNL     1      -2.556  -2.706   0.011  0.00  0.00    -0.030 A 
ATOM     17  C   UNL     1      -3.190  -2.960   1.213  0.00  0.00    +0.005 A 
ATOM     18  C   UNL     1      -4.487  -3.440   1.222  0.00  0.00    +0.000 A 
ENDBRANCH  12  16
ENDBRANCH  10  12
ENDBRANCH   1  10
BRANCH   5  19
ATOM     19  C   UNL     1       3.634   2.102  -0.021  0.00  0.00    +0.148 C 
BRANCH  19  20
ATOM     20  C   UNL     1       4.063   2.363  -1.466  0.00  0.00    +0.124 C 
BRANCH  20  21
ATOM     21  N   UNL     1       5.335   3.089  -1.474  0.00  0.00    -0.328 N 
ATOM     22  H   UNL     1       5.764   3.325  -0.637  0.00  0.00    +0.148 HD
BRANCH  21  23
ATOM     23  C   UNL     1       5.927   3.440  -2.683  0.00  0.00    +0.115 A 
ATOM     24  C   UNL     1       7.134   4.136  -2.683  0.00  0.00    +0.079 A 
ATOM     25  C   UNL     1       7.715   4.473  -3.893  0.00  0.00    +0.037 A 
ATOM     26  C   UNL     1       7.062   4.114  -5.065  0.00  0.00    +0.072 A 
ATOM     27  C   UNL     1       5.865   3.430  -4.990  0.00  0.00    +0.096 A 
ATOM     28 CL   UNL     1       7.902   4.567  -1.188  0.00  0.00    -0.080 Cl
ATOM     29  N   UNL     1       5.268   3.076  -3.820  0.00  0.00    -0.348 N 
ATOM     30  H   UNL     1       4.377   2.567  -3.794  0.00  0.00    +0.167 HD
BRANCH  26  31
ATOM     31  C   UNL     1       7.654   4.465  -6.405  0.00  0.00    +0.419 C 
ATOM     32  F   UNL     1       6.816   3.998  -7.423  0.00  0.00    -0.166 F 
ATOM     33  F   UNL     1       7.782   5.855  -6.508  0.00  0.00    -0.166 F 
ATOM     34  F   UNL     1       8.914   3.871  -6.529  0.00  0.00    -0.166 F 
ENDBRANCH  26  31
ENDBRANCH  21  23
ENDBRANCH  20  21
ENDBRANCH  19  20
ENDBRANCH   5  19
TORSDOF 8
