REMARK  Name = ZINC65265928
REMARK  5 active torsions:
REMARK  status: ('A' for Active; 'I' for Inactive)
REMARK    1  A    between atoms: C_1  and  C_2
REMARK    2  A    between atoms: C_7  and  O_8
REMARK    3  A    between atoms: O_8  and  C_9
REMARK    4  A    between atoms: C_9  and  C_10
REMARK    5  A    between atoms: N_27  and  C_28
REMARK                            x       y       z     vdW  Elec       q    Type
REMARK                         _______ _______ _______ _____ _____    ______ ____
ROOT
ATOM      1  C   UNL     1       0.001   0.147   4.788  0.00  0.00    +0.253 C 
ATOM      2  O   UNL     1      -0.015   1.352   4.652  0.00  0.00    -0.272 OA
ATOM      3  N   UNL     1       0.031  -0.391   6.024  0.00  0.00    -0.296 N 
ATOM      4  C   UNL     1       0.059  -1.833   6.334  0.00  0.00    +0.110 C 
ATOM      5  C   UNL     1       0.692  -1.927   7.747  0.00  0.00    +0.050 C 
ATOM      6  C   UNL     1       0.122  -0.665   8.421  0.00  0.00    +0.091 C 
ATOM      7  C   UNL     1       0.047   0.363   7.289  0.00  0.00    +0.137 C 
ATOM      8  C   UNL     1       0.985  -0.198   9.543  0.00  0.00    +0.095 C 
ATOM      9  N   UNL     1       0.701  -0.699  10.790  0.00  0.00    -0.303 N 
ATOM     10  C   UNL     1      -0.213  -0.024  11.594  0.00  0.00    +0.037 A 
ATOM     11  C   UNL     1       0.071   0.197  12.934  0.00  0.00    +0.023 A 
ATOM     12  C   UNL     1      -0.841   0.853  13.737  0.00  0.00    +0.002 A 
ATOM     13  C   UNL     1      -2.037   1.286  13.195  0.00  0.00    +0.000 A 
ATOM     14  C   UNL     1      -2.317   1.070  11.863  0.00  0.00    +0.007 A 
ATOM     15  C   UNL     1      -1.407   0.418  11.037  0.00  0.00    -0.012 A 
ATOM     16  C   UNL     1      -1.791   0.266   9.587  0.00  0.00    +0.119 C 
ATOM     17  N   UNL     1      -1.224  -0.941   8.972  0.00  0.00    -0.299 NA
ATOM     18  N   UNL     1       1.954   0.638   9.353  0.00  0.00    -0.372 N 
ATOM     19  H   UNL     1      -1.838  -1.307   8.260  0.00  0.00    +0.123 HD
ATOM     20  H   UNL     1       2.189   0.911   8.452  0.00  0.00    +0.161 HD
ATOM     21  H   UNL     1       1.129  -1.510  11.105  0.00  0.00    +0.153 HD
ENDROOT
BRANCH  18  22
ATOM     22  C   UNL     1       2.697   1.172  10.497  0.00  0.00    +0.080 C 
ATOM     23  C   UNL     1       2.000   2.439  11.035  0.00  0.00    +0.024 C 
ATOM     24  C   UNL     1       3.167   3.368  11.450  0.00  0.00    +0.002 C 
ATOM     25  C   UNL     1       4.218   3.112  10.342  0.00  0.00    +0.002 C 
ATOM     26  C   UNL     1       4.107   1.600  10.056  0.00  0.00    +0.024 C 
ENDBRANCH  18  22
BRANCH   1  27
ATOM     27  C   UNL     1      -0.013  -0.749   3.576  0.00  0.00    +0.324 C 
BRANCH  27  28
ATOM     28  O   UNL     1      -0.044   0.051   2.393  0.00  0.00    -0.483 OA
BRANCH  28  35
ATOM     29  C   UNL     1      -0.108   1.614   0.041  0.00  0.00    +0.047 C 
ATOM     30  C   UNL     1      -0.091   0.107   0.015  0.00  0.00    -0.009 A 
ATOM     31  C   UNL     1      -0.101  -0.564  -1.193  0.00  0.00    +0.007 A 
ATOM     32  C   UNL     1      -0.086  -1.946  -1.217  0.00  0.00    +0.000 A 
ATOM     33  C   UNL     1      -0.061  -2.661  -0.033  0.00  0.00    +0.004 A 
ATOM     34  C   UNL     1      -0.051  -1.994   1.177  0.00  0.00    +0.046 A 
ATOM     35  C   UNL     1      -0.060  -0.607   1.204  0.00  0.00    +0.124 A 
ENDBRANCH  28  35
ENDBRANCH  27  28
ENDBRANCH   1  27
TORSDOF 4
