REMARK  Name = ZINC43218315
REMARK  9 active torsions:
REMARK  status: ('A' for Active; 'I' for Inactive)
REMARK    1  A    between atoms: C_1  and  O_2
REMARK    2  A    between atoms: O_2  and  C_3
REMARK    3  A    between atoms: C_8  and  C_9
REMARK    4  A    between atoms: N_17  and  C_20
REMARK    5  A    between atoms: C_20  and  C_21
REMARK    6  A    between atoms: C_27  and  C_29
REMARK    7  A    between atoms: C_27  and  C_39
REMARK    8  A    between atoms: C_29  and  C_30
REMARK    9  A    between atoms: C_33  and  N_36
REMARK                            x       y       z     vdW  Elec       q    Type
REMARK                         _______ _______ _______ _____ _____    ______ ____
ROOT
ATOM      1  C   UNL     1       0.051  -2.828  -0.033  0.00  0.00    +0.101 C 
ATOM      2  C   UNL     1      -1.452  -2.983  -0.247  0.00  0.00    +0.111 C 
ATOM      3  C   UNL     1      -1.657  -4.227   0.698  0.00  0.00    +0.121 C 
ATOM      4  C   UNL     1      -3.084  -4.212   0.907  0.00  0.00    +0.228 C 
ATOM      5  O   UNL     1      -3.819  -5.165   1.057  0.00  0.00    -0.275 OA
ATOM      6  N   UNL     1      -3.430  -2.884   0.901  0.00  0.00    -0.236 N 
ATOM      7  C   UNL     1      -2.425  -2.067   0.424  0.00  0.00    +0.228 C 
ATOM      8  O   UNL     1      -2.339  -0.862   0.529  0.00  0.00    -0.275 OA
ATOM      9  C   UNL     1      -0.588  -5.148   0.288  0.00  0.00    +0.138 C 
ATOM     10  N   UNL     1       0.554  -4.239  -0.102  0.00  0.00    -0.293 NA
ATOM     11  H   UNL     1       0.882  -4.461  -1.030  0.00  0.00    +0.124 HD
ENDROOT
BRANCH   1  17
ATOM     12  C   UNL     1       0.829  -0.626  -0.946  0.00  0.00    +0.125 A 
ATOM     13  C   UNL     1       1.395   0.141  -1.954  0.00  0.00    +0.046 A 
ATOM     14  C   UNL     1       1.787  -0.455  -3.137  0.00  0.00    +0.004 A 
ATOM     15  C   UNL     1       1.614  -1.815  -3.317  0.00  0.00    +0.001 A 
ATOM     16  C   UNL     1       1.049  -2.582  -2.315  0.00  0.00    +0.009 A 
ATOM     17  C   UNL     1       0.661  -1.991  -1.128  0.00  0.00    +0.012 A 
BRANCH  12  19
ATOM     18  C   UNL     1       0.646   1.367   0.336  0.00  0.00    +0.277 C 
ATOM     19  O   UNL     1       0.443  -0.042   0.219  0.00  0.00    -0.495 OA
ENDBRANCH  12  19
ENDBRANCH   1  17
BRANCH   9  20
ATOM     20  C   UNL     1      -1.040  -5.994  -0.874  0.00  0.00    +0.377 C 
ATOM     21  O   UNL     1      -0.435  -5.949  -1.932  0.00  0.00    -0.244 OA
ATOM     22  O   UNL     1      -2.011  -6.722  -0.757  0.00  0.00    -0.244 OA
ENDBRANCH   9  20
BRANCH   6  23
ATOM     23  C   UNL     1      -4.734  -2.383   1.341  0.00  0.00    +0.171 C 
BRANCH  23  24
ATOM     24  C   UNL     1      -4.683  -2.075   2.815  0.00  0.00    +0.059 A 
ATOM     25  C   UNL     1      -4.418  -0.785   3.235  0.00  0.00    +0.025 A 
ATOM     26  C   UNL     1      -4.373  -0.512   4.593  0.00  0.00    +0.003 A 
ATOM     27  C   UNL     1      -4.597  -1.552   5.483  0.00  0.00    +0.020 A 
ATOM     28  C   UNL     1      -4.856  -2.817   4.989  0.00  0.00    +0.111 A 
ATOM     29  N   UNL     1      -4.896  -3.038   3.690  0.00  0.00    -0.258 NA
ENDBRANCH  23  24
ENDBRANCH   6  23
BRANCH   9  30
ATOM     30  C   UNL     1      -0.168  -6.034   1.463  0.00  0.00    +0.069 C 
BRANCH  30  31
ATOM     31  C   UNL     1       1.009  -6.882   1.056  0.00  0.00    -0.045 A 
ATOM     32  C   UNL     1       0.802  -8.124   0.486  0.00  0.00    +0.006 A 
ATOM     33  C   UNL     1       1.881  -8.902   0.113  0.00  0.00    +0.033 A 
ATOM     34  C   UNL     1       3.169  -8.438   0.309  0.00  0.00    +0.126 A 
ATOM     35  C   UNL     1       3.376  -7.196   0.877  0.00  0.00    +0.033 A 
ATOM     36  C   UNL     1       2.296  -6.416   1.247  0.00  0.00    +0.006 A 
BRANCH  34  37
ATOM     37  N   UNL     1       4.325  -9.272  -0.090  0.00  0.00    +0.056 N 
ATOM     38  O   UNL     1       4.143 -10.359  -0.587  0.00  0.00    -0.126 OA
ATOM     39  O   UNL     1       5.451  -8.866   0.081  0.00  0.00    -0.126 OA
ENDBRANCH  34  37
ENDBRANCH  30  31
ENDBRANCH   9  30
TORSDOF 8
