REMARK  Name = ZINC22524020
REMARK  12 active torsions:
REMARK  status: ('A' for Active; 'I' for Inactive)
REMARK    1  A    between atoms: C_1  and  C_2
REMARK    2  A    between atoms: C_2  and  C_3
REMARK    3  A    between atoms: C_2  and  C_4
REMARK    4  A    between atoms: C_4  and  C_6
REMARK    5  A    between atoms: C_4  and  N_17
REMARK    6  A    between atoms: C_18  and  C_20
REMARK    7  A    between atoms: C_20  and  S_21
REMARK    8  A    between atoms: S_21  and  C_22
REMARK    9  A    between atoms: C_25  and  C_32
REMARK   10  A    between atoms: N_26  and  C_27
REMARK   11  A    between atoms: C_27  and  C_28
REMARK   12  A    between atoms: C_28  and  C_29
REMARK                            x       y       z     vdW  Elec       q    Type
REMARK                         _______ _______ _______ _____ _____    ______ ____
ROOT
ATOM      1  N   UNL     1       3.240   4.076  -0.007  0.00  0.00    -0.308 N 
ATOM      2  C   UNL     1       1.984   3.586   0.002  0.00  0.00    +0.224 C 
ATOM      3  O   UNL     1       1.037   4.344   0.015  0.00  0.00    -0.275 OA
ATOM      4  H   UNL     1       4.098   3.388  -0.019  0.00  0.00    +0.149 HD
ENDROOT
BRANCH   1   5
ATOM      5  C   UNL     1       3.461   5.524  -0.001  0.00  0.00    +0.106 C 
BRANCH   5   6
ATOM      6  C   UNL     1       4.816   5.823   0.588  0.00  0.00    -0.023 A 
ATOM      7  C   UNL     1       5.895   5.016   0.279  0.00  0.00    +0.009 A 
ATOM      8  C   UNL     1       7.141   5.283   0.816  0.00  0.00    +0.050 A 
ATOM      9  C   UNL     1       7.304   6.364   1.666  0.00  0.00    +0.162 A 
ATOM     10  C   UNL     1       6.221   7.174   1.976  0.00  0.00    +0.162 A 
ATOM     11  C   UNL     1       4.976   6.907   1.432  0.00  0.00    +0.055 A 
ATOM     12  O   UNL     1       6.392   8.237   2.815  0.00  0.00    -0.488 OA
ATOM     13  C   UNL     1       7.186   9.312   2.307  0.00  0.00    +0.232 C 
ATOM     14  C   UNL     1       8.665   9.041   2.529  0.00  0.00    +0.082 C 
ATOM     15  C   UNL     1       9.158   7.836   1.744  0.00  0.00    +0.232 C 
ATOM     16  O   UNL     1       8.528   6.639   2.204  0.00  0.00    -0.488 OA
ENDBRANCH   5   6
BRANCH   5  18
ATOM     17  C   UNL     1       2.025   5.751  -2.033  0.00  0.00    +0.009 C 
ATOM     18  C   UNL     1       3.400   6.055  -1.435  0.00  0.00    +0.008 C 
ATOM     19  C   UNL     1       3.631   7.567  -1.429  0.00  0.00    +0.009 C 
ENDBRANCH   5  18
ENDBRANCH   1   5
BRANCH   2  20
ATOM     20  C   UNL     1       1.756   2.096  -0.004  0.00  0.00    +0.173 C 
BRANCH  20  21
ATOM     21  S   UNL     1      -0.022   1.758   0.012  0.00  0.00    -0.077 S 
BRANCH  21  22
ATOM     22  C   UNL     1       0.002  -0.004   0.002  0.00  0.00    +0.192 A 
ATOM     23  N   UNL     1       1.071  -0.769  -0.018  0.00  0.00    -0.122 NA
ATOM     24  N   UNL     1       0.729  -2.007  -0.016  0.00  0.00    -0.125 NA
ATOM     25  C   UNL     1      -0.582  -2.111  -0.004  0.00  0.00    +0.200 A 
ATOM     26  N   UNL     1      -1.087  -0.829   0.008  0.00  0.00    -0.299 N 
BRANCH  25  27
ATOM     27  C   UNL     1      -1.361  -3.359  -0.003  0.00  0.00    +0.172 A 
ATOM     28  C   UNL     1      -0.886  -4.599  -0.305  0.00  0.00    +0.053 A 
ATOM     29  C   UNL     1      -1.968  -5.491  -0.175  0.00  0.00    +0.042 A 
ATOM     30  C   UNL     1      -3.041  -4.761   0.187  0.00  0.00    +0.196 A 
ATOM     31  O   UNL     1      -2.672  -3.474   0.290  0.00  0.00    -0.460 OA
ENDBRANCH  25  27
BRANCH  26  32
ATOM     32  C   UNL     1      -2.498  -0.434   0.024  0.00  0.00    +0.135 C 
BRANCH  32  33
ATOM     33  C   UNL     1      -3.003  -0.289  -1.413  0.00  0.00    +0.117 C 
BRANCH  33  34
ATOM     34  C   UNL     1      -4.454   0.118  -1.397  0.00  0.00    +0.212 C 
ATOM     35  O   UNL     1      -5.027   0.277  -0.341  0.00  0.00    -0.276 OA
ATOM     36  N   UNL     1      -5.114   0.306  -2.557  0.00  0.00    -0.329 N 
ATOM     37  H   UNL     1      -6.173   0.603  -2.546  0.00  0.00    +0.145 HD
ATOM     38  H   UNL     1      -4.594   0.162  -3.516  0.00  0.00    +0.145 HD
ENDBRANCH  33  34
ENDBRANCH  32  33
ENDBRANCH  26  32
ENDBRANCH  21  22
ENDBRANCH  20  21
ENDBRANCH   2  20
TORSDOF 10
