REMARK  Name = ZINC06301684
REMARK  8 active torsions:
REMARK  status: ('A' for Active; 'I' for Inactive)
REMARK    1  A    between atoms: C_1  and  C_2
REMARK    2  A    between atoms: C_4  and  C_40
REMARK    3  A    between atoms: C_7  and  C_14
REMARK    4  A    between atoms: C_14  and  C_16
REMARK    5  A    between atoms: C_14  and  N_69
REMARK    6  A    between atoms: N_20  and  C_21
REMARK    7  A    between atoms: C_21  and  C_22
REMARK    8  A    between atoms: C_33  and  C_35
REMARK                            x       y       z     vdW  Elec       q    Type
REMARK                         _______ _______ _______ _____ _____    ______ ____
ROOT
ATOM      1  C   UNL     1       3.877   4.764   1.790  0.00  0.00    +0.039 C 
ENDROOT
BRANCH   1   8
ATOM      2  C   UNL     1       3.586  -0.569   7.713  0.00  0.00    +0.044 C 
ATOM      3  C   UNL     1       3.820   0.312   6.513  0.00  0.00    -0.048 A 
ATOM      4  C   UNL     1       4.838   0.002   5.622  0.00  0.00    +0.007 A 
ATOM      5  C   UNL     1       5.067   0.788   4.528  0.00  0.00    -0.041 A 
ATOM      6  C   UNL     1       4.269   1.915   4.304  0.00  0.00    +0.002 A 
ATOM      7  C   UNL     1       4.483   2.775   3.139  0.00  0.00    +0.018 A 
ATOM      8  C   UNL     1       3.680   3.856   2.976  0.00  0.00    +0.011 A 
ATOM      9  C   UNL     1       2.658   4.130   3.910  0.00  0.00    +0.251 A 
ATOM     10  O   UNL     1       1.946   5.104   3.742  0.00  0.00    -0.268 OA
ATOM     11  N   UNL     1       2.451   3.343   4.980  0.00  0.00    -0.322 N 
ATOM     12  H   UNL     1       1.739   3.560   5.602  0.00  0.00    +0.169 HD
ATOM     13  C   UNL     1       3.235   2.232   5.206  0.00  0.00    +0.050 A 
ATOM     14  C   UNL     1       3.021   1.417   6.313  0.00  0.00    +0.029 A 
ATOM     15  C   UNL     1       6.175   0.442   3.567  0.00  0.00    +0.044 C 
ENDBRANCH   1   8
BRANCH   1  23
ATOM     16  C   UNL     1       4.027   7.083   1.109  0.00  0.00    -0.058 C 
ATOM     17  C   UNL     1       3.923   8.525   1.619  0.00  0.00    +0.089 C 
ATOM     18  N   UNL     1       4.948   8.729   2.654  0.00  0.00    -0.299 N 
ATOM     19  C   UNL     1       5.026   7.761   3.758  0.00  0.00    +0.089 C 
ATOM     20  C   UNL     1       5.086   6.349   3.164  0.00  0.00    -0.058 C 
ATOM     21  C   UNL     1       5.794   9.777   2.592  0.00  0.00    +0.282 C 
ATOM     22  O   UNL     1       6.710   9.867   3.388  0.00  0.00    -0.267 OA
ATOM     23  N   UNL     1       3.928   6.163   2.263  0.00  0.00    +0.391 N 
ATOM     24  H   UNL     1       3.066   6.371   2.782  0.00  0.00    -0.080 HD
BRANCH  21  25
ATOM     25  C   UNL     1       5.611  10.807   1.564  0.00  0.00    +0.189 A 
ATOM     26  C   UNL     1       6.464  11.842   1.306  0.00  0.00    +0.054 A 
ATOM     27  C   UNL     1       5.899  12.575   0.250  0.00  0.00    +0.042 A 
ATOM     28  C   UNL     1       4.742  11.963  -0.086  0.00  0.00    +0.196 A 
ATOM     29  O   UNL     1       4.575  10.895   0.706  0.00  0.00    -0.458 OA
ENDBRANCH  21  25
ENDBRANCH   1  23
BRANCH   1  30
ATOM     30  C   UNL     1       2.716   4.611   0.841  0.00  0.00    +0.143 A 
ATOM     31  N   UNL     1       1.506   5.088   1.002  0.00  0.00    -0.115 NA
ATOM     32  N   UNL     1       0.804   4.744  -0.022  0.00  0.00    -0.023 NA
ATOM     33  N   UNL     1       1.536   4.065  -0.835  0.00  0.00    -0.044 NA
ATOM     34  N   UNL     1       2.720   3.956  -0.335  0.00  0.00    -0.228 N 
BRANCH  34  35
ATOM     35  C   UNL     1       3.858   3.257  -0.937  0.00  0.00    +0.178 C 
BRANCH  35  36
ATOM     36  C   UNL     1       3.865   1.799  -0.472  0.00  0.00    +0.140 C 
ATOM     37  C   UNL     1       5.067   1.036  -1.085  0.00  0.00    +0.035 C 
ATOM     38  C   UNL     1       4.571  -0.430  -1.055  0.00  0.00    +0.031 C 
ATOM     39  C   UNL     1       3.037  -0.307  -0.964  0.00  0.00    +0.160 C 
ATOM     40  O   UNL     1       2.718   1.094  -0.994  0.00  0.00    -0.375 OA
ENDBRANCH  35  36
ENDBRANCH  34  35
ENDBRANCH   1  30
TORSDOF 6
