REMARK  Name = ZINC13395577
REMARK  8 active torsions:
REMARK  status: ('A' for Active; 'I' for Inactive)
REMARK    1  A    between atoms: C_1  and  C_2
REMARK    2  A    between atoms: C_3  and  C_34
REMARK    3  A    between atoms: C_9  and  C_13
REMARK    4  A    between atoms: C_13  and  S_14
REMARK    5  A    between atoms: S_14  and  C_15
REMARK    6  A    between atoms: N_25  and  C_26
REMARK    7  A    between atoms: C_26  and  C_27
REMARK    8  A    between atoms: C_27  and  C_28
REMARK                            x       y       z     vdW  Elec       q    Type
REMARK                         _______ _______ _______ _____ _____    ______ ____
ROOT
ATOM      1  C   UNL     1       4.524  -6.577  -0.055  0.00  0.00    +0.173 A 
ATOM      2  N   UNL     1       3.853  -7.703  -0.063  0.00  0.00    -0.223 NA
ATOM      3  C   UNL     1       4.478  -8.898  -0.073  0.00  0.00    +0.079 A 
ATOM      4  C   UNL     1       3.762 -10.098  -0.082  0.00  0.00    +0.028 A 
ATOM      5  C   UNL     1       4.435 -11.287  -0.092  0.00  0.00    +0.002 A 
ATOM      6  C   UNL     1       5.824 -11.322  -0.093  0.00  0.00    +0.001 A 
ATOM      7  C   UNL     1       6.552 -10.164  -0.084  0.00  0.00    +0.015 A 
ATOM      8  C   UNL     1       5.891  -8.937  -0.074  0.00  0.00    +0.065 A 
ATOM      9  C   UNL     1       6.620  -7.662  -0.066  0.00  0.00    +0.262 A 
ATOM     10  O   UNL     1       7.837  -7.631  -0.067  0.00  0.00    -0.267 OA
ATOM     11  N   UNL     1       5.889  -6.523  -0.062  0.00  0.00    -0.287 N 
ENDROOT
BRANCH   1  12
ATOM     12  S   UNL     1       3.624  -5.063  -0.043  0.00  0.00    -0.080 S 
BRANCH  12  13
ATOM     13  C   UNL     1       1.887  -5.585  -0.037  0.00  0.00    +0.151 C 
BRANCH  13  22
ATOM     14  C   UNL     1      -0.018   1.503   0.010  0.00  0.00    +0.087 C 
ATOM     15  C   UNL     1       0.002  -0.004   0.002  0.00  0.00    +0.119 A 
ATOM     16  C   UNL     1      -1.102  -0.806   0.003  0.00  0.00    +0.118 A 
ATOM     17  C   UNL     1      -0.586  -2.186  -0.007  0.00  0.00    +0.118 A 
ATOM     18  C   UNL     1      -1.171  -3.470  -0.011  0.00  0.00    +0.263 A 
ATOM     19  O   UNL     1      -2.382  -3.607  -0.006  0.00  0.00    -0.267 OA
ATOM     20  N   UNL     1      -0.348  -4.544  -0.020  0.00  0.00    -0.309 N 
ATOM     21  H   UNL     1      -0.720  -5.439  -0.023  0.00  0.00    +0.170 HD
ATOM     22  C   UNL     1       0.997  -4.369  -0.026  0.00  0.00    +0.124 A 
ATOM     23  N   UNL     1       1.547  -3.188  -0.022  0.00  0.00    -0.198 NA
ATOM     24  C   UNL     1       0.804  -2.070  -0.013  0.00  0.00    +0.235 A 
ATOM     25  O   UNL     1       1.106  -0.761  -0.013  0.00  0.00    -0.441 OA
BRANCH  16  26
ATOM     26  C   UNL     1      -2.507  -0.383   0.012  0.00  0.00    +0.391 C 
ATOM     27  O   UNL     1      -2.788   0.808   0.020  0.00  0.00    -0.240 OA
ATOM     28  O   UNL     1      -3.398  -1.222   0.012  0.00  0.00    -0.240 OA
ENDBRANCH  16  26
ENDBRANCH  13  22
ENDBRANCH  12  13
ENDBRANCH   1  12
BRANCH  11  29
ATOM     29  C   UNL     1       6.566  -5.224  -0.059  0.00  0.00    +0.131 C 
BRANCH  29  30
ATOM     30  C   UNL     1       6.808  -4.779   1.385  0.00  0.00    +0.052 C 
BRANCH  30  31
ATOM     31  C   UNL     1       7.504  -3.442   1.388  0.00  0.00    -0.072 C 
ATOM     32  C   UNL     1       6.775  -2.378   1.501  0.00  0.00    -0.028 C 
ATOM     33  C   UNL     1       7.322  -0.981   1.509  0.00  0.00    +0.027 C 
ATOM     34  C   UNL     1       8.826  -1.005   1.793  0.00  0.00    +0.004 C 
ATOM     35  C   UNL     1       9.480  -2.030   0.858  0.00  0.00    +0.005 C 
ATOM     36  C   UNL     1       9.000  -3.427   1.265  0.00  0.00    +0.030 C 
ENDBRANCH  30  31
ENDBRANCH  29  30
ENDBRANCH  11  29
TORSDOF 7
