REMARK  Name = ZINC09496937
REMARK  10 active torsions:
REMARK  status: ('A' for Active; 'I' for Inactive)
REMARK    1  A    between atoms: C_1  and  C_2
REMARK    2  A    between atoms: C_5  and  C_33
REMARK    3  A    between atoms: N_8  and  S_10
REMARK    4  A    between atoms: S_10  and  C_13
REMARK    5  A    between atoms: C_16  and  S_25
REMARK    6  A    between atoms: C_17  and  C_19
REMARK    7  A    between atoms: N_21  and  C_22
REMARK    8  A    between atoms: C_22  and  C_23
REMARK    9  A    between atoms: C_22  and  C_24
REMARK   10  A    between atoms: S_25  and  C_26
REMARK                            x       y       z     vdW  Elec       q    Type
REMARK                         _______ _______ _______ _____ _____    ______ ____
ROOT
ATOM      1  C   UNL     1       1.602   3.968  -0.155  0.00  0.00    +0.106 A 
ATOM      2  C   UNL     1       2.915   3.524  -0.152  0.00  0.00    +0.029 A 
ATOM      3  C   UNL     1       3.196   2.175  -0.113  0.00  0.00    +0.018 A 
ATOM      4  C   UNL     1       2.160   1.248  -0.069  0.00  0.00    +0.025 A 
ATOM      5  C   UNL     1       0.829   1.695  -0.077  0.00  0.00    +0.052 A 
ATOM      6  C   UNL     1       0.561   3.066  -0.118  0.00  0.00    +0.042 A 
ENDROOT
BRANCH   5   7
ATOM      7  C   UNL     1      -0.279   0.724  -0.037  0.00  0.00    +0.245 C 
ATOM      8  O   UNL     1      -0.042  -0.469  -0.002  0.00  0.00    -0.270 OA
ATOM      9  N   UNL     1      -1.555   1.157  -0.044  0.00  0.00    -0.309 N 
ATOM     10  H   UNL     1      -1.745   2.108  -0.072  0.00  0.00    +0.149 HD
BRANCH   9  11
ATOM     11  C   UNL     1      -2.657   0.192  -0.011  0.00  0.00    +0.067 C 
ATOM     12  C   UNL     1      -2.951  -0.195   1.440  0.00  0.00    +0.027 C 
ATOM     13  C   UNL     1      -3.905   0.820  -0.634  0.00  0.00    +0.027 C 
ENDBRANCH   9  11
ENDBRANCH   5   7
BRANCH   1  14
ATOM     14  S   UNL     1       1.261   5.696  -0.206  0.00  0.00    +0.061 S 
ATOM     15  O   UNL     1       2.399   6.318  -0.786  0.00  0.00    -0.153 OA
ATOM     16  O   UNL     1      -0.044   5.837  -0.750  0.00  0.00    -0.153 OA
BRANCH  14  22
ATOM     17  C   UNL     1       0.388   3.989   3.104  0.00  0.00    +0.009 C 
ATOM     18  C   UNL     1       0.086   5.458   3.404  0.00  0.00    +0.002 C 
ATOM     19  C   UNL     1       1.252   6.070   4.185  0.00  0.00    +0.009 C 
ATOM     20  C   UNL     1       2.539   5.941   3.368  0.00  0.00    +0.002 C 
ATOM     21  C   UNL     1       2.384   6.709   2.051  0.00  0.00    +0.112 C 
ATOM     22  N   UNL     1       1.180   6.226   1.361  0.00  0.00    -0.176 NA
ATOM     23  C   UNL     1      -0.098   6.227   2.086  0.00  0.00    +0.112 C 
ATOM     24  C   UNL     1       3.710   6.522   4.163  0.00  0.00    +0.009 C 
ENDBRANCH  14  22
ENDBRANCH   1  14
BRANCH   4  25
ATOM     25  S   UNL     1       2.516  -0.476  -0.012  0.00  0.00    -0.089 S 
BRANCH  25  26
ATOM     26  C   UNL     1       2.247  -0.911   1.674  0.00  0.00    +0.013 A 
ATOM     27  C   UNL     1       1.972   0.076   2.613  0.00  0.00    +0.016 A 
ATOM     28  C   UNL     1       1.756  -0.268   3.932  0.00  0.00    +0.016 A 
ATOM     29  C   UNL     1       1.824  -1.594   4.323  0.00  0.00    +0.018 A 
ATOM     30  C   UNL     1       2.104  -2.579   3.392  0.00  0.00    +0.016 A 
ATOM     31  C   UNL     1       2.315  -2.241   2.070  0.00  0.00    +0.016 A 
ATOM     32 BR   UNL     1       1.536  -2.061   6.132  0.00  0.00    -0.050 Br
ENDBRANCH  25  26
ENDBRANCH   4  25
TORSDOF 6
