REMARK  Name = ZINC10990142
REMARK  6 active torsions:
REMARK  status: ('A' for Active; 'I' for Inactive)
REMARK    1  A    between atoms: C_1  and  O_2
REMARK    2  A    between atoms: O_2  and  C_3
REMARK    3  A    between atoms: C_8  and  N_9
REMARK    4  A    between atoms: C_10  and  C_24
REMARK    5  A    between atoms: C_13  and  S_14
REMARK    6  A    between atoms: S_14  and  C_15
REMARK                            x       y       z     vdW  Elec       q    Type
REMARK                         _______ _______ _______ _____ _____    ______ ____
ROOT
ATOM      1  N   UNL     1       2.300   3.369  -0.007  0.00  0.00    -0.267 N 
ATOM      2  C   UNL     1       3.656   3.129  -0.016  0.00  0.00    +0.170 A 
ATOM      3  N   UNL     1       3.817   1.826  -0.025  0.00  0.00    -0.128 NA
ATOM      4  N   UNL     1       2.672   1.242  -0.017  0.00  0.00    -0.122 NA
ATOM      5  C   UNL     1       1.708   2.135  -0.003  0.00  0.00    +0.197 A 
ENDROOT
BRANCH   1  11
ATOM      6  C   UNL     1       1.335   5.240  -1.204  0.00  0.00    +0.144 A 
ATOM      7  C   UNL     1       0.697   6.471  -1.194  0.00  0.00    +0.049 A 
ATOM      8  C   UNL     1       0.393   7.082   0.008  0.00  0.00    +0.024 A 
ATOM      9  C   UNL     1       0.720   6.465   1.204  0.00  0.00    +0.043 A 
ATOM     10  C   UNL     1       1.351   5.235   1.201  0.00  0.00    +0.050 A 
ATOM     11  C   UNL     1       1.659   4.617  -0.002  0.00  0.00    +0.093 A 
ATOM     12 CL   UNL     1       0.336   7.239   2.710  0.00  0.00    -0.083 Cl
BRANCH   6  14
ATOM     13  C   UNL     1       1.277   5.338  -3.580  0.00  0.00    +0.277 C 
ATOM     14  O   UNL     1       1.639   4.641  -2.386  0.00  0.00    -0.493 OA
ENDBRANCH   6  14
ENDBRANCH   1  11
BRANCH   2  15
ATOM     15  C   UNL     1       4.728   4.147  -0.021  0.00  0.00    +0.021 A 
ATOM     16  C   UNL     1       6.036   3.785  -0.348  0.00  0.00    +0.012 A 
ATOM     17  C   UNL     1       7.032   4.740  -0.352  0.00  0.00    +0.002 A 
ATOM     18  C   UNL     1       6.738   6.053  -0.032  0.00  0.00    +0.020 A 
ATOM     19  C   UNL     1       5.443   6.419   0.294  0.00  0.00    +0.042 A 
ATOM     20  C   UNL     1       4.436   5.474   0.296  0.00  0.00    +0.031 A 
ATOM     21 CL   UNL     1       5.083   8.069   0.695  0.00  0.00    -0.084 Cl
ENDBRANCH   2  15
BRANCH   5  22
ATOM     22  S   UNL     1      -0.022   1.806   0.012  0.00  0.00    -0.073 S 
BRANCH  22  23
ATOM     23  C   UNL     1       0.002  -0.004   0.002  0.00  0.00    +0.140 C 
ATOM     24  C   UNL     1      -1.426  -0.538   0.138  0.00  0.00    +0.024 C 
ATOM     25  C   UNL     1      -2.410   0.370  -0.576  0.00  0.00    +0.003 C 
ATOM     26  C   UNL     1      -2.245   0.386  -2.084  0.00  0.00    +0.019 C 
ATOM     27  C   UNL     1      -0.915   1.031  -2.480  0.00  0.00    +0.104 C 
ATOM     28  N   UNL     1       0.132  -0.003  -2.465  0.00  0.00    -0.314 N 
ATOM     29  C   UNL     1       0.577  -0.498  -1.309  0.00  0.00    +0.226 C 
ATOM     30  O   UNL     1       1.444  -1.346  -1.308  0.00  0.00    -0.275 OA
ATOM     31  H   UNL     1       0.502  -0.327  -3.302  0.00  0.00    +0.149 HD
ENDBRANCH  22  23
ENDBRANCH   5  22
TORSDOF 5
