REMARK  Name = ZINC06144536
REMARK  9 active torsions:
REMARK  status: ('A' for Active; 'I' for Inactive)
REMARK    1  A    between atoms: C_1  and  C_2
REMARK    2  A    between atoms: C_2  and  C_4
REMARK    3  A    between atoms: C_2  and  O_13
REMARK    4  A    between atoms: N_6  and  C_7
REMARK    5  A    between atoms: O_13  and  C_14
REMARK    6  A    between atoms: C_14  and  C_16
REMARK    7  A    between atoms: C_19  and  N_22
REMARK    8  A    between atoms: N_22  and  S_23
REMARK    9  A    between atoms: S_23  and  C_26
REMARK                            x       y       z     vdW  Elec       q    Type
REMARK                         _______ _______ _______ _____ _____    ______ ____
ROOT
ATOM      1  C   UNL     1       4.790  -1.574   3.714  0.00  0.00    +0.059 A 
ATOM      2  C   UNL     1       5.691  -0.525   3.923  0.00  0.00    +0.017 A 
ATOM      3  C   UNL     1       5.554   0.645   3.220  0.00  0.00    +0.025 A 
ATOM      4  C   UNL     1       4.519   0.788   2.300  0.00  0.00    +0.048 A 
ATOM      5  C   UNL     1       3.617  -0.252   2.094  0.00  0.00    +0.025 A 
ATOM      6  C   UNL     1       3.752  -1.426   2.789  0.00  0.00    +0.017 A 
ENDROOT
BRANCH   1   7
ATOM      7  C   UNL     1       4.934  -2.832   4.468  0.00  0.00    +0.340 C 
ATOM      8  O   UNL     1       5.837  -2.959   5.271  0.00  0.00    -0.245 OA
BRANCH   7   9
ATOM      9  O   UNL     1       4.066  -3.842   4.265  0.00  0.00    -0.449 OA
BRANCH   9  11
ATOM     10  C   UNL     1       3.487  -4.952   6.354  0.00  0.00    +0.062 C 
ATOM     11  C   UNL     1       4.268  -5.052   5.042  0.00  0.00    +0.259 C 
BRANCH  11  12
ATOM     12  C   UNL     1       3.780  -6.242   4.257  0.00  0.00    +0.258 C 
ATOM     13  O   UNL     1       3.308  -6.085   3.151  0.00  0.00    -0.271 OA
ATOM     14  N   UNL     1       3.868  -7.479   4.783  0.00  0.00    -0.282 N 
ATOM     15  H   UNL     1       4.309  -7.613   5.637  0.00  0.00    +0.155 HD
BRANCH  14  16
ATOM     16  C   UNL     1       3.324  -8.571   4.098  0.00  0.00    +0.033 A 
ATOM     17  C   UNL     1       2.749  -9.619   4.805  0.00  0.00    +0.023 A 
ATOM     18  C   UNL     1       2.208 -10.694   4.126  0.00  0.00    +0.002 A 
ATOM     19  C   UNL     1       2.248 -10.731   2.744  0.00  0.00    +0.000 A 
ATOM     20  C   UNL     1       2.825  -9.691   2.038  0.00  0.00    +0.002 A 
ATOM     21  C   UNL     1       3.362  -8.612   2.711  0.00  0.00    +0.023 A 
ENDBRANCH  14  16
ENDBRANCH  11  12
ENDBRANCH   9  11
ENDBRANCH   7   9
ENDBRANCH   1   7
BRANCH   4  22
ATOM     22  N   UNL     1       4.383   1.975   1.589  0.00  0.00    -0.216 N 
ATOM     23  H   UNL     1       4.443   2.826   2.050  0.00  0.00    +0.174 HD
BRANCH  22  24
ATOM     24  S   UNL     1       4.118   1.936  -0.045  0.00  0.00    +0.079 S 
ATOM     25  O   UNL     1       4.135   3.285  -0.492  0.00  0.00    -0.149 OA
ATOM     26  O   UNL     1       3.005   1.079  -0.256  0.00  0.00    -0.149 OA
BRANCH  24  27
ATOM     27  C   UNL     1       5.510   1.144  -0.780  0.00  0.00    +0.147 A 
ATOM     28  C   UNL     1       5.745  -0.179  -0.955  0.00  0.00    +0.038 A 
ATOM     29  C   UNL     1       6.921  -0.577  -1.563  0.00  0.00    +0.025 A 
ATOM     30  C   UNL     1       7.804   0.370  -1.967  0.00  0.00    +0.057 A 
ATOM     31  S   UNL     1       6.977   1.877  -1.486  0.00  0.00    -0.061 S 
ATOM     32 BR   UNL     1       9.479   0.150  -2.818  0.00  0.00    -0.043 Br
ENDBRANCH  24  27
ENDBRANCH  22  24
ENDBRANCH   4  22
TORSDOF 8
