REMARK  Name = ZINC33912844
REMARK  5 active torsions:
REMARK  status: ('A' for Active; 'I' for Inactive)
REMARK    1  A    between atoms: C_6  and  C_7
REMARK    2  A    between atoms: N_15  and  C_18
REMARK    3  A    between atoms: C_24  and  C_26
REMARK    4  A    between atoms: C_24  and  C_33
REMARK    5  A    between atoms: C_26  and  C_27
REMARK                            x       y       z     vdW  Elec       q    Type
REMARK                         _______ _______ _______ _____ _____    ______ ____
ROOT
ATOM      1  C   UNL     1      -1.592  -0.858  -0.514  0.00  0.00    -0.027 C 
ATOM      2  C   UNL     1      -2.562  -0.788  -1.681  0.00  0.00    +0.077 C 
ATOM      3  C   UNL     1      -3.241   0.593  -1.338  0.00  0.00    +0.086 C 
ATOM      4  C   UNL     1      -3.885   0.920  -2.586  0.00  0.00    +0.225 C 
ATOM      5  O   UNL     1      -4.934   1.507  -2.742  0.00  0.00    -0.275 OA
ATOM      6  N   UNL     1      -3.053   0.423  -3.558  0.00  0.00    -0.239 N 
ATOM      7  C   UNL     1      -2.100  -0.437  -3.061  0.00  0.00    +0.225 C 
ATOM      8  O   UNL     1      -1.095  -0.827  -3.616  0.00  0.00    -0.275 OA
ATOM      9  C   UNL     1      -3.562   0.428   0.090  0.00  0.00    +0.048 C 
ATOM     10  N   UNL     1      -2.288  -0.190   0.628  0.00  0.00    +0.395 N 
ATOM     11  H   UNL     1      -2.516  -0.873   1.335  0.00  0.00    -0.083 HD
ATOM     12  H   UNL     1      -1.692   0.523   1.021  0.00  0.00    -0.083 HD
ENDROOT
BRANCH   1  18
ATOM     13  C   UNL     1      -0.253   1.248  -0.694  0.00  0.00    +0.006 A 
ATOM     14  C   UNL     1       0.913   1.925  -1.002  0.00  0.00    +0.049 A 
ATOM     15  C   UNL     1       2.018   1.230  -1.467  0.00  0.00    +0.162 A 
ATOM     16  C   UNL     1       1.952  -0.150  -1.620  0.00  0.00    +0.162 A 
ATOM     17  C   UNL     1       0.780  -0.823  -1.310  0.00  0.00    +0.051 A 
ATOM     18  C   UNL     1      -0.319  -0.123  -0.849  0.00  0.00    -0.057 A 
ATOM     19  O   UNL     1       3.028  -0.854  -2.067  0.00  0.00    -0.485 OA
ATOM     20  C   UNL     1       4.060  -0.105  -2.719  0.00  0.00    +0.270 C 
ATOM     21  C   UNL     1       4.359   1.139  -1.873  0.00  0.00    +0.270 C 
ATOM     22  O   UNL     1       3.157   1.910  -1.770  0.00  0.00    -0.485 OA
ENDBRANCH   1  18
BRANCH   6  23
ATOM     23  C   UNL     1      -3.173   0.761  -4.979  0.00  0.00    +0.084 C 
ATOM     24  C   UNL     1      -3.422  -0.514  -5.787  0.00  0.00    +0.023 C 
ATOM     25  C   UNL     1      -3.546  -0.161  -7.271  0.00  0.00    +0.002 C 
ATOM     26  C   UNL     1      -2.252   0.500  -7.748  0.00  0.00    +0.000 C 
ATOM     27  C   UNL     1      -2.003   1.775  -6.940  0.00  0.00    +0.002 C 
ATOM     28  C   UNL     1      -1.878   1.422  -5.456  0.00  0.00    +0.023 C 
ENDBRANCH   6  23
BRANCH   9  29
ATOM     29  C   UNL     1      -4.742  -0.490   0.272  0.00  0.00    +0.346 C 
ATOM     30  O   UNL     1      -4.645  -1.475   0.984  0.00  0.00    -0.248 OA
ATOM     31  O   UNL     1      -5.795  -0.249  -0.294  0.00  0.00    -0.248 OA
ENDBRANCH   9  29
BRANCH   9  32
ATOM     32  C   UNL     1      -3.819   1.785   0.749  0.00  0.00    +0.003 C 
BRANCH  32  33
ATOM     33  C   UNL     1      -4.263   1.572   2.198  0.00  0.00    -0.012 C 
ATOM     34  C   UNL     1      -4.699   2.909   2.799  0.00  0.00    +0.003 C 
ATOM     35  C   UNL     1      -5.142   2.696   4.248  0.00  0.00    +0.000 C 
ATOM     36  C   UNL     1      -3.976   2.128   5.060  0.00  0.00    +0.000 C 
ATOM     37  C   UNL     1      -3.539   0.791   4.458  0.00  0.00    +0.000 C 
ATOM     38  C   UNL     1      -3.096   1.004   3.009  0.00  0.00    +0.003 C 
ENDBRANCH  32  33
ENDBRANCH   9  32
TORSDOF 5
