REMARK  Name = ZINC64403897
REMARK  7 active torsions:
REMARK  status: ('A' for Active; 'I' for Inactive)
REMARK    1  A    between atoms: C_4  and  C_7
REMARK    2  A    between atoms: C_9  and  C_13
REMARK    3  A    between atoms: N_15  and  C_16
REMARK    4  A    between atoms: C_16  and  C_17
REMARK    5  A    between atoms: C_17  and  O_18
REMARK    6  A    between atoms: O_18  and  C_19
REMARK    7  A    between atoms: C_25  and  C_29
REMARK                            x       y       z     vdW  Elec       q    Type
REMARK                         _______ _______ _______ _____ _____    ______ ____
ROOT
ATOM      1  O   UNL     1       6.605  -7.064   1.152  0.00  0.00    -0.477 OA
ENDROOT
BRANCH   1   2
ATOM      2  C   UNL     1       6.486  -8.376   0.850  0.00  0.00    +0.197 C 
ATOM      3  C   UNL     1       7.239  -8.911  -0.148  0.00  0.00    +0.067 C 
ATOM      4  C   UNL     1       7.134 -10.270  -0.481  0.00  0.00    +0.049 C 
ATOM      5  C   UNL     1       6.257 -11.082   0.207  0.00  0.00    +0.134 C 
ATOM      6  N   UNL     1       5.964 -12.381   0.099  0.00  0.00    -0.265 N 
ATOM      7  N   UNL     1       5.076 -12.775   0.939  0.00  0.00    -0.181 NA
ATOM      8  C   UNL     1       4.671 -11.623   1.760  0.00  0.00    +0.262 C 
ATOM      9  N   UNL     1       5.483 -10.517   1.239  0.00  0.00    -0.204 N 
ATOM     10  N   UNL     1       5.607  -9.165   1.556  0.00  0.00    -0.231 N 
ATOM     11  H   UNL     1       5.074  -8.782   2.270  0.00  0.00    +0.173 HD
ATOM     12  H   UNL     1       6.381 -12.969  -0.550  0.00  0.00    +0.190 HD
BRANCH   8  13
ATOM     13  C   UNL     1       3.202 -11.335   1.581  0.00  0.00    +0.000 A 
ATOM     14  C   UNL     1       2.736 -10.037   1.674  0.00  0.00    +0.007 A 
ATOM     15  C   UNL     1       1.389  -9.772   1.510  0.00  0.00    +0.003 A 
ATOM     16  C   UNL     1       0.507 -10.805   1.253  0.00  0.00    +0.038 A 
ATOM     17  C   UNL     1       0.973 -12.105   1.160  0.00  0.00    +0.124 A 
ATOM     18  C   UNL     1       2.323 -12.369   1.319  0.00  0.00    +0.045 A 
ATOM     19  F   UNL     1       0.112 -13.116   0.909  0.00  0.00    -0.205 F 
ENDBRANCH   8  13
ENDBRANCH   1   2
BRANCH   1  20
ATOM     20  C   UNL     1       5.789  -6.567   2.215  0.00  0.00    +0.249 C 
BRANCH  20  21
ATOM     21  C   UNL     1       6.060  -5.074   2.410  0.00  0.00    +0.145 C 
BRANCH  21  24
ATOM     22  C   UNL     1       5.775  -3.000   1.163  0.00  0.00    +0.243 C 
ATOM     23  O   UNL     1       6.258  -2.403   2.101  0.00  0.00    -0.273 OA
ATOM     24  N   UNL     1       5.632  -4.339   1.217  0.00  0.00    -0.310 N 
ATOM     25  H   UNL     1       5.246  -4.817   0.466  0.00  0.00    +0.149 HD
BRANCH  22  28
ATOM     26  C   UNL     1       3.699  -0.689  -0.037  0.00  0.00    +0.092 C 
ATOM     27  C   UNL     1       3.832  -2.029  -0.051  0.00  0.00    +0.040 C 
ATOM     28  C   UNL     1       5.335  -2.245  -0.065  0.00  0.00    +0.238 C 
ATOM     29  N   UNL     1       5.871  -0.874  -0.056  0.00  0.00    -0.170 NA
ATOM     30  N   UNL     1       4.919  -0.090  -0.047  0.00  0.00    -0.153 NA
BRANCH  26  34
ATOM     31  C   UNL     1      -0.017   1.379   0.010  0.00  0.00    +0.000 A 
ATOM     32  C   UNL     1       1.169   2.092   0.002  0.00  0.00    +0.001 A 
ATOM     33  C   UNL     1       2.377   1.426  -0.013  0.00  0.00    +0.010 A 
ATOM     34  C   UNL     1       2.402   0.033  -0.021  0.00  0.00    +0.002 A 
ATOM     35  C   UNL     1       1.205  -0.680  -0.013  0.00  0.00    +0.010 A 
ATOM     36  C   UNL     1       0.002  -0.004   0.002  0.00  0.00    +0.001 A 
ENDBRANCH  26  34
ENDBRANCH  22  28
ENDBRANCH  21  24
ENDBRANCH  20  21
ENDBRANCH   1  20
TORSDOF 7
