REMARK  Name = ZINC36207737
REMARK  16 active torsions:
REMARK  status: ('A' for Active; 'I' for Inactive)
REMARK    1  A    between atoms: C_1  and  C_2
REMARK    2  A    between atoms: C_2  and  C_4
REMARK    3  A    between atoms: C_2  and  O_33
REMARK    4  A    between atoms: C_4  and  N_5
REMARK    5  A    between atoms: N_5  and  C_6
REMARK    6  A    between atoms: N_5  and  C_11
REMARK    7  A    between atoms: C_6  and  C_7
REMARK    8  A    between atoms: C_7  and  C_8
REMARK    9  A    between atoms: C_8  and  C_9
REMARK   10  A    between atoms: C_8  and  C_10
REMARK   11  A    between atoms: C_11  and  C_12
REMARK   12  A    between atoms: C_18  and  C_23
REMARK   13  A    between atoms: C_26  and  O_31
REMARK   14  A    between atoms: C_27  and  O_29
REMARK   15  A    between atoms: O_29  and  C_30
REMARK   16  A    between atoms: O_31  and  C_32
REMARK                            x       y       z     vdW  Elec       q    Type
REMARK                         _______ _______ _______ _____ _____    ______ ____
ROOT
ATOM      1  C   UNL     1       0.471  -2.423   3.500  0.00  0.00    +0.094 A 
ATOM      2  N   UNL     1       0.884  -2.851   4.721  0.00  0.00    -0.312 N 
ATOM      3  H   UNL     1       1.782  -3.205   4.821  0.00  0.00    +0.170 HD
ATOM      4  C   UNL     1       0.074  -2.792   5.793  0.00  0.00    +0.260 A 
ATOM      5  O   UNL     1       0.460  -3.180   6.883  0.00  0.00    -0.267 OA
ATOM      6  C   UNL     1      -1.248  -2.267   5.636  0.00  0.00    +0.080 A 
ATOM      7  C   UNL     1      -2.300  -2.102   6.632  0.00  0.00    +0.004 A 
ATOM      8  C   UNL     1      -3.487  -1.575   6.246  0.00  0.00    +0.056 A 
ATOM      9  S   UNL     1      -3.255  -1.269   4.505  0.00  0.00    -0.076 S 
ATOM     10  C   UNL     1      -1.587  -1.850   4.338  0.00  0.00    +0.116 A 
ATOM     11  N   UNL     1      -0.727  -1.934   3.326  0.00  0.00    -0.229 NA
ENDROOT
BRANCH   7  12
ATOM     12  C   UNL     1      -2.075  -2.503   8.042  0.00  0.00    -0.013 A 
ATOM     13  C   UNL     1      -1.558  -3.765   8.334  0.00  0.00    +0.012 A 
ATOM     14  C   UNL     1      -1.349  -4.138   9.647  0.00  0.00    +0.050 A 
ATOM     15  C   UNL     1      -1.652  -3.260  10.676  0.00  0.00    +0.162 A 
ATOM     16  C   UNL     1      -2.168  -1.999  10.390  0.00  0.00    +0.162 A 
ATOM     17  C   UNL     1      -2.374  -1.618   9.076  0.00  0.00    +0.058 A 
BRANCH  16  18
ATOM     18  O   UNL     1      -2.464  -1.139  11.402  0.00  0.00    -0.491 OA
ATOM     19  C   UNL     1      -2.990   0.138  11.035  0.00  0.00    +0.277 C 
ENDBRANCH  16  18
BRANCH  15  20
ATOM     20  O   UNL     1      -1.446  -3.631  11.968  0.00  0.00    -0.491 OA
ATOM     21  C   UNL     1      -0.915  -4.939  12.190  0.00  0.00    +0.277 C 
ENDBRANCH  15  20
ENDBRANCH   7  12
BRANCH   1  22
ATOM     22  C   UNL     1       1.414  -2.507   2.327  0.00  0.00    -0.003 C 
BRANCH  22  23
ATOM     23  N   UNL     1       0.750  -1.983   1.126  0.00  0.00    +0.386 N 
ATOM     24  H   UNL     1      -0.124  -2.468   0.987  0.00  0.00    -0.081 HD
BRANCH  23  25
ATOM     25  C   UNL     1       0.492  -0.547   1.297  0.00  0.00    -0.047 C 
BRANCH  25  27
ATOM     26  C   UNL     1       1.554   1.714   1.325  0.00  0.00    +0.035 C 
ATOM     27  C   UNL     1       1.821   0.208   1.345  0.00  0.00    +0.095 C 
BRANCH  27  28
ATOM     28  O   UNL     1       2.521  -0.136   2.543  0.00  0.00    -0.394 OA
ATOM     29  H   UNL     1       3.338   0.362   2.678  0.00  0.00    +0.210 HD
ENDBRANCH  27  28
ENDBRANCH  25  27
ENDBRANCH  23  25
BRANCH  23  30
ATOM     30  C   UNL     1       1.616  -2.190  -0.042  0.00  0.00    -0.078 C 
BRANCH  30  31
ATOM     31  C   UNL     1       0.885  -1.734  -1.306  0.00  0.00    -0.016 C 
BRANCH  31  32
ATOM     32  C   UNL     1       1.731  -2.071  -2.535  0.00  0.00    -0.019 C 
ATOM     33  C   UNL     1       0.948  -1.730  -3.804  0.00  0.00    +0.007 C 
ATOM     34  C   UNL     1       3.027  -1.258  -2.501  0.00  0.00    +0.007 C 
ENDBRANCH  31  32
ENDBRANCH  30  31
ENDBRANCH  23  30
ENDBRANCH  22  23
ENDBRANCH   1  22
TORSDOF 11
