REMARK  Name = ZINC27835373
REMARK  16 active torsions:
REMARK  status: ('A' for Active; 'I' for Inactive)
REMARK    1  A    between atoms: C_1  and  C_2
REMARK    2  A    between atoms: C_3  and  C_30
REMARK    3  A    between atoms: N_4  and  C_26
REMARK    4  A    between atoms: C_5  and  S_7
REMARK    5  A    between atoms: S_7  and  C_8
REMARK    6  A    between atoms: C_8  and  C_9
REMARK    7  A    between atoms: N_11  and  C_12
REMARK    8  A    between atoms: C_15  and  S_18
REMARK    9  A    between atoms: S_18  and  N_21
REMARK   10  A    between atoms: N_21  and  C_22
REMARK   11  A    between atoms: N_21  and  C_23
REMARK   12  A    between atoms: C_23  and  C_24
REMARK   13  A    between atoms: C_23  and  C_25
REMARK   14  A    between atoms: C_26  and  C_27
REMARK   15  A    between atoms: C_27  and  C_28
REMARK   16  A    between atoms: C_27  and  C_29
REMARK                            x       y       z     vdW  Elec       q    Type
REMARK                         _______ _______ _______ _____ _____    ______ ____
ROOT
ATOM      1  C   UNL     1       0.076  -3.838   4.466  0.00  0.00    +0.227 C 
ATOM      2  O   UNL     1       0.082  -4.997   4.108  0.00  0.00    -0.275 OA
ATOM      3  N   UNL     1       0.080  -3.539   5.780  0.00  0.00    -0.285 N 
ATOM      4  H   UNL     1       0.143  -2.615   6.067  0.00  0.00    +0.155 HD
ENDROOT
BRANCH   3   5
ATOM      5  C   UNL     1      -0.006  -4.562   6.731  0.00  0.00    +0.034 A 
ATOM      6  C   UNL     1      -0.705  -4.356   7.913  0.00  0.00    +0.025 A 
ATOM      7  C   UNL     1      -0.788  -5.368   8.850  0.00  0.00    +0.030 A 
ATOM      8  C   UNL     1      -0.178  -6.585   8.611  0.00  0.00    +0.106 A 
ATOM      9  C   UNL     1       0.519  -6.793   7.434  0.00  0.00    +0.030 A 
ATOM     10  C   UNL     1       0.601  -5.788   6.491  0.00  0.00    +0.025 A 
BRANCH   8  11
ATOM     11  S   UNL     1      -0.287  -7.873   9.808  0.00  0.00    +0.061 S 
ATOM     12  O   UNL     1       0.828  -8.727   9.588  0.00  0.00    -0.153 OA
ATOM     13  O   UNL     1      -0.530  -7.245  11.059  0.00  0.00    -0.153 OA
BRANCH  11  14
ATOM     14  N   UNL     1      -1.639  -8.759   9.452  0.00  0.00    -0.177 NA
ATOM     15  C   UNL     1      -1.546  -9.906   8.545  0.00  0.00    +0.132 C 
BRANCH  14  16
ATOM     16  C   UNL     1      -2.930  -8.397  10.043  0.00  0.00    +0.073 C 
ATOM     17  C   UNL     1      -3.927  -8.070   8.931  0.00  0.00    +0.025 C 
ATOM     18  C   UNL     1      -3.457  -9.568  10.874  0.00  0.00    +0.025 C 
ENDBRANCH  14  16
ENDBRANCH  11  14
ENDBRANCH   8  11
ENDBRANCH   3   5
BRANCH   1  19
ATOM     19  C   UNL     1       0.064  -2.733   3.441  0.00  0.00    +0.173 C 
BRANCH  19  20
ATOM     20  S   UNL     1       0.061  -3.453   1.776  0.00  0.00    -0.080 S 
BRANCH  20  25
ATOM     21  C   UNL     1       0.021   1.504   0.011  0.00  0.00    +0.065 C 
ATOM     22  C   UNL     1       0.030  -0.003   0.002  0.00  0.00    +0.034 A 
ATOM     23  C   UNL     1       0.031  -0.784  -1.092  0.00  0.00    +0.037 A 
ATOM     24  N   UNL     1       0.041  -2.089  -0.654  0.00  0.00    -0.324 N 
ATOM     25  C   UNL     1       0.047  -2.052   0.707  0.00  0.00    +0.148 A 
ATOM     26  N   UNL     1       0.046  -0.796   1.087  0.00  0.00    -0.338 N 
ATOM     27  C   UNL     1       0.021  -0.319  -2.525  0.00  0.00    +0.065 C 
ATOM     28  H   UNL     1       0.052  -0.488   2.007  0.00  0.00    +0.168 HD
BRANCH  24  29
ATOM     29  C   UNL     1       0.045  -3.290  -1.493  0.00  0.00    +0.127 C 
BRANCH  29  30
ATOM     30  C   UNL     1       1.489  -3.698  -1.792  0.00  0.00    +0.003 C 
ATOM     31  C   UNL     1       1.496  -5.020  -2.562  0.00  0.00    +0.009 C 
ATOM     32  C   UNL     1       2.162  -2.613  -2.635  0.00  0.00    +0.009 C 
ENDBRANCH  29  30
ENDBRANCH  24  29
ENDBRANCH  20  25
ENDBRANCH  19  20
ENDBRANCH   1  19
TORSDOF 9
