REMARK  Name = ZINC01886329
REMARK  11 active torsions:
REMARK  status: ('A' for Active; 'I' for Inactive)
REMARK    1  A    between atoms: C_1  and  O_2
REMARK    2  A    between atoms: O_2  and  C_3
REMARK    3  A    between atoms: C_6  and  O_9
REMARK    4  A    between atoms: O_9  and  S_10
REMARK    5  A    between atoms: S_10  and  C_13
REMARK    6  A    between atoms: N_20  and  O_21
REMARK    7  A    between atoms: C_26  and  S_28
REMARK    8  A    between atoms: S_28  and  O_31
REMARK    9  A    between atoms: O_31  and  C_32
REMARK   10  A    between atoms: C_35  and  O_38
REMARK   11  A    between atoms: O_38  and  C_39
REMARK                            x       y       z     vdW  Elec       q    Type
REMARK                         _______ _______ _______ _____ _____    ______ ____
ROOT
ATOM      1  C   UNL     1       1.174   1.784   0.000  0.00  0.00    +0.129 A 
ATOM      2  C   UNL     1       1.161   3.168   0.007  0.00  0.00    +0.031 A 
ATOM      3  C   UNL     1      -0.035   3.857   0.022  0.00  0.00    +0.011 A 
ATOM      4  C   UNL     1      -1.241   3.160   0.030  0.00  0.00    -0.008 A 
ATOM      5  C   UNL     1      -1.226   1.756   0.017  0.00  0.00    +0.014 A 
ATOM      6  C   UNL     1      -0.013   1.076   0.008  0.00  0.00    +0.041 A 
ATOM      7  C   UNL     1      -2.632   1.288   0.021  0.00  0.00    +0.118 C 
ATOM      8  N   UNL     1      -3.037   0.051   0.017  0.00  0.00    -0.086 NA
ATOM      9  C   UNL     1      -3.490   2.496   0.031  0.00  0.00    +0.014 A 
ATOM     10  C   UNL     1      -2.649   3.620   0.045  0.00  0.00    -0.008 A 
ATOM     11  C   UNL     1      -3.209   4.895   0.056  0.00  0.00    +0.011 A 
ATOM     12  C   UNL     1      -4.582   5.045   0.069  0.00  0.00    +0.031 A 
ATOM     13  C   UNL     1      -5.410   3.936   0.071  0.00  0.00    +0.129 A 
ATOM     14  C   UNL     1      -4.871   2.664   0.039  0.00  0.00    +0.041 A 
ENDROOT
BRANCH   1  15
ATOM     15  S   UNL     1       2.710   0.921  -0.018  0.00  0.00    +0.151 S 
ATOM     16  O   UNL     1       3.679   1.805   0.528  0.00  0.00    -0.131 OA
ATOM     17  O   UNL     1       2.459  -0.366   0.529  0.00  0.00    -0.131 OA
BRANCH  15  18
ATOM     18  O   UNL     1       3.089   0.708  -1.476  0.00  0.00    -0.342 OA
BRANCH  18  22
ATOM     19  C   UNL     1       4.476   4.105  -3.366  0.00  0.00    +0.120 A 
ATOM     20  C   UNL     1       5.364   3.262  -2.717  0.00  0.00    +0.049 A 
ATOM     21  C   UNL     1       4.900   2.124  -2.084  0.00  0.00    +0.052 A 
ATOM     22  C   UNL     1       3.546   1.827  -2.099  0.00  0.00    +0.157 A 
ATOM     23  C   UNL     1       2.658   2.668  -2.752  0.00  0.00    +0.052 A 
ATOM     24  C   UNL     1       3.121   3.808  -3.381  0.00  0.00    +0.049 A 
BRANCH  19  26
ATOM     25  C   UNL     1       3.962   6.048  -4.638  0.00  0.00    +0.277 C 
ATOM     26  O   UNL     1       4.933   5.225  -3.989  0.00  0.00    -0.495 OA
ENDBRANCH  19  26
ENDBRANCH  18  22
ENDBRANCH  15  18
ENDBRANCH   1  15
BRANCH  13  27
ATOM     27  S   UNL     1      -7.159   4.147   0.088  0.00  0.00    +0.151 S 
ATOM     28  O   UNL     1      -7.707   2.957   0.638  0.00  0.00    -0.131 OA
ATOM     29  O   UNL     1      -7.408   5.430   0.647  0.00  0.00    -0.131 OA
BRANCH  27  30
ATOM     30  O   UNL     1      -7.619   4.208  -1.362  0.00  0.00    -0.342 OA
BRANCH  30  31
ATOM     31  C   UNL     1      -7.626   3.003  -1.991  0.00  0.00    +0.157 A 
ATOM     32  C   UNL     1      -6.497   2.568  -2.669  0.00  0.00    +0.052 A 
ATOM     33  C   UNL     1      -6.502   1.341  -3.304  0.00  0.00    +0.049 A 
ATOM     34  C   UNL     1      -7.640   0.549  -3.272  0.00  0.00    +0.120 A 
ATOM     35  C   UNL     1      -8.771   0.986  -2.598  0.00  0.00    +0.049 A 
ATOM     36  C   UNL     1      -8.764   2.210  -1.959  0.00  0.00    +0.052 A 
BRANCH  34  37
ATOM     37  O   UNL     1      -7.647  -0.657  -3.901  0.00  0.00    -0.495 OA
ATOM     38  C   UNL     1      -6.448  -1.044  -4.575  0.00  0.00    +0.277 C 
ENDBRANCH  34  37
ENDBRANCH  30  31
ENDBRANCH  27  30
ENDBRANCH  13  27
BRANCH   8  39
ATOM     39  O   UNL     1      -4.422  -0.241   0.021  0.00  0.00    -0.409 OA
ATOM     40  H   UNL     1      -4.625  -1.187   0.017  0.00  0.00    +0.328 HD
ENDBRANCH   8  39
TORSDOF 9
