REMARK  Name = ZINC35867293
REMARK  9 active torsions:
REMARK  status: ('A' for Active; 'I' for Inactive)
REMARK    1  A    between atoms: C_1  and  C_2
REMARK    2  A    between atoms: C_2  and  C_3
REMARK    3  A    between atoms: C_3  and  C_4
REMARK    4  A    between atoms: C_4  and  N_5
REMARK    5  A    between atoms: C_21  and  C_23
REMARK    6  A    between atoms: C_23  and  C_25
REMARK    7  A    between atoms: C_23  and  C_26
REMARK    8  A    between atoms: C_26  and  C_27
REMARK    9  A    between atoms: C_29  and  C_33
REMARK                            x       y       z     vdW  Elec       q    Type
REMARK                         _______ _______ _______ _____ _____    ______ ____
ROOT
ATOM      1  N   UNL     1      -2.817  -2.534  -2.355  0.00  0.00    -0.299 N 
ATOM      2  C   UNL     1      -3.438  -2.777  -1.183  0.00  0.00    +0.302 C 
ATOM      3  O   UNL     1      -2.829  -2.662  -0.137  0.00  0.00    -0.253 OA
ATOM      4  N   UNL     1      -4.734  -3.147  -1.171  0.00  0.00    -0.283 N 
ATOM      5  C   UNL     1      -5.449  -3.407  -2.428  0.00  0.00    +0.128 C 
ATOM      6  C   UNL     1      -6.047  -4.818  -2.368  0.00  0.00    +0.125 C 
ATOM      7  N   UNL     1      -6.770  -4.968  -1.098  0.00  0.00    -0.312 N 
ATOM      8  C   UNL     1      -6.055  -4.708   0.160  0.00  0.00    +0.125 C 
ATOM      9  C   UNL     1      -5.456  -3.302   0.100  0.00  0.00    +0.128 C 
ATOM     10  C   UNL     1      -8.101  -5.348  -1.085  0.00  0.00    +0.133 A 
ATOM     11  C   UNL     1      -8.459  -6.715  -0.917  0.00  0.00    +0.051 A 
ATOM     12  C   UNL     1      -7.585  -7.876  -0.739  0.00  0.00    -0.025 A 
ATOM     13  C   UNL     1      -8.185  -9.076  -0.600  0.00  0.00    -0.004 A 
ATOM     14  S   UNL     1      -9.923  -8.739  -0.695  0.00  0.00    -0.073 S 
ATOM     15  C   UNL     1      -9.842  -6.982  -0.921  0.00  0.00    +0.114 A 
ATOM     16  N   UNL     1     -10.730  -6.019  -1.071  0.00  0.00    -0.224 NA
ATOM     17  C   UNL     1     -10.338  -4.769  -1.222  0.00  0.00    +0.135 A 
ATOM     18  N   UNL     1      -9.057  -4.444  -1.224  0.00  0.00    -0.216 NA
ATOM     19  C   UNL     1      -7.520 -10.405  -0.405  0.00  0.00    +0.046 C 
ATOM     20  C   UNL     1      -6.056 -10.162  -0.013  0.00  0.00    -0.009 C 
ATOM     21  C   UNL     1      -5.455  -9.133  -0.975  0.00  0.00    +0.008 C 
ATOM     22  C   UNL     1      -6.064  -7.756  -0.710  0.00  0.00    +0.037 C 
ATOM     23  C   UNL     1      -5.275 -11.474  -0.106  0.00  0.00    +0.008 C 
ATOM     24  H   UNL     1      -3.281  -2.696  -3.191  0.00  0.00    +0.150 HD
ENDROOT
BRANCH  17  25
ATOM     25  C   UNL     1     -11.372  -3.686  -1.392  0.00  0.00    +0.054 C 
ATOM     26  C   UNL     1     -12.281  -3.652  -0.161  0.00  0.00    +0.015 C 
BRANCH  25  27
ATOM     27  C   UNL     1     -12.212  -3.974  -2.638  0.00  0.00    +0.007 C 
ATOM     28  C   UNL     1     -13.179  -2.813  -2.880  0.00  0.00    +0.004 C 
ENDBRANCH  25  27
ENDBRANCH  17  25
BRANCH   1  29
ATOM     29  C   UNL     1      -1.443  -2.028  -2.364  0.00  0.00    +0.106 C 
BRANCH  29  30
ATOM     30  C   UNL     1      -0.979  -1.840  -3.810  0.00  0.00    +0.018 C 
BRANCH  30  32
ATOM     31  C   UNL     1       0.921  -1.123  -5.266  0.00  0.00    +0.004 C 
ATOM     32  C   UNL     1       0.457  -1.311  -3.820  0.00  0.00    -0.002 C 
ENDBRANCH  30  32
ENDBRANCH  29  30
ENDBRANCH   1  29
TORSDOF 5
