REMARK  Name = ZINC35621540
REMARK  13 active torsions:
REMARK  status: ('A' for Active; 'I' for Inactive)
REMARK    1  A    between atoms: C_1  and  C_2
REMARK    2  A    between atoms: C_2  and  C_3
REMARK    3  A    between atoms: C_3  and  C_4
REMARK    4  A    between atoms: C_5  and  C_18
REMARK    5  A    between atoms: N_7  and  C_9
REMARK    6  A    between atoms: C_12  and  C_16
REMARK    7  A    between atoms: C_14  and  C_15
REMARK    8  A    between atoms: C_19  and  N_32
REMARK    9  A    between atoms: N_22  and  C_25
REMARK   10  A    between atoms: C_28  and  C_31
REMARK   11  A    between atoms: N_32  and  C_33
REMARK   12  A    between atoms: N_32  and  C_34
REMARK   13  A    between atoms: C_34  and  C_35
REMARK                            x       y       z     vdW  Elec       q    Type
REMARK                         _______ _______ _______ _____ _____    ______ ____
ROOT
ATOM      1  C   UNL     1      -0.562  -1.874   2.911  0.00  0.00    +0.078 C 
ATOM      2  C   UNL     1      -1.841  -1.540   2.552  0.00  0.00    +0.106 C 
ATOM      3  C   UNL     1      -2.482  -0.986   3.760  0.00  0.00    +0.272 C 
ATOM      4  O   UNL     1      -3.624  -0.579   3.833  0.00  0.00    -0.268 OA
ATOM      5  N   UNL     1      -1.591  -1.009   4.767  0.00  0.00    -0.201 N 
ATOM      6  C   UNL     1      -0.426  -1.529   4.342  0.00  0.00    +0.260 C 
ATOM      7  O   UNL     1       0.570  -1.686   5.019  0.00  0.00    -0.269 OA
ENDROOT
BRANCH   5   8
ATOM      8  C   UNL     1      -1.842  -0.561   6.071  0.00  0.00    +0.045 A 
ATOM      9  C   UNL     1      -3.090  -0.051   6.403  0.00  0.00    +0.024 A 
ATOM     10  C   UNL     1      -3.334   0.389   7.689  0.00  0.00    +0.005 A 
ATOM     11  C   UNL     1      -2.337   0.323   8.645  0.00  0.00    -0.050 A 
ATOM     12  C   UNL     1      -1.093  -0.184   8.317  0.00  0.00    +0.005 A 
ATOM     13  C   UNL     1      -0.844  -0.631   7.034  0.00  0.00    +0.024 A 
ATOM     14  C   UNL     1      -2.606   0.806  10.047  0.00  0.00    +0.044 C 
ENDBRANCH   5   8
BRANCH   1  16
ATOM     15  C   UNL     1       1.419  -1.764   1.264  0.00  0.00    +0.075 A 
ATOM     16  C   UNL     1       0.474  -2.468   2.042  0.00  0.00    +0.078 A 
ATOM     17  C   UNL     1       0.702  -3.821   1.838  0.00  0.00    +0.282 A 
ATOM     18  N   UNL     1       1.743  -3.925   0.972  0.00  0.00    -0.196 N 
ATOM     19  N   UNL     1       2.160  -2.633   0.631  0.00  0.00    -0.167 NA
ATOM     20  O   UNL     1       0.016  -4.847   2.399  0.00  0.00    -0.265 OA
BRANCH  18  21
ATOM     21  C   UNL     1       2.300  -5.119   0.496  0.00  0.00    +0.072 A 
ATOM     22  C   UNL     1       2.608  -6.144   1.381  0.00  0.00    +0.028 A 
ATOM     23  C   UNL     1       3.157  -7.320   0.910  0.00  0.00    +0.005 A 
ATOM     24  C   UNL     1       3.400  -7.478  -0.442  0.00  0.00    -0.050 A 
ATOM     25  C   UNL     1       3.095  -6.460  -1.326  0.00  0.00    +0.008 A 
ATOM     26  C   UNL     1       2.541  -5.283  -0.861  0.00  0.00    -0.025 A 
ATOM     27  C   UNL     1       2.203  -4.176  -1.826  0.00  0.00    +0.046 C 
ATOM     28  C   UNL     1       4.000  -8.763  -0.953  0.00  0.00    +0.044 C 
ENDBRANCH  18  21
BRANCH  15  29
ATOM     29  C   UNL     1       1.546  -0.265   1.173  0.00  0.00    +0.058 C 
BRANCH  29  31
ATOM     30  C   UNL     1       0.790   1.776  -0.053  0.00  0.00    +0.004 C 
ATOM     31  C   UNL     1       0.661   0.254   0.038  0.00  0.00    +0.003 C 
ENDBRANCH  29  31
ENDBRANCH  15  29
ENDBRANCH   1  16
BRANCH   2  32
ATOM     32  N   UNL     1      -2.419  -1.692   1.299  0.00  0.00    -0.329 N 
ATOM     33  C   UNL     1      -1.641  -2.262   0.197  0.00  0.00    +0.129 C 
BRANCH  32  34
ATOM     34  C   UNL     1      -3.809  -1.282   1.079  0.00  0.00    +0.101 C 
ATOM     35  C   UNL     1      -3.844   0.182   0.636  0.00  0.00    +0.024 C 
ENDBRANCH  32  34
ENDBRANCH   2  32
TORSDOF 7
