REMARK  Name = ZINC39944834
REMARK  14 active torsions:
REMARK  status: ('A' for Active; 'I' for Inactive)
REMARK    1  A    between atoms: C_1  and  C_2
REMARK    2  A    between atoms: C_2  and  C_3
REMARK    3  A    between atoms: C_3  and  C_4
REMARK    4  A    between atoms: C_4  and  C_5
REMARK    5  A    between atoms: C_5  and  C_6
REMARK    6  A    between atoms: C_6  and  C_7
REMARK    7  A    between atoms: C_11  and  S_13
REMARK    8  A    between atoms: S_13  and  C_14
REMARK    9  A    between atoms: C_14  and  C_15
REMARK   10  A    between atoms: C_15  and  C_17
REMARK   11  A    between atoms: N_28  and  C_35
REMARK   12  A    between atoms: N_31  and  C_32
REMARK   13  A    between atoms: C_32  and  C_33
REMARK   14  A    between atoms: C_33  and  C_34
REMARK                            x       y       z     vdW  Elec       q    Type
REMARK                         _______ _______ _______ _____ _____    ______ ____
ROOT
ATOM      1  C   UNL     1      -4.241  -4.644   0.018  0.00  0.00    +0.133 A 
ATOM      2  N   UNL     1      -4.825  -4.864   1.181  0.00  0.00    -0.214 NA
ATOM      3  C   UNL     1      -6.067  -5.323   1.235  0.00  0.00    +0.154 A 
ATOM      4  C   UNL     1      -6.752  -5.571   0.030  0.00  0.00    +0.114 A 
ATOM      5  C   UNL     1      -6.093  -5.323  -1.183  0.00  0.00    +0.115 A 
ATOM      6  N   UNL     1      -4.844  -4.857  -1.135  0.00  0.00    -0.225 NA
ATOM      7  C   UNL     1      -8.126  -6.077   0.096  0.00  0.00    +0.268 A 
ATOM      8  O   UNL     1      -8.758  -6.307  -0.918  0.00  0.00    -0.267 OA
ATOM      9  N   UNL     1      -8.671  -6.283   1.316  0.00  0.00    -0.263 N 
ATOM     10  C   UNL     1      -7.977  -6.031   2.438  0.00  0.00    +0.333 A 
ATOM     11  O   UNL     1      -8.513  -6.233   3.510  0.00  0.00    -0.246 OA
ATOM     12  N   UNL     1      -6.715  -5.566   2.427  0.00  0.00    -0.278 N 
ATOM     13  C   UNL     1     -10.042  -6.788   1.417  0.00  0.00    +0.157 C 
ENDROOT
BRANCH   1  14
ATOM     14  C   UNL     1      -2.827  -4.123   0.007  0.00  0.00    +0.076 C 
BRANCH  14  15
ATOM     15  C   UNL     1      -2.848  -2.593   0.015  0.00  0.00    +0.008 C 
BRANCH  15  16
ATOM     16  C   UNL     1      -1.413  -2.063   0.004  0.00  0.00    +0.000 C 
BRANCH  16  17
ATOM     17  C   UNL     1      -1.433  -0.534   0.013  0.00  0.00    -0.000 C 
BRANCH  17  19
ATOM     18  C   UNL     1      -0.019   1.526   0.010  0.00  0.00    +0.004 C 
ATOM     19  C   UNL     1       0.002  -0.004   0.002  0.00  0.00    -0.003 C 
ENDBRANCH  17  19
ENDBRANCH  16  17
ENDBRANCH  15  16
ENDBRANCH  14  15
ENDBRANCH   1  14
BRANCH   5  20
ATOM     20  S   UNL     1      -6.894  -5.612  -2.726  0.00  0.00    -0.097 S 
BRANCH  20  21
ATOM     21  C   UNL     1      -5.648  -5.148  -3.961  0.00  0.00    +0.155 C 
BRANCH  21  22
ATOM     22  C   UNL     1      -6.212  -5.351  -5.344  0.00  0.00    +0.172 C 
ATOM     23  O   UNL     1      -7.344  -5.768  -5.483  0.00  0.00    -0.291 OA
BRANCH  22  24
ATOM     24  C   UNL     1      -5.425  -5.056  -6.477  0.00  0.00    +0.024 C 
ATOM     25  C   UNL     1      -5.791  -5.179  -7.805  0.00  0.00    +0.006 A 
ATOM     26  C   UNL     1      -6.980  -5.609  -8.440  0.00  0.00    +0.010 A 
ATOM     27  C   UNL     1      -7.063  -5.630  -9.789  0.00  0.00    +0.001 A 
ATOM     28  C   UNL     1      -5.999  -5.236 -10.616  0.00  0.00    +0.002 A 
ATOM     29  C   UNL     1      -4.821  -4.810 -10.111  0.00  0.00    +0.026 A 
ATOM     30  C   UNL     1      -4.647  -4.756  -8.650  0.00  0.00    +0.043 A 
ATOM     31  N   UNL     1      -3.640  -4.394  -7.907  0.00  0.00    -0.380 N 
ATOM     32  C   UNL     1      -4.005  -4.532  -6.494  0.00  0.00    +0.152 C 
ATOM     33  H   UNL     1      -2.784  -4.080  -8.237  0.00  0.00    +0.160 HD
ENDBRANCH  22  24
ENDBRANCH  21  22
ENDBRANCH  20  21
ENDBRANCH   5  20
BRANCH  12  34
ATOM     34  C   UNL     1      -6.023  -5.316   3.694  0.00  0.00    +0.128 C 
BRANCH  34  35
ATOM     35  C   UNL     1      -6.280  -3.876   4.140  0.00  0.00    +0.018 C 
ATOM     36  C   UNL     1      -5.557  -3.615   5.463  0.00  0.00    +0.005 C 
ENDBRANCH  34  35
ENDBRANCH  12  34
TORSDOF 11
