REMARK  Name = ZINC56121108
REMARK  3 active torsions:
REMARK  status: ('A' for Active; 'I' for Inactive)
REMARK    1  A    between atoms: C_6  and  N_7
REMARK    2  A    between atoms: C_10  and  C_13
REMARK    3  A    between atoms: N_15  and  C_16
REMARK                            x       y       z     vdW  Elec       q    Type
REMARK                         _______ _______ _______ _____ _____    ______ ____
ROOT
ATOM      1  C   UNL     1      -4.504  -0.970   1.181  0.00  0.00    +0.229 C 
ATOM      2  O   UNL     1      -4.623  -1.750   2.102  0.00  0.00    -0.275 OA
ATOM      3  N   UNL     1      -5.289   0.123   1.118  0.00  0.00    -0.285 N 
ATOM      4  H   UNL     1      -5.249   0.705   0.343  0.00  0.00    +0.155 HD
ENDROOT
BRANCH   3   5
ATOM      5  C   UNL     1      -6.164   0.419   2.171  0.00  0.00    +0.034 A 
ATOM      6  C   UNL     1      -5.793   0.134   3.483  0.00  0.00    +0.027 A 
ATOM      7  C   UNL     1      -6.642   0.419   4.530  0.00  0.00    +0.049 A 
ATOM      8  C   UNL     1      -7.882   0.996   4.284  0.00  0.00    +0.139 A 
ATOM      9  C   UNL     1      -8.261   1.285   2.961  0.00  0.00    +0.019 A 
ATOM     10  C   UNL     1      -7.391   0.998   1.905  0.00  0.00    +0.035 A 
ATOM     11  C   UNL     1      -9.572   1.894   2.714  0.00  0.00    +0.018 A 
ATOM     12  C   UNL     1     -10.369   2.154   3.781  0.00  0.00    +0.092 A 
ATOM     13  C   UNL     1      -9.924   1.837   5.083  0.00  0.00    +0.337 A 
ATOM     14  O   UNL     1     -10.649   2.074   6.032  0.00  0.00    -0.245 OA
ATOM     15  O   UNL     1      -8.723   1.280   5.301  0.00  0.00    -0.422 OA
ENDBRANCH   3   5
BRANCH   1  19
ATOM     16  N   UNL     1      -1.192  -0.705   0.029  0.00  0.00    -0.271 N 
ATOM     17  C   UNL     1      -1.279  -2.166  -0.080  0.00  0.00    +0.115 C 
ATOM     18  C   UNL     1      -2.702  -2.530   0.397  0.00  0.00    +0.041 C 
ATOM     19  C   UNL     1      -3.476  -1.223   0.108  0.00  0.00    +0.163 C 
ATOM     20  C   UNL     1      -2.411  -0.149   0.137  0.00  0.00    +0.232 C 
ATOM     21  O   UNL     1      -2.626   1.040   0.238  0.00  0.00    -0.274 OA
BRANCH  16  27
ATOM     22  C   UNL     1      -0.016   1.406   0.032  0.00  0.00    +0.026 A 
ATOM     23  C   UNL     1       1.168   2.116   0.031  0.00  0.00    +0.040 A 
ATOM     24  C   UNL     1       2.380   1.445   0.027  0.00  0.00    +0.124 A 
ATOM     25  C   UNL     1       2.406   0.060   0.023  0.00  0.00    +0.040 A 
ATOM     26  C   UNL     1       1.224  -0.654   0.024  0.00  0.00    +0.026 A 
ATOM     27  C   UNL     1       0.008   0.018   0.029  0.00  0.00    +0.036 A 
ATOM     28  F   UNL     1       3.537   2.141   0.026  0.00  0.00    -0.205 F 
ENDBRANCH  16  27
ENDBRANCH   1  19
TORSDOF 3
