REMARK  Name = ZINC37643149
REMARK  7 active torsions:
REMARK  status: ('A' for Active; 'I' for Inactive)
REMARK    1  A    between atoms: C_1  and  C_2
REMARK    2  A    between atoms: C_7  and  N_8
REMARK    3  A    between atoms: N_8  and  C_9
REMARK    4  A    between atoms: C_9  and  C_11
REMARK    5  A    between atoms: C_9  and  C_12
REMARK    6  A    between atoms: C_13  and  C_21
REMARK    7  A    between atoms: C_15  and  C_20
REMARK                            x       y       z     vdW  Elec       q    Type
REMARK                         _______ _______ _______ _____ _____    ______ ____
ROOT
ATOM      1  C   UNL     1       0.280  -0.951   4.005  0.00  0.00    +0.105 C 
ATOM      2  C   UNL     1       1.585  -1.401   4.665  0.00  0.00    +0.033 C 
ENDROOT
BRANCH   1   3
ATOM      3  C   UNL     1      -0.444  -0.001   4.924  0.00  0.00    +0.058 A 
ATOM      4  C   UNL     1      -1.656  -0.331   5.450  0.00  0.00    +0.050 A 
ATOM      5  N   UNL     1      -2.284   0.523   6.262  0.00  0.00    -0.239 NA
ATOM      6  C   UNL     1      -1.764   1.680   6.571  0.00  0.00    +0.107 A 
ATOM      7  N   UNL     1      -0.568   2.067   6.083  0.00  0.00    -0.311 N 
ATOM      8  H   UNL     1      -0.202   2.931   6.326  0.00  0.00    +0.170 HD
ATOM      9  C   UNL     1       0.121   1.246   5.261  0.00  0.00    +0.257 A 
ATOM     10  O   UNL     1       1.206   1.579   4.816  0.00  0.00    -0.267 OA
ATOM     11  C   UNL     1      -2.517   2.605   7.492  0.00  0.00    +0.086 C 
ATOM     12  C   UNL     1      -2.288  -1.658   5.116  0.00  0.00    +0.066 C 
ENDBRANCH   1   3
BRANCH   1  13
ATOM     13  N   UNL     1       0.580  -0.274   2.741  0.00  0.00    -0.337 N 
ATOM     14  H   UNL     1       0.657   0.693   2.714  0.00  0.00    +0.147 HD
BRANCH  13  21
ATOM     15  C   UNL     1       1.159   1.120   0.330  0.00  0.00    +0.045 C 
ATOM     16  C   UNL     1       1.039  -0.381   0.374  0.00  0.00    -0.029 A 
ATOM     17  C   UNL     1       1.218  -1.123  -0.777  0.00  0.00    +0.019 A 
ATOM     18  C   UNL     1       1.108  -2.501  -0.738  0.00  0.00    +0.014 A 
ATOM     19  C   UNL     1       0.819  -3.141   0.454  0.00  0.00    +0.016 A 
ATOM     20  C   UNL     1       0.639  -2.405   1.609  0.00  0.00    +0.024 A 
ATOM     21  C   UNL     1       0.755  -1.021   1.573  0.00  0.00    +0.031 A 
ATOM     22  I   UNL     1       1.379  -3.622  -2.487  0.00  0.00    -0.044 I 
ENDBRANCH  13  21
ENDBRANCH   1  13
TORSDOF 3
