REMARK  Name = ZINC49715853
REMARK  3 active torsions:
REMARK  status: ('A' for Active; 'I' for Inactive)
REMARK    1  A    between atoms: C_3  and  C_9
REMARK    2  A    between atoms: C_4  and  N_8
REMARK    3  A    between atoms: C_6  and  N_7
REMARK                            x       y       z     vdW  Elec       q    Type
REMARK                         _______ _______ _______ _____ _____    ______ ____
ROOT
ATOM      1  C   UNL     1       0.188   1.032  -0.917  0.00  0.00    +0.023 A 
ATOM      2  C   UNL     1       1.355   1.740  -0.940  0.00  0.00    +0.017 A 
ATOM      3  C   UNL     1       2.380   1.431  -0.040  0.00  0.00    +0.058 A 
ATOM      4  C   UNL     1       2.203   0.390   0.888  0.00  0.00    +0.039 A 
ATOM      5  C   UNL     1       1.014  -0.321   0.901  0.00  0.00    +0.046 A 
ATOM      6  C   UNL     1       0.006  -0.001   0.000  0.00  0.00    +0.026 A 
ENDROOT
BRANCH   3   7
ATOM      7  C   UNL     1       3.639   2.193  -0.065  0.00  0.00    +0.249 C 
ATOM      8  O   UNL     1       4.704   1.610   0.011  0.00  0.00    -0.270 OA
ATOM      9  N   UNL     1       3.611   3.536  -0.172  0.00  0.00    -0.294 N 
ATOM     10  C   UNL     1       2.411   4.398  -0.159  0.00  0.00    +0.112 C 
ATOM     11  C   UNL     1       2.951   5.856  -0.291  0.00  0.00    +0.008 C 
ATOM     12  C   UNL     1       3.446   5.941  -1.769  0.00  0.00    +0.007 C 
ATOM     13  C   UNL     1       4.659   4.983  -1.817  0.00  0.00    +0.023 C 
ATOM     14  C   UNL     1       4.787   4.441  -0.321  0.00  0.00    +0.077 C 
ATOM     15  C   UNL     1       4.311   5.698   0.482  0.00  0.00    +0.027 C 
ENDBRANCH   3   7
BRANCH   6  16
ATOM     16  N   UNL     1      -1.187  -0.714   0.013  0.00  0.00    -0.358 N 
ATOM     17  H   UNL     1      -1.892  -0.492  -0.615  0.00  0.00    +0.142 HD
ATOM     18  H   UNL     1      -1.315  -1.434   0.651  0.00  0.00    +0.142 HD
ENDBRANCH   6  16
BRANCH   4  19
ATOM     19  N   UNL     1       3.215   0.074   1.786  0.00  0.00    -0.357 N 
ATOM     20  H   UNL     1       4.014   0.623   1.828  0.00  0.00    +0.142 HD
ATOM     21  H   UNL     1       3.124  -0.694   2.370  0.00  0.00    +0.142 HD
ENDBRANCH   4  19
TORSDOF 3
