REMARK  Name = ZINC15072066
REMARK  9 active torsions:
REMARK  status: ('A' for Active; 'I' for Inactive)
REMARK    1  A    between atoms: C_1  and  C_2
REMARK    2  A    between atoms: C_2  and  C_3
REMARK    3  A    between atoms: C_4  and  C_18
REMARK    4  A    between atoms: C_8  and  C_17
REMARK    5  A    between atoms: N_9  and  C_10
REMARK    6  A    between atoms: C_10  and  C_11
REMARK    7  A    between atoms: C_11  and  N_73
REMARK    8  A    between atoms: N_20  and  C_21
REMARK    9  A    between atoms: C_21  and  C_22
REMARK                            x       y       z     vdW  Elec       q    Type
REMARK                         _______ _______ _______ _____ _____    ______ ____
ROOT
ATOM      1  C   UNL     1      -0.627   2.888  -1.519  0.00  0.00    +0.034 A 
ATOM      2  C   UNL     1      -1.103   3.297  -2.748  0.00  0.00    +0.103 A 
ATOM      3  C   UNL     1      -1.908   2.349  -3.533  0.00  0.00    +0.194 A 
ATOM      4  O   UNL     1      -2.356   2.657  -4.627  0.00  0.00    -0.287 OA
ATOM      5  C   UNL     1      -2.149   1.067  -2.980  0.00  0.00    +0.072 A 
ATOM      6  C   UNL     1      -1.634   0.762  -1.771  0.00  0.00    +0.019 A 
ATOM      7  N   UNL     1      -0.898   1.654  -1.062  0.00  0.00    -0.349 N 
ATOM      8  C   UNL     1      -1.889  -0.605  -1.189  0.00  0.00    +0.063 C 
ENDROOT
BRANCH   2   9
ATOM      9  C   UNL     1      -0.812   4.646  -3.260  0.00  0.00    +0.249 C 
ATOM     10  O   UNL     1       0.184   4.840  -3.932  0.00  0.00    -0.270 OA
ATOM     11  N   UNL     1      -1.648   5.667  -2.985  0.00  0.00    -0.311 N 
ATOM     12  H   UNL     1      -2.442   5.512  -2.450  0.00  0.00    +0.149 HD
BRANCH  11  13
ATOM     13  C   UNL     1      -1.359   7.009  -3.495  0.00  0.00    +0.108 C 
BRANCH  13  14
ATOM     14  C   UNL     1      -2.456   7.974  -3.042  0.00  0.00    +0.012 C 
ATOM     15  C   UNL     1      -3.784   7.575  -3.687  0.00  0.00    -0.006 C 
ATOM     16  C   UNL     1      -4.882   8.540  -3.235  0.00  0.00    +0.007 C 
ATOM     17  C   UNL     1      -4.517   9.963  -3.660  0.00  0.00    -0.010 C 
ATOM     18  C   UNL     1      -4.382  10.022  -5.183  0.00  0.00    +0.007 C 
ATOM     19  C   UNL     1      -3.284   9.057  -5.636  0.00  0.00    -0.010 C 
ATOM     20  C   UNL     1      -3.650   7.633  -5.210  0.00  0.00    +0.007 C 
ATOM     21  C   UNL     1      -1.956   9.457  -4.990  0.00  0.00    +0.007 C 
ATOM     22  C   UNL     1      -2.091   9.398  -3.467  0.00  0.00    -0.006 C 
ATOM     23  C   UNL     1      -3.188  10.363  -3.015  0.00  0.00    +0.007 C 
ENDBRANCH  13  14
ENDBRANCH  11  13
ENDBRANCH   2   9
BRANCH   1  25
ATOM     24  C   UNL     1       1.682   3.651  -1.034  0.00  0.00    +0.010 C 
ATOM     25  C   UNL     1       0.203   3.830  -0.685  0.00  0.00    +0.051 C 
ENDBRANCH   1  25
BRANCH   7  26
ATOM     26  C   UNL     1      -0.375   1.255   0.247  0.00  0.00    +0.103 C 
BRANCH  26  27
ATOM     27  C   UNL     1      -1.439   1.504   1.318  0.00  0.00    -0.057 C 
BRANCH  27  33
ATOM     28  C   UNL     1      -0.687  -0.346   2.687  0.00  0.00    -0.079 C 
ATOM     29  C   UNL     1      -0.007  -0.706   4.010  0.00  0.00    -0.019 C 
ATOM     30  C   UNL     1      -0.900  -0.265   5.174  0.00  0.00    -0.004 C 
ATOM     31  C   UNL     1      -1.161   1.240   5.064  0.00  0.00    -0.019 C 
ATOM     32  C   UNL     1      -1.808   1.543   3.711  0.00  0.00    -0.079 C 
ATOM     33  N   UNL     1      -0.888   1.118   2.634  0.00  0.00    +0.381 N 
ATOM     34  H   UNL     1       0.017   1.584   2.766  0.00  0.00    -0.082 HD
ENDBRANCH  27  33
ENDBRANCH  26  27
ENDBRANCH   7  26
TORSDOF 7
