REMARK  Name = ZINC06006707
REMARK  10 active torsions:
REMARK  status: ('A' for Active; 'I' for Inactive)
REMARK    1  A    between atoms: C_1  and  C_2
REMARK    2  A    between atoms: C_4  and  C_25
REMARK    3  A    between atoms: C_13  and  N_15
REMARK    4  A    between atoms: N_15  and  C_16
REMARK    5  A    between atoms: C_27  and  O_35
REMARK    6  A    between atoms: C_28  and  O_33
REMARK    7  A    between atoms: C_29  and  O_31
REMARK    8  A    between atoms: O_31  and  C_32
REMARK    9  A    between atoms: O_33  and  C_34
REMARK   10  A    between atoms: O_35  and  C_36
REMARK                            x       y       z     vdW  Elec       q    Type
REMARK                         _______ _______ _______ _____ _____    ______ ____
ROOT
ATOM      1  C   UNL     1       4.962   1.246  -0.189  0.00  0.00    +0.010 C 
ATOM      2  C   UNL     1       3.618   1.927  -0.458  0.00  0.00    +0.020 C 
ATOM      3  C   UNL     1       2.477   1.010  -0.012  0.00  0.00    +0.057 C 
ATOM      4  C   UNL     1       1.181   1.781   0.000  0.00  0.00    +0.006 A 
ATOM      5  C   UNL     1      -0.013   1.076   0.008  0.00  0.00    +0.057 A 
ATOM      6  C   UNL     1      -1.222   1.747   0.017  0.00  0.00    +0.167 A 
ATOM      7  C   UNL     1      -1.241   3.140   0.033  0.00  0.00    +0.170 A 
ATOM      8  C   UNL     1      -0.049   3.842   0.025  0.00  0.00    +0.095 A 
ATOM      9  C   UNL     1       1.165   3.164   0.007  0.00  0.00    +0.126 A 
ATOM     10  O   UNL     1       2.313   3.893  -0.006  0.00  0.00    -0.506 OA
ATOM     11  C   UNL     1       3.529   3.231   0.345  0.00  0.00    +0.125 C 
ATOM     12  O   UNL     1      -2.540   3.558   0.048  0.00  0.00    -0.452 OA
ATOM     13  C   UNL     1      -3.314   2.419  -0.382  0.00  0.00    +0.466 C 
ATOM     14  O   UNL     1      -2.511   1.294   0.020  0.00  0.00    -0.453 OA
ENDROOT
BRANCH   3  15
ATOM     15  C   UNL     1       2.361  -0.148  -0.969  0.00  0.00    -0.032 A 
ATOM     16  C   UNL     1       2.091   0.085  -2.305  0.00  0.00    +0.054 A 
ATOM     17  C   UNL     1       1.990  -0.978  -3.190  0.00  0.00    +0.165 A 
ATOM     18  C   UNL     1       2.150  -2.280  -2.730  0.00  0.00    +0.204 A 
ATOM     19  C   UNL     1       2.416  -2.511  -1.386  0.00  0.00    +0.165 A 
ATOM     20  C   UNL     1       2.521  -1.442  -0.508  0.00  0.00    +0.054 A 
BRANCH  19  21
ATOM     21  O   UNL     1       2.572  -3.783  -0.931  0.00  0.00    -0.491 OA
ATOM     22  C   UNL     1       2.843  -3.945   0.463  0.00  0.00    +0.277 C 
ENDBRANCH  19  21
BRANCH  18  23
ATOM     23  O   UNL     1       2.047  -3.326  -3.595  0.00  0.00    -0.488 OA
ATOM     24  C   UNL     1       0.748  -3.896  -3.772  0.00  0.00    +0.277 C 
ENDBRANCH  18  23
BRANCH  17  25
ATOM     25  O   UNL     1       1.730  -0.747  -4.504  0.00  0.00    -0.491 OA
ATOM     26  C   UNL     1       1.578   0.616  -4.906  0.00  0.00    +0.277 C 
ENDBRANCH  17  25
ENDBRANCH   3  15
BRANCH  11  27
ATOM     27  N   UNL     1       4.673   4.093   0.018  0.00  0.00    +0.405 N 
ATOM     28  H   UNL     1       5.477   3.483  -0.420  0.00  0.00    -0.080 HD
ATOM     29  H   UNL     1       4.360   4.861  -0.704  0.00  0.00    -0.080 HD
BRANCH  27  30
ATOM     30  C   UNL     1       5.190   4.760   1.220  0.00  0.00    -0.067 C 
ATOM     31  C   UNL     1       4.387   6.036   1.480  0.00  0.00    -0.016 C 
ATOM     32  C   UNL     1       4.925   6.731   2.732  0.00  0.00    -0.002 C 
ATOM     33  C   UNL     1       6.398   7.089   2.524  0.00  0.00    -0.000 C 
ATOM     34  C   UNL     1       7.201   5.812   2.265  0.00  0.00    -0.002 C 
ATOM     35  C   UNL     1       6.663   5.117   1.012  0.00  0.00    -0.016 C 
ENDBRANCH  27  30
ENDBRANCH  11  27
TORSDOF 6
