REMARK  Name = ZINC02857719
REMARK  13 active torsions:
REMARK  status: ('A' for Active; 'I' for Inactive)
REMARK    1  A    between atoms: C_1  and  C_2
REMARK    2  A    between atoms: C_2  and  C_3
REMARK    3  A    between atoms: C_2  and  C_4
REMARK    4  A    between atoms: C_2  and  C_5
REMARK    5  A    between atoms: C_12  and  N_16
REMARK    6  A    between atoms: C_13  and  C_14
REMARK    7  A    between atoms: C_17  and  C_19
REMARK    8  A    between atoms: C_19  and  S_20
REMARK    9  A    between atoms: S_20  and  C_21
REMARK   10  A    between atoms: C_24  and  C_29
REMARK   11  A    between atoms: N_25  and  C_26
REMARK   12  A    between atoms: C_26  and  C_27
REMARK   13  A    between atoms: C_34  and  O_35
REMARK                            x       y       z     vdW  Elec       q    Type
REMARK                         _______ _______ _______ _____ _____    ______ ____
ROOT
ATOM      1  N   UNL     1       5.255  -0.610  -5.715  0.00  0.00    -0.278 N 
ATOM      2  C   UNL     1       6.541  -0.382  -5.385  0.00  0.00    +0.228 C 
ATOM      3  O   UNL     1       6.829  -0.067  -4.250  0.00  0.00    -0.275 OA
ATOM      4  H   UNL     1       5.024  -0.862  -6.623  0.00  0.00    +0.155 HD
ENDROOT
BRANCH   1  11
ATOM      5  C   UNL     1       0.730  -0.402  -1.239  0.00  0.00    -0.000 C 
ATOM      6  C   UNL     1      -0.012   0.069  -2.494  0.00  0.00    +0.009 C 
ATOM      7  C   UNL     1       0.546  -0.645  -3.727  0.00  0.00    +0.037 C 
ATOM      8  C   UNL     1       2.058  -0.479  -3.743  0.00  0.00    -0.018 A 
ATOM      9  C   UNL     1       2.738  -0.125  -2.630  0.00  0.00    -0.004 A 
ATOM     10  S   UNL     1       4.431  -0.060  -3.140  0.00  0.00    -0.077 S 
ATOM     11  C   UNL     1       4.259  -0.483  -4.756  0.00  0.00    +0.090 A 
ATOM     12  C   UNL     1       2.896  -0.676  -4.913  0.00  0.00    +0.084 A 
ATOM     13  C   UNL     1       2.165   0.145  -1.273  0.00  0.00    +0.047 C 
BRANCH   5  15
ATOM     14  C   UNL     1      -0.022   1.649  -0.027  0.00  0.00    +0.011 C 
ATOM     15  C   UNL     1       0.012   0.120   0.007  0.00  0.00    -0.035 C 
ATOM     16  C   UNL     1       0.758  -0.346   1.259  0.00  0.00    +0.011 C 
ATOM     17  C   UNL     1      -1.419  -0.421   0.035  0.00  0.00    +0.011 C 
ENDBRANCH   5  15
BRANCH  12  18
ATOM     18  C   UNL     1       2.337  -1.055  -6.175  0.00  0.00    +0.102 C 
ATOM     19  N   UNL     1       1.894  -1.356  -7.177  0.00  0.00    -0.191 NA
ENDBRANCH  12  18
ENDBRANCH   1  11
BRANCH   2  20
ATOM     20  C   UNL     1       7.622  -0.520  -6.426  0.00  0.00    +0.173 C 
BRANCH  20  21
ATOM     21  S   UNL     1       9.233  -0.151  -5.678  0.00  0.00    -0.077 S 
BRANCH  21  22
ATOM     22  C   UNL     1      10.375  -0.353  -7.004  0.00  0.00    +0.193 A 
ATOM     23  N   UNL     1      10.083  -0.689  -8.241  0.00  0.00    -0.122 NA
ATOM     24  N   UNL     1      11.154  -0.746  -8.948  0.00  0.00    -0.128 NA
ATOM     25  C   UNL     1      12.197  -0.450  -8.207  0.00  0.00    +0.169 A 
ATOM     26  N   UNL     1      11.729  -0.184  -6.940  0.00  0.00    -0.298 N 
BRANCH  25  27
ATOM     27  C   UNL     1      13.605  -0.406  -8.650  0.00  0.00    +0.061 A 
ATOM     28  C   UNL     1      14.408   0.689  -8.330  0.00  0.00    +0.015 A 
ATOM     29  C   UNL     1      15.723   0.724  -8.747  0.00  0.00    +0.001 A 
ATOM     30  C   UNL     1      16.249  -0.323  -9.483  0.00  0.00    +0.004 A 
ATOM     31  C   UNL     1      15.464  -1.413  -9.807  0.00  0.00    +0.046 A 
ATOM     32  C   UNL     1      14.144  -1.466  -9.390  0.00  0.00    +0.128 A 
BRANCH  32  33
ATOM     33  O   UNL     1      13.373  -2.540  -9.703  0.00  0.00    -0.506 OA
ATOM     34  H   UNL     1      12.901  -2.455 -10.542  0.00  0.00    +0.292 HD
ENDBRANCH  32  33
ENDBRANCH  25  27
BRANCH  26  35
ATOM     35  C   UNL     1      12.520   0.197  -5.767  0.00  0.00    +0.152 C 
BRANCH  35  36
ATOM     36  C   UNL     1      13.049  -1.043  -5.093  0.00  0.00    -0.013 C 
ATOM     37  C   UNL     1      14.334  -1.173  -4.878  0.00  0.00    +0.005 C 
ENDBRANCH  35  36
ENDBRANCH  26  35
ENDBRANCH  21  22
ENDBRANCH  20  21
ENDBRANCH   2  20
TORSDOF 10
