REMARK  Name = ZINC20493142
REMARK  11 active torsions:
REMARK  status: ('A' for Active; 'I' for Inactive)
REMARK    1  A    between atoms: C_1  and  C_2
REMARK    2  A    between atoms: C_2  and  O_3
REMARK    3  A    between atoms: O_3  and  C_4
REMARK    4  A    between atoms: C_9  and  N_10
REMARK    5  A    between atoms: N_10  and  C_11
REMARK    6  A    between atoms: N_10  and  S_26
REMARK    7  A    between atoms: C_11  and  C_12
REMARK    8  A    between atoms: N_14  and  N_15
REMARK    9  A    between atoms: C_16  and  C_17
REMARK   10  A    between atoms: C_22  and  N_23
REMARK   11  A    between atoms: S_26  and  C_29
REMARK                            x       y       z     vdW  Elec       q    Type
REMARK                         _______ _______ _______ _____ _____    ______ ____
ROOT
ATOM      1  N   UNL     1      -4.017  -1.437  -0.069  0.00  0.00    -0.191 N 
ENDROOT
BRANCH   1   7
ATOM      2  C   UNL     1      -1.615  -1.722  -0.142  0.00  0.00    +0.143 A 
ATOM      3  C   UNL     1      -0.508  -2.553  -0.189  0.00  0.00    +0.047 A 
ATOM      4  C   UNL     1      -0.674  -3.925  -0.222  0.00  0.00    +0.004 A 
ATOM      5  C   UNL     1      -1.944  -4.472  -0.207  0.00  0.00    +0.002 A 
ATOM      6  C   UNL     1      -3.054  -3.649  -0.161  0.00  0.00    +0.028 A 
ATOM      7  C   UNL     1      -2.894  -2.272  -0.122  0.00  0.00    +0.093 A 
BRANCH   2   8
ATOM      8  O   UNL     1      -1.453  -0.371  -0.111  0.00  0.00    -0.490 OA
BRANCH   8  10
ATOM      9  C   UNL     1      -0.130   1.651  -0.093  0.00  0.00    +0.048 C 
ATOM     10  C   UNL     1      -0.112   0.122  -0.134  0.00  0.00    +0.226 C 
ENDBRANCH   8  10
ENDBRANCH   2   8
ENDBRANCH   1   7
BRANCH   1  11
ATOM     11  S   UNL     1      -4.645  -0.804  -1.464  0.00  0.00    +0.075 S 
ATOM     12  O   UNL     1      -5.350   0.373  -1.095  0.00  0.00    -0.150 OA
ATOM     13  O   UNL     1      -3.590  -0.793  -2.416  0.00  0.00    -0.150 OA
BRANCH  11  14
ATOM     14  C   UNL     1      -5.848  -1.946  -2.059  0.00  0.00    +0.109 A 
ATOM     15  C   UNL     1      -5.473  -2.957  -2.923  0.00  0.00    +0.029 A 
ATOM     16  C   UNL     1      -6.417  -3.853  -3.389  0.00  0.00    +0.002 A 
ATOM     17  C   UNL     1      -7.735  -3.738  -2.991  0.00  0.00    +0.000 A 
ATOM     18  C   UNL     1      -8.110  -2.726  -2.127  0.00  0.00    +0.002 A 
ATOM     19  C   UNL     1      -7.166  -1.833  -1.657  0.00  0.00    +0.029 A 
ENDBRANCH  11  14
ENDBRANCH   1  11
BRANCH   1  20
ATOM     20  C   UNL     1      -4.635  -1.123   1.222  0.00  0.00    +0.229 C 
BRANCH  20  21
ATOM     21  C   UNL     1      -3.917   0.043   1.853  0.00  0.00    +0.251 C 
ATOM     22  O   UNL     1      -2.981   0.560   1.280  0.00  0.00    -0.272 OA
ATOM     23  N   UNL     1      -4.316   0.510   3.052  0.00  0.00    -0.206 N 
ATOM     24  H   UNL     1      -5.064   0.096   3.510  0.00  0.00    +0.177 HD
BRANCH  23  25
ATOM     25  N   UNL     1      -3.648   1.593   3.639  0.00  0.00    -0.188 NA
ATOM     26  C   UNL     1      -4.032   2.043   4.794  0.00  0.00    +0.140 C 
BRANCH  26  27
ATOM     27  C   UNL     1      -3.330   3.184   5.411  0.00  0.00    +0.025 A 
ATOM     28  C   UNL     1      -2.178   3.704   4.816  0.00  0.00    +0.012 A 
ATOM     29  C   UNL     1      -1.526   4.771   5.399  0.00  0.00    +0.001 A 
ATOM     30  C   UNL     1      -2.010   5.325   6.571  0.00  0.00    +0.002 A 
ATOM     31  C   UNL     1      -3.150   4.814   7.166  0.00  0.00    +0.033 A 
ATOM     32  C   UNL     1      -3.816   3.752   6.590  0.00  0.00    +0.135 A 
BRANCH  32  33
ATOM     33  N   UNL     1      -5.039   3.212   7.225  0.00  0.00    +0.057 N 
ATOM     34  O   UNL     1      -5.521   3.771   8.183  0.00  0.00    -0.126 OA
ATOM     35  O   UNL     1      -5.557   2.212   6.785  0.00  0.00    -0.126 OA
ENDBRANCH  32  33
ENDBRANCH  26  27
ENDBRANCH  23  25
ENDBRANCH  20  21
ENDBRANCH   1  20
TORSDOF 10
