REMARK  Name = ZINC39609495
REMARK  9 active torsions:
REMARK  status: ('A' for Active; 'I' for Inactive)
REMARK    1  A    between atoms: C_1  and  C_2
REMARK    2  A    between atoms: C_2  and  O_3
REMARK    3  A    between atoms: O_3  and  C_4
REMARK    4  A    between atoms: C_8  and  C_10
REMARK    5  A    between atoms: C_10  and  C_11
REMARK    6  A    between atoms: C_11  and  N_12
REMARK    7  A    between atoms: C_13  and  C_15
REMARK    8  A    between atoms: C_26  and  C_28
REMARK    9  A    between atoms: C_28  and  C_34
REMARK                            x       y       z     vdW  Elec       q    Type
REMARK                         _______ _______ _______ _____ _____    ______ ____
ROOT
ATOM      1  C   UNL     1      -8.596  -6.248   2.329  0.00  0.00    +0.100 C 
ATOM      2  C   UNL     1      -8.281  -7.582   1.615  0.00  0.00    +0.121 C 
ATOM      3  N   UNL     1      -8.106  -8.562   2.712  0.00  0.00    -0.300 N 
ATOM      4  C   UNL     1      -9.151  -8.200   3.700  0.00  0.00    +0.115 C 
ATOM      5  C   UNL     1      -9.170  -6.659   3.695  0.00  0.00    -0.004 C 
ATOM      6  C   UNL     1     -10.601  -6.148   3.842  0.00  0.00    -0.010 C 
ATOM      7  C   UNL     1     -11.130  -6.517   5.231  0.00  0.00    -0.082 C 
ATOM      8  N   UNL     1     -10.268  -5.922   6.259  0.00  0.00    +0.379 N 
ATOM      9  C   UNL     1      -8.917  -6.488   6.170  0.00  0.00    -0.082 C 
ATOM     10  C   UNL     1      -8.294  -6.118   4.821  0.00  0.00    -0.010 C 
ATOM     11  C   UNL     1      -7.202  -9.559   2.794  0.00  0.00    +0.222 C 
ATOM     12  O   UNL     1      -6.356  -9.681   1.934  0.00  0.00    -0.275 OA
ATOM     13  H   UNL     1     -10.223  -4.923   6.121  0.00  0.00    -0.086 HD
ATOM     14  H   UNL     1     -10.653  -6.115   7.172  0.00  0.00    -0.086 HD
ENDROOT
BRANCH  11  15
ATOM     15  C   UNL     1      -7.244 -10.521   3.953  0.00  0.00    +0.044 C 
ATOM     16  C   UNL     1      -6.898  -9.777   5.245  0.00  0.00    +0.016 C 
ATOM     17  C   UNL     1      -5.495  -9.179   5.129  0.00  0.00    +0.001 C 
ATOM     18  C   UNL     1      -4.480 -10.300   4.898  0.00  0.00    +0.000 C 
ATOM     19  C   UNL     1      -4.825 -11.043   3.606  0.00  0.00    +0.001 C 
ATOM     20  C   UNL     1      -6.229 -11.642   3.722  0.00  0.00    +0.016 C 
ATOM     21  C   UNL     1      -8.647 -11.119   4.069  0.00  0.00    +0.021 C 
ENDBRANCH  11  15
BRANCH   1  23
ATOM     22  N   UNL     1      -7.399  -4.094   2.542  0.00  0.00    -0.315 N 
ATOM     23  C   UNL     1      -7.337  -5.440   2.510  0.00  0.00    +0.218 C 
ATOM     24  O   UNL     1      -6.268  -6.001   2.628  0.00  0.00    -0.275 OA
ATOM     25  H   UNL     1      -8.254  -3.646   2.447  0.00  0.00    +0.149 HD
BRANCH  22  26
ATOM     26  C   UNL     1      -6.176  -3.308   2.718  0.00  0.00    +0.109 C 
BRANCH  26  27
ATOM     27  C   UNL     1      -6.522  -1.818   2.718  0.00  0.00    +0.054 C 
BRANCH  27  32
ATOM     28  C   UNL     1      -3.677   0.070   4.336  0.00  0.00    +0.121 A 
ATOM     29  C   UNL     1      -2.950   0.476   3.226  0.00  0.00    +0.045 A 
ATOM     30  C   UNL     1      -3.382   0.138   1.958  0.00  0.00    +0.004 A 
ATOM     31  C   UNL     1      -4.537  -0.604   1.795  0.00  0.00    +0.004 A 
ATOM     32  C   UNL     1      -5.263  -1.009   2.900  0.00  0.00    -0.042 A 
ATOM     33  C   UNL     1      -4.833  -0.678   4.170  0.00  0.00    +0.049 A 
BRANCH  28  34
ATOM     34  O   UNL     1      -3.254   0.402   5.584  0.00  0.00    -0.492 OA
BRANCH  34  36
ATOM     35  C   UNL     1      -1.741   1.447   7.152  0.00  0.00    +0.048 C 
ATOM     36  C   UNL     1      -2.056   1.175   5.680  0.00  0.00    +0.225 C 
ENDBRANCH  34  36
ENDBRANCH  28  34
ENDBRANCH  27  32
ENDBRANCH  26  27
ENDBRANCH  22  26
ENDBRANCH   1  23
TORSDOF 7
