REMARK  Name = ZINC05237670
REMARK  4 active torsions:
REMARK  status: ('A' for Active; 'I' for Inactive)
REMARK    1  A    between atoms: C_1  and  C_2
REMARK    2  A    between atoms: C_15  and  S_17
REMARK    3  A    between atoms: S_17  and  C_18
REMARK    4  A    between atoms: C_18  and  C_19
REMARK                            x       y       z     vdW  Elec       q    Type
REMARK                         _______ _______ _______ _____ _____    ______ ____
ROOT
ATOM      1  C   UNL     1       5.386   6.981  -0.104  0.00  0.00    +0.008 C 
ATOM      2  C   UNL     1       4.321   5.921  -0.388  0.00  0.00    -0.009 C 
ATOM      3  C   UNL     1       4.612   4.666   0.440  0.00  0.00    +0.008 C 
ATOM      4  C   UNL     1       3.707   3.521  -0.016  0.00  0.00    +0.037 C 
ATOM      5  C   UNL     1       2.258   4.001   0.001  0.00  0.00    -0.023 A 
ATOM      6  C   UNL     1       1.969   5.318   0.011  0.00  0.00    -0.004 A 
ATOM      7  S   UNL     1       0.199   5.401   0.029  0.00  0.00    -0.073 S 
ATOM      8  C   UNL     1      -0.150   3.660   0.023  0.00  0.00    +0.117 A 
ATOM      9  C   UNL     1       1.126   3.072   0.007  0.00  0.00    +0.075 A 
ATOM     10  C   UNL     1       1.153   1.642  -0.000  0.00  0.00    +0.261 A 
ATOM     11  O   UNL     1       2.215   1.043  -0.013  0.00  0.00    -0.267 OA
ATOM     12  N   UNL     1      -0.011   0.966   0.007  0.00  0.00    -0.301 N 
ATOM     13  H   UNL     1       0.003  -0.034   0.006  0.00  0.00    +0.171 HD
ATOM     14  C   UNL     1      -1.210   1.619   0.017  0.00  0.00    +0.170 A 
ATOM     15  N   UNL     1      -1.262   2.936   0.029  0.00  0.00    -0.216 NA
ATOM     16  C   UNL     1       2.939   6.460   0.006  0.00  0.00    +0.046 C 
ENDROOT
BRANCH  14  17
ATOM     17  S   UNL     1      -2.706   0.689   0.019  0.00  0.00    -0.083 S 
BRANCH  17  18
ATOM     18  C   UNL     1      -3.914   2.037   0.032  0.00  0.00    +0.112 C 
BRANCH  18  19
ATOM     19  C   UNL     1      -5.307   1.464   0.036  0.00  0.00    -0.036 A 
ATOM     20  C   UNL     1      -5.940   1.194   1.235  0.00  0.00    +0.006 A 
ATOM     21  C   UNL     1      -7.218   0.668   1.240  0.00  0.00    +0.022 A 
ATOM     22  C   UNL     1      -7.865   0.411   0.044  0.00  0.00    +0.059 A 
ATOM     23  C   UNL     1      -7.231   0.681  -1.157  0.00  0.00    +0.060 A 
ATOM     24  C   UNL     1      -5.954   1.212  -1.159  0.00  0.00    +0.026 A 
ATOM     25 CL   UNL     1      -8.041   0.359  -2.658  0.00  0.00    -0.082 Cl
ATOM     26 CL   UNL     1      -9.470  -0.250   0.050  0.00  0.00    -0.082 Cl
ENDBRANCH  18  19
ENDBRANCH  17  18
ENDBRANCH  14  17
TORSDOF 3
