REMARK  Name = ZINC25286949
REMARK  6 active torsions:
REMARK  status: ('A' for Active; 'I' for Inactive)
REMARK    1  A    between atoms: C_4  and  C_7
REMARK    2  A    between atoms: C_7  and  O_8
REMARK    3  A    between atoms: O_8  and  N_9
REMARK    4  A    between atoms: C_10  and  C_12
REMARK    5  A    between atoms: C_16  and  C_21
REMARK    6  A    between atoms: C_21  and  C_22
REMARK                            x       y       z     vdW  Elec       q    Type
REMARK                         _______ _______ _______ _____ _____    ______ ____
ROOT
ATOM      1  C   UNL     1      -0.018   1.441   0.010  0.00  0.00    +0.171 C 
ATOM      2  C   UNL     1       1.386   2.046  -0.000  0.00  0.00    +0.101 C 
ATOM      3  S   UNL     1       2.347   1.270   1.338  0.00  0.00    -0.145 S 
ATOM      4  C   UNL     1       2.320  -0.484   0.857  0.00  0.00    +0.136 C 
ATOM      5  C   UNL     1       0.934  -0.844   0.405  0.00  0.00    +0.227 C 
ATOM      6  O   UNL     1       0.644  -2.021   0.411  0.00  0.00    -0.275 OA
ATOM      7  N   UNL     1       0.002  -0.004   0.002  0.00  0.00    -0.302 N 
ATOM      8  H   UNL     1      -0.861  -0.564  -0.387  0.00  0.00    +0.150 HD
ENDROOT
BRANCH   1  10
ATOM      9  N   UNL     1      -1.271   3.174  -1.233  0.00  0.00    -0.193 N 
ATOM     10  C   UNL     1      -0.766   1.925  -1.205  0.00  0.00    +0.257 C 
ATOM     11  O   UNL     1      -0.913   1.190  -2.159  0.00  0.00    -0.272 OA
ATOM     12  H   UNL     1      -1.137   3.841  -0.368  0.00  0.00    +0.183 HD
BRANCH   9  13
ATOM     13  O   UNL     1      -1.974   3.629  -2.375  0.00  0.00    -0.275 OA
BRANCH  13  14
ATOM     14  C   UNL     1      -2.453   4.971  -2.266  0.00  0.00    +0.225 C 
BRANCH  14  18
ATOM     15  C   UNL     1      -4.518   6.041  -5.849  0.00  0.00    +0.000 A 
ATOM     16  C   UNL     1      -5.208   5.463  -4.800  0.00  0.00    +0.000 A 
ATOM     17  C   UNL     1      -4.540   5.117  -3.640  0.00  0.00    +0.006 A 
ATOM     18  C   UNL     1      -3.181   5.348  -3.530  0.00  0.00    -0.020 A 
ATOM     19  C   UNL     1      -2.492   5.930  -4.577  0.00  0.00    +0.006 A 
ATOM     20  C   UNL     1      -3.159   6.271  -5.739  0.00  0.00    +0.000 A 
ENDBRANCH  14  18
ENDBRANCH  13  14
ENDBRANCH   9  13
ENDBRANCH   1  10
BRANCH   4  21
ATOM     21  C   UNL     1       2.710  -1.353   2.055  0.00  0.00    +0.061 C 
BRANCH  21  22
ATOM     22  C   UNL     1       4.144  -1.078   2.429  0.00  0.00    -0.011 A 
ATOM     23  C   UNL     1       5.153  -1.887   1.941  0.00  0.00    +0.006 A 
ATOM     24  C   UNL     1       6.468  -1.632   2.280  0.00  0.00    +0.000 A 
ATOM     25  C   UNL     1       6.775  -0.574   3.116  0.00  0.00    +0.003 A 
ATOM     26  C   UNL     1       5.768   0.232   3.610  0.00  0.00    +0.038 A 
ATOM     27  C   UNL     1       4.450  -0.019   3.267  0.00  0.00    +0.127 A 
ATOM     28  F   UNL     1       3.463   0.768   3.749  0.00  0.00    -0.205 F 
ENDBRANCH  21  22
ENDBRANCH   4  21
TORSDOF 6
