REMARK  Name = ZINC02097263
REMARK  8 active torsions:
REMARK  status: ('A' for Active; 'I' for Inactive)
REMARK    1  A    between atoms: C_1  and  C_2
REMARK    2  A    between atoms: C_2  and  C_3
REMARK    3  A    between atoms: C_3  and  C_5
REMARK    4  A    between atoms: C_3  and  N_6
REMARK    5  A    between atoms: C_26  and  C_28
REMARK    6  A    between atoms: C_31  and  C_34
REMARK    7  A    between atoms: C_34  and  C_35
REMARK    8  A    between atoms: C_34  and  C_36
REMARK                            x       y       z     vdW  Elec       q    Type
REMARK                         _______ _______ _______ _____ _____    ______ ____
ROOT
ATOM      1  N   UNL     1      -0.016   0.043   0.277  0.00  0.00    -0.288 N 
ATOM      2  C   UNL     1      -0.018   1.496   0.273  0.00  0.00    +0.204 C 
ATOM      3  C   UNL     1       1.362   2.059   0.164  0.00  0.00    +0.234 C 
ATOM      4  O   UNL     1       1.483   3.266   0.173  0.00  0.00    -0.274 OA
ATOM      5  N   UNL     1       2.470   1.323   0.058  0.00  0.00    -0.276 N 
ATOM      6  C   UNL     1       2.456  -0.135  -0.042  0.00  0.00    +0.167 C 
ATOM      7  C   UNL     1       1.083  -0.697   0.139  0.00  0.00    +0.237 C 
ATOM      8  O   UNL     1       0.961  -1.903   0.162  0.00  0.00    -0.274 OA
ATOM      9  C   UNL     1       3.007  -0.553  -1.413  0.00  0.00    +0.069 C 
ATOM     10  C   UNL     1       4.254   0.244  -1.700  0.00  0.00    -0.015 A 
ATOM     11  C   UNL     1       5.288  -0.028  -2.678  0.00  0.00    +0.003 A 
ATOM     12  C   UNL     1       5.462  -1.052  -3.613  0.00  0.00    +0.010 A 
ATOM     13  C   UNL     1       6.587  -0.991  -4.398  0.00  0.00    +0.001 A 
ATOM     14  C   UNL     1       7.513   0.033  -4.279  0.00  0.00    +0.002 A 
ATOM     15  C   UNL     1       7.366   1.058  -3.361  0.00  0.00    +0.026 A 
ATOM     16  C   UNL     1       6.234   1.022  -2.550  0.00  0.00    +0.047 A 
ATOM     17  N   UNL     1       5.787   1.853  -1.563  0.00  0.00    -0.356 N 
ATOM     18  H   UNL     1       6.240   2.657  -1.264  0.00  0.00    +0.166 HD
ATOM     19  C   UNL     1       4.604   1.381  -1.060  0.00  0.00    +0.046 A 
ATOM     20  C   UNL     1       3.784   2.003   0.047  0.00  0.00    +0.154 C 
ENDROOT
BRANCH  20  21
ATOM     21  C   UNL     1       3.597   3.474  -0.218  0.00  0.00    -0.021 A 
ATOM     22  C   UNL     1       3.139   3.902  -1.450  0.00  0.00    +0.006 A 
ATOM     23  C   UNL     1       2.964   5.252  -1.691  0.00  0.00    +0.004 A 
ATOM     24  C   UNL     1       3.256   6.174  -0.704  0.00  0.00    -0.045 A 
ATOM     25  C   UNL     1       3.719   5.747   0.526  0.00  0.00    +0.004 A 
ATOM     26  C   UNL     1       3.890   4.397   0.769  0.00  0.00    +0.006 A 
BRANCH  24  27
ATOM     27  C   UNL     1       3.069   7.646  -0.968  0.00  0.00    +0.013 C 
ATOM     28  C   UNL     1       3.953   8.069  -2.143  0.00  0.00    +0.012 C 
ATOM     29  C   UNL     1       1.603   7.921  -1.309  0.00  0.00    +0.012 C 
ENDBRANCH  24  27
ENDBRANCH  20  21
BRANCH   1  30
ATOM     30  C   UNL     1      -1.297  -0.648   0.443  0.00  0.00    +0.073 C 
ATOM     31  C   UNL     1      -2.239  -0.256  -0.698  0.00  0.00    +0.028 C 
BRANCH  30  33
ATOM     32  C   UNL     1      -1.040  -0.752   2.926  0.00  0.00    +0.005 C 
ATOM     33  C   UNL     1      -1.922  -0.249   1.781  0.00  0.00    +0.019 C 
ENDBRANCH  30  33
ENDBRANCH   1  30
TORSDOF 4
