REMARK  Name = ZINC13248069
REMARK  9 active torsions:
REMARK  status: ('A' for Active; 'I' for Inactive)
REMARK    1  A    between atoms: C_3  and  S_26
REMARK    2  A    between atoms: C_6  and  C_7
REMARK    3  A    between atoms: C_7  and  N_8
REMARK    4  A    between atoms: N_8  and  C_9
REMARK    5  A    between atoms: N_8  and  S_14
REMARK    6  A    between atoms: C_9  and  C_10
REMARK    7  A    between atoms: S_14  and  C_17
REMARK    8  A    between atoms: C_19  and  C_24
REMARK    9  A    between atoms: S_26  and  N_29
REMARK                            x       y       z     vdW  Elec       q    Type
REMARK                         _______ _______ _______ _____ _____    ______ ____
ROOT
ATOM      1  N   UNL     1       0.186   1.477  -1.450  0.00  0.00    -0.164 NA
ENDROOT
BRANCH   1   2
ATOM      2  S   UNL     1       1.516   1.925  -2.329  0.00  0.00    +0.063 S 
ATOM      3  O   UNL     1       2.427   2.518  -1.413  0.00  0.00    -0.153 OA
ATOM      4  O   UNL     1       1.865   0.808  -3.135  0.00  0.00    -0.153 OA
BRANCH   2   5
ATOM      5  C   UNL     1       1.007   3.202  -3.431  0.00  0.00    +0.124 A 
ATOM      6  C   UNL     1       1.379   4.508  -3.189  0.00  0.00    +0.045 A 
ATOM      7  C   UNL     1       0.978   5.518  -4.066  0.00  0.00    +0.065 A 
ATOM      8  C   UNL     1       0.195   5.200  -5.178  0.00  0.00    +0.016 A 
ATOM      9  C   UNL     1      -0.174   3.892  -5.406  0.00  0.00    +0.023 A 
ATOM     10  C   UNL     1       0.230   2.893  -4.535  0.00  0.00    +0.067 A 
ATOM     11 CL   UNL     1      -0.238   1.247  -4.829  0.00  0.00    -0.082 Cl
BRANCH   7  12
ATOM     12  C   UNL     1       1.377   6.918  -3.816  0.00  0.00    +0.387 C 
ATOM     13  O   UNL     1       2.058   7.192  -2.849  0.00  0.00    -0.241 OA
ATOM     14  O   UNL     1       0.985   7.891  -4.661  0.00  0.00    -0.241 OA
ENDBRANCH   7  12
ENDBRANCH   2   5
ENDBRANCH   1   2
BRANCH   1  15
ATOM     15  C   UNL     1      -0.490   0.210  -1.738  0.00  0.00    +0.144 C 
BRANCH  15  21
ATOM     16  C   UNL     1       1.275  -1.470  -1.165  0.00  0.00    +0.007 A 
ATOM     17  C   UNL     1       1.790  -2.458  -0.348  0.00  0.00    +0.029 A 
ATOM     18  C   UNL     1       1.096  -2.855   0.779  0.00  0.00    +0.105 A 
ATOM     19  C   UNL     1      -0.112  -2.260   1.092  0.00  0.00    +0.029 A 
ATOM     20  C   UNL     1      -0.625  -1.268   0.277  0.00  0.00    +0.007 A 
ATOM     21  C   UNL     1       0.070  -0.871  -0.850  0.00  0.00    -0.032 A 
BRANCH  18  22
ATOM     22  S   UNL     1       1.750  -4.118   1.819  0.00  0.00    +0.056 S 
ATOM     23  O   UNL     1       3.155  -4.132   1.606  0.00  0.00    -0.153 OA
ATOM     24  O   UNL     1       1.176  -3.925   3.104  0.00  0.00    -0.153 OA
BRANCH  22  25
ATOM     25  N   UNL     1       1.173  -5.564   1.255  0.00  0.00    -0.204 NA
ATOM     26  H   UNL     1       0.586  -5.585   0.483  0.00  0.00    +0.144 HD
ATOM     27  H   UNL     1       1.421  -6.391   1.697  0.00  0.00    +0.144 HD
ENDBRANCH  22  25
ENDBRANCH  18  22
ENDBRANCH  15  21
ENDBRANCH   1  15
BRANCH   1  28
ATOM     28  C   UNL     1      -0.319   2.351  -0.388  0.00  0.00    +0.223 C 
BRANCH  28  29
ATOM     29  C   UNL     1       0.298   1.937   0.950  0.00  0.00    +0.404 C 
ATOM     30  F   UNL     1       1.681   1.794   0.801  0.00  0.00    -0.169 F 
ATOM     31  F   UNL     1       0.031   2.918   1.910  0.00  0.00    -0.169 F 
ATOM     32  F   UNL     1      -0.256   0.720   1.361  0.00  0.00    -0.169 F 
ENDBRANCH  28  29
ENDBRANCH   1  28
TORSDOF 9
