REMARK  Name = ZINC11855675
REMARK  6 active torsions:
REMARK  status: ('A' for Active; 'I' for Inactive)
REMARK    1  A    between atoms: C_1  and  C_2
REMARK    2  A    between atoms: C_2  and  C_3
REMARK    3  A    between atoms: C_2  and  C_4
REMARK    4  A    between atoms: C_13  and  N_22
REMARK    5  A    between atoms: C_15  and  C_17
REMARK    6  A    between atoms: C_23  and  C_25
REMARK                            x       y       z     vdW  Elec       q    Type
REMARK                         _______ _______ _______ _____ _____    ______ ____
ROOT
ATOM      1  C   UNL     1       1.471  10.897   0.053  0.00  0.00    +0.053 A 
ATOM      2  C   UNL     1       0.185  11.338  -0.057  0.00  0.00    +0.093 A 
ATOM      3  C   UNL     1      -0.852  10.391  -0.149  0.00  0.00    +0.253 A 
ATOM      4  O   UNL     1      -2.014  10.749  -0.248  0.00  0.00    -0.268 OA
ATOM      5  N   UNL     1      -0.535   9.079  -0.132  0.00  0.00    -0.291 N 
ATOM      6  H   UNL     1      -1.233   8.409  -0.199  0.00  0.00    +0.172 HD
ATOM      7  C   UNL     1       0.766   8.700  -0.016  0.00  0.00    +0.234 A 
ATOM      8  N   UNL     1       1.730   9.590   0.070  0.00  0.00    -0.217 NA
ATOM      9  N   UNL     1       1.081   7.355   0.005  0.00  0.00    -0.185 N 
ATOM     10  C   UNL     1       2.340   6.825   0.025  0.00  0.00    +0.133 A 
ATOM     11  C   UNL     1       2.218   5.473   0.048  0.00  0.00    +0.074 A 
ATOM     12  C   UNL     1       0.841   5.164   0.034  0.00  0.00    +0.102 A 
ATOM     13  N   UNL     1       0.165   6.295   0.012  0.00  0.00    -0.162 NA
ENDROOT
BRANCH  12  14
ATOM     14  C   UNL     1       0.258   3.806   0.049  0.00  0.00    +0.039 A 
ATOM     15  C   UNL     1      -1.060   3.433   0.042  0.00  0.00    +0.018 A 
ATOM     16  C   UNL     1      -1.367   2.090   0.053  0.00  0.00    +0.008 A 
ATOM     17  C   UNL     1      -0.360   1.180   0.082  0.00  0.00    +0.046 A 
ATOM     18  S   UNL     1       1.088   2.225   0.081  0.00  0.00    -0.095 S 
ENDBRANCH  12  14
BRANCH  10  19
ATOM     19  N   UNL     1       3.532   7.542   0.027  0.00  0.00    -0.264 N 
ATOM     20  C   UNL     1       4.709   6.893  -0.081  0.00  0.00    +0.285 C 
ATOM     21  O   UNL     1       4.728   5.682  -0.179  0.00  0.00    -0.266 OA
ATOM     22  H   UNL     1       3.517   8.508   0.105  0.00  0.00    +0.157 HD
BRANCH  20  23
ATOM     23  C   UNL     1       5.978   7.656  -0.079  0.00  0.00    +0.194 A 
ATOM     24  C   UNL     1       7.146   6.977  -0.188  0.00  0.00    +0.103 A 
ATOM     25  C   UNL     1       8.407   7.733  -0.187  0.00  0.00    +0.193 A 
ATOM     26  O   UNL     1       9.486   7.175  -0.283  0.00  0.00    -0.287 OA
ATOM     27  C   UNL     1       8.303   9.200  -0.064  0.00  0.00    +0.064 A 
ATOM     28  C   UNL     1       9.439  10.009  -0.052  0.00  0.00    +0.015 A 
ATOM     29  C   UNL     1       9.303  11.364   0.064  0.00  0.00    +0.001 A 
ATOM     30  C   UNL     1       8.044  11.938   0.169  0.00  0.00    +0.004 A 
ATOM     31  C   UNL     1       6.910  11.155   0.159  0.00  0.00    +0.047 A 
ATOM     32  C   UNL     1       7.024   9.773   0.042  0.00  0.00    +0.139 A 
ATOM     33  O   UNL     1       5.927   8.992   0.025  0.00  0.00    -0.450 OA
ENDBRANCH  20  23
ENDBRANCH  10  19
BRANCH   1  35
ATOM     34  C   UNL     1       3.350  11.677   1.470  0.00  0.00    +0.014 C 
ATOM     35  C   UNL     1       2.601  11.889   0.153  0.00  0.00    +0.032 C 
ATOM     36  C   UNL     1       3.564  11.686  -1.019  0.00  0.00    +0.014 C 
ENDBRANCH   1  35
TORSDOF 4
