REMARK  Name = ZINC08848846
REMARK  14 active torsions:
REMARK  status: ('A' for Active; 'I' for Inactive)
REMARK    1  A    between atoms: C_1  and  N_62
REMARK    2  A    between atoms: C_2  and  N_62
REMARK    3  A    between atoms: C_3  and  C_5
REMARK    4  A    between atoms: C_3  and  C_29
REMARK    5  A    between atoms: C_3  and  N_62
REMARK    6  A    between atoms: C_5  and  N_6
REMARK    7  A    between atoms: C_7  and  C_9
REMARK    8  A    between atoms: C_12  and  O_27
REMARK    9  A    between atoms: C_13  and  S_15
REMARK   10  A    between atoms: S_15  and  N_18
REMARK   11  A    between atoms: N_18  and  C_19
REMARK   12  A    between atoms: N_18  and  C_20
REMARK   13  A    between atoms: C_20  and  C_21
REMARK   14  A    between atoms: O_27  and  C_28
REMARK                            x       y       z     vdW  Elec       q    Type
REMARK                         _______ _______ _______ _____ _____    ______ ____
ROOT
ATOM      1  C   UNL     1       2.525   7.216   3.229  0.00  0.00    +0.039 A 
ATOM      2  C   UNL     1       2.694   8.063   2.131  0.00  0.00    +0.017 A 
ATOM      3  C   UNL     1       3.005   9.390   2.329  0.00  0.00    +0.048 A 
ATOM      4  C   UNL     1       3.164   9.883   3.618  0.00  0.00    +0.146 A 
ATOM      5  C   UNL     1       3.003   9.042   4.713  0.00  0.00    +0.148 A 
ATOM      6  C   UNL     1       2.685   7.716   4.524  0.00  0.00    +0.045 A 
ENDROOT
BRANCH   1   8
ATOM      7  N   UNL     1       2.030   5.314   1.771  0.00  0.00    -0.313 N 
ATOM      8  C   UNL     1       2.184   5.795   3.021  0.00  0.00    +0.244 C 
ATOM      9  O   UNL     1       2.043   5.057   3.978  0.00  0.00    -0.270 OA
ATOM     10  H   UNL     1       2.143   5.902   1.008  0.00  0.00    +0.149 HD
BRANCH   7  11
ATOM     11  C   UNL     1       1.692   3.904   1.565  0.00  0.00    +0.094 C 
BRANCH  11  12
ATOM     12  C   UNL     1       1.466   3.646   0.074  0.00  0.00    -0.014 C 
BRANCH  12  13
ATOM     13  C   UNL     1       1.202   2.179  -0.148  0.00  0.00    -0.022 A 
ATOM     14  C   UNL     1       0.092   1.576  -0.640  0.00  0.00    +0.009 A 
ATOM     15  C   UNL     1       0.074   0.199  -0.757  0.00  0.00    +0.008 A 
ATOM     16  C   UNL     1       1.166  -0.508  -0.377  0.00  0.00    +0.045 A 
ATOM     17  S   UNL     1       2.271   0.784   0.168  0.00  0.00    -0.103 S 
ENDBRANCH  12  13
BRANCH  12  20
ATOM     18  C   UNL     1       3.829   3.254  -0.276  0.00  0.00    -0.096 C 
ATOM     19  C   UNL     1       2.430   3.948  -2.126  0.00  0.00    -0.096 C 
ATOM     20  N   UNL     1       2.667   4.076  -0.673  0.00  0.00    +0.382 N 
ATOM     21  H   UNL     1       2.863   5.059  -0.452  0.00  0.00    -0.082 HD
ENDBRANCH  12  20
ENDBRANCH  11  12
ENDBRANCH   7  11
ENDBRANCH   1   8
BRANCH   5  22
ATOM     22  S   UNL     1       3.205   9.674   6.345  0.00  0.00    +0.064 S 
ATOM     23  O   UNL     1       2.433  10.865   6.418  0.00  0.00    -0.153 OA
ATOM     24  O   UNL     1       3.005   8.581   7.231  0.00  0.00    -0.153 OA
BRANCH  22  25
ATOM     25  N   UNL     1       4.790  10.127   6.503  0.00  0.00    -0.175 NA
ATOM     26  C   UNL     1       5.782   9.164   6.986  0.00  0.00    +0.132 C 
BRANCH  25  27
ATOM     27  C   UNL     1       5.200  11.491   6.158  0.00  0.00    +0.144 C 
BRANCH  27  28
ATOM     28  C   UNL     1       5.208  12.342   7.401  0.00  0.00    -0.032 A 
ATOM     29  C   UNL     1       4.069  13.032   7.774  0.00  0.00    +0.005 A 
ATOM     30  C   UNL     1       4.075  13.809   8.917  0.00  0.00    +0.000 A 
ATOM     31  C   UNL     1       5.222  13.905   9.682  0.00  0.00    +0.000 A 
ATOM     32  C   UNL     1       6.362  13.220   9.306  0.00  0.00    +0.000 A 
ATOM     33  C   UNL     1       6.355  12.438   8.166  0.00  0.00    +0.005 A 
ENDBRANCH  27  28
ENDBRANCH  25  27
ENDBRANCH  22  25
ENDBRANCH   5  22
BRANCH   4  34
ATOM     34  O   UNL     1       3.478  11.190   3.809  0.00  0.00    -0.493 OA
ATOM     35  C   UNL     1       3.629  11.998   2.641  0.00  0.00    +0.277 C 
ENDBRANCH   4  34
TORSDOF 10
