REMARK  Name = ZINC03144366
REMARK  10 active torsions:
REMARK  status: ('A' for Active; 'I' for Inactive)
REMARK    1  A    between atoms: C_1  and  C_2
REMARK    2  A    between atoms: C_2  and  C_3
REMARK    3  A    between atoms: C_2  and  C_4
REMARK    4  A    between atoms: C_2  and  C_5
REMARK    5  A    between atoms: C_5  and  C_7
REMARK    6  A    between atoms: C_5  and  N_22
REMARK    7  A    between atoms: C_7  and  N_9
REMARK    8  A    between atoms: C_7  and  O_14
REMARK    9  A    between atoms: O_14  and  C_15
REMARK   10  A    between atoms: N_27  and  C_33
REMARK                            x       y       z     vdW  Elec       q    Type
REMARK                         _______ _______ _______ _____ _____    ______ ____
ROOT
ATOM      1  C   UNL     1       0.462  -0.426  -1.658  0.00  0.00    +0.149 C 
ENDROOT
BRANCH   1   2
ATOM      2  N   UNL     1      -0.317   0.281  -2.678  0.00  0.00    -0.366 N 
ATOM      3  C   UNL     1      -0.988  -0.388  -3.556  0.00  0.00    +0.098 C 
ATOM      4  N   UNL     1      -1.088  -1.760  -3.676  0.00  0.00    -0.285 N 
ATOM      5  C   UNL     1      -1.875  -2.095  -4.708  0.00  0.00    +0.143 C 
ATOM      6  S   UNL     1      -2.224  -3.711  -5.152  0.00  0.00    -0.018 S 
ATOM      7  N   UNL     1      -2.363  -1.018  -5.358  0.00  0.00    -0.269 N 
ATOM      8  C   UNL     1      -1.839   0.156  -4.670  0.00  0.00    +0.094 C 
ATOM      9  C   UNL     1      -1.032   1.061  -5.614  0.00  0.00    +0.034 C 
ATOM     10  C   UNL     1      -2.101   1.954  -6.283  0.00  0.00    +0.003 C 
ATOM     11  C   UNL     1      -3.324   1.956  -5.348  0.00  0.00    +0.003 C 
ATOM     12  C   UNL     1      -2.959   1.064  -4.140  0.00  0.00    +0.034 C 
ATOM     13  H   UNL     1      -0.647  -2.396  -3.091  0.00  0.00    +0.155 HD
ATOM     14  H   UNL     1      -0.328   1.251  -2.694  0.00  0.00    +0.161 HD
BRANCH   7  15
ATOM     15  C   UNL     1      -3.210  -1.027  -6.472  0.00  0.00    +0.036 A 
ATOM     16  C   UNL     1      -2.674  -1.020  -7.753  0.00  0.00    +0.023 A 
ATOM     17  C   UNL     1      -3.513  -1.028  -8.850  0.00  0.00    +0.002 A 
ATOM     18  C   UNL     1      -4.885  -1.043  -8.674  0.00  0.00    +0.000 A 
ATOM     19  C   UNL     1      -5.421  -1.050  -7.399  0.00  0.00    +0.002 A 
ATOM     20  C   UNL     1      -4.588  -1.048  -6.298  0.00  0.00    +0.023 A 
ENDBRANCH   7  15
ENDBRANCH   1   2
BRANCH   1  22
ATOM     21  C   UNL     1      -1.145   0.482   0.025  0.00  0.00    +0.013 C 
ATOM     22  C   UNL     1      -0.445  -0.781  -0.479  0.00  0.00    -0.012 C 
ATOM     23  C   UNL     1       0.396  -1.382   0.649  0.00  0.00    +0.013 C 
ATOM     24  C   UNL     1      -1.494  -1.800  -0.931  0.00  0.00    +0.013 C 
ENDBRANCH   1  22
BRANCH   1  25
ATOM     25  C   UNL     1       1.601   0.473  -1.173  0.00  0.00    +0.317 C 
BRANCH  25  26
ATOM     26  N   UNL     1       2.481   0.798  -2.298  0.00  0.00    -0.211 N 
ATOM     27  C   UNL     1       2.837   2.026  -2.714  0.00  0.00    +0.223 A 
ATOM     28  N   UNL     1       3.631   1.890  -3.745  0.00  0.00    -0.223 NA
ATOM     29  C   UNL     1       3.804   0.597  -4.016  0.00  0.00    +0.245 A 
ATOM     30  N   UNL     1       3.124  -0.112  -3.154  0.00  0.00    -0.155 NA
ENDBRANCH  25  26
BRANCH  25  31
ATOM     31  O   UNL     1       1.058   1.678  -0.629  0.00  0.00    -0.465 OA
BRANCH  31  32
ATOM     32  C   UNL     1       1.827   2.352   0.266  0.00  0.00    +0.124 A 
ATOM     33  C   UNL     1       3.086   1.874   0.600  0.00  0.00    +0.047 A 
ATOM     34  C   UNL     1       3.866   2.561   1.510  0.00  0.00    +0.023 A 
ATOM     35  C   UNL     1       3.392   3.725   2.089  0.00  0.00    +0.041 A 
ATOM     36  C   UNL     1       2.137   4.203   1.758  0.00  0.00    +0.023 A 
ATOM     37  C   UNL     1       1.357   3.523   0.843  0.00  0.00    +0.047 A 
ATOM     38 CL   UNL     1       4.374   4.585   3.233  0.00  0.00    -0.084 Cl
ENDBRANCH  31  32
ENDBRANCH  25  31
ENDBRANCH   1  25
TORSDOF 7
