REMARK  Name = ZINC08968993
REMARK  11 active torsions:
REMARK  status: ('A' for Active; 'I' for Inactive)
REMARK    1  A    between atoms: C_1  and  O_2
REMARK    2  A    between atoms: O_2  and  C_3
REMARK    3  A    between atoms: C_6  and  C_11
REMARK    4  A    between atoms: C_8  and  O_9
REMARK    5  A    between atoms: O_9  and  C_10
REMARK    6  A    between atoms: C_11  and  C_13
REMARK    7  A    between atoms: C_11  and  S_28
REMARK    8  A    between atoms: C_13  and  N_14
REMARK    9  A    between atoms: N_14  and  S_15
REMARK   10  A    between atoms: S_15  and  C_18
REMARK   11  A    between atoms: S_28  and  C_31
REMARK                            x       y       z     vdW  Elec       q    Type
REMARK                         _______ _______ _______ _____ _____    ______ ____
ROOT
ATOM      1  C   UNL     1       2.489   1.043  -0.016  0.00  0.00    +0.182 C 
ENDROOT
BRANCH   1   5
ATOM      2  C   UNL     1      -1.240   3.135   0.030  0.00  0.00    +0.162 A 
ATOM      3  C   UNL     1      -1.220   1.749   0.017  0.00  0.00    +0.050 A 
ATOM      4  C   UNL     1      -0.013   1.076   0.008  0.00  0.00    +0.009 A 
ATOM      5  C   UNL     1       1.176   1.782   0.000  0.00  0.00    -0.018 A 
ATOM      6  C   UNL     1       1.163   3.164   0.008  0.00  0.00    +0.055 A 
ATOM      7  C   UNL     1      -0.044   3.845   0.023  0.00  0.00    +0.162 A 
BRANCH   2   9
ATOM      8  C   UNL     1      -3.615   3.004   0.051  0.00  0.00    +0.277 C 
ATOM      9  O   UNL     1      -2.427   3.799   0.044  0.00  0.00    -0.491 OA
ENDBRANCH   2   9
BRANCH   7  10
ATOM     10  O   UNL     1      -0.059   5.205   0.031  0.00  0.00    -0.491 OA
ATOM     11  C   UNL     1       1.207   5.868   0.023  0.00  0.00    +0.277 C 
ENDBRANCH   7  10
ENDBRANCH   1   5
BRANCH   1  12
ATOM     12  S   UNL     1       2.583   0.009  -1.503  0.00  0.00    +0.011 S 
ATOM     13  O   UNL     1       2.312   0.788  -2.659  0.00  0.00    -0.168 OA
ATOM     14  O   UNL     1       3.731  -0.828  -1.446  0.00  0.00    -0.168 OA
BRANCH  12  15
ATOM     15  C   UNL     1       1.216  -1.095  -1.374  0.00  0.00    +0.126 A 
ATOM     16  C   UNL     1      -0.052  -0.941  -1.829  0.00  0.00    +0.035 A 
ATOM     17  C   UNL     1      -0.970  -1.951  -1.611  0.00  0.00    +0.009 A 
ATOM     18  C   UNL     1      -0.575  -3.067  -0.950  0.00  0.00    +0.047 A 
ATOM     19  S   UNL     1       1.142  -2.710  -0.617  0.00  0.00    -0.078 S 
ENDBRANCH  12  15
ENDBRANCH   1  12
BRANCH   1  20
ATOM     20  C   UNL     1       2.592   0.158   1.228  0.00  0.00    +0.137 C 
BRANCH  20  21
ATOM     21  N   UNL     1       3.868  -0.561   1.213  0.00  0.00    -0.188 NA
ATOM     22  H   UNL     1       4.390  -0.605   0.396  0.00  0.00    +0.148 HD
BRANCH  21  23
ATOM     23  S   UNL     1       4.421  -1.297   2.589  0.00  0.00    +0.058 S 
ATOM     24  O   UNL     1       5.651  -1.922   2.250  0.00  0.00    -0.153 OA
ATOM     25  O   UNL     1       4.316  -0.339   3.633  0.00  0.00    -0.153 OA
BRANCH  23  26
ATOM     26  C   UNL     1       3.290  -2.591   2.978  0.00  0.00    +0.106 A 
ATOM     27  C   UNL     1       2.202  -2.325   3.808  0.00  0.00    +0.029 A 
ATOM     28  C   UNL     1       1.306  -3.300   4.123  0.00  0.00    +0.010 A 
ATOM     29  C   UNL     1       1.485  -4.599   3.615  0.00  0.00    -0.018 A 
ATOM     30  C   UNL     1       0.585  -5.633   3.924  0.00  0.00    +0.008 A 
ATOM     31  C   UNL     1       0.790  -6.878   3.415  0.00  0.00    +0.001 A 
ATOM     32  C   UNL     1       1.881  -7.145   2.589  0.00  0.00    +0.001 A 
ATOM     33  C   UNL     1       2.773  -6.169   2.269  0.00  0.00    +0.008 A 
ATOM     34  C   UNL     1       2.594  -4.870   2.776  0.00  0.00    -0.016 A 
ATOM     35  C   UNL     1       3.494  -3.836   2.468  0.00  0.00    +0.037 A 
ENDBRANCH  23  26
ENDBRANCH  21  23
ENDBRANCH  20  21
ENDBRANCH   1  20
TORSDOF 9
