REMARK  Name = ZINC21256353
REMARK  10 active torsions:
REMARK  status: ('A' for Active; 'I' for Inactive)
REMARK    1  A    between atoms: C_1  and  O_2
REMARK    2  A    between atoms: O_2  and  C_3
REMARK    3  A    between atoms: C_7  and  C_9
REMARK    4  A    between atoms: C_14  and  C_24
REMARK    5  A    between atoms: C_27  and  O_34
REMARK    6  A    between atoms: C_28  and  O_32
REMARK    7  A    between atoms: C_29  and  O_30
REMARK    8  A    between atoms: O_30  and  C_31
REMARK    9  A    between atoms: O_32  and  C_33
REMARK   10  A    between atoms: O_34  and  C_35
REMARK                            x       y       z     vdW  Elec       q    Type
REMARK                         _______ _______ _______ _____ _____    ______ ____
ROOT
ATOM      1  C   UNL     1      -2.203   4.471   3.639  0.00  0.00    +0.032 C 
ATOM      2  C   UNL     1      -0.842   5.055   4.015  0.00  0.00    +0.059 C 
ATOM      3  C   UNL     1       0.242   4.007   3.820  0.00  0.00    +0.017 C 
ATOM      4  C   UNL     1       0.140   3.100   2.839  0.00  0.00    +0.037 C 
ATOM      5  C   UNL     1       1.151   2.029   2.507  0.00  0.00    +0.140 C 
ATOM      6  N   UNL     1       2.184   1.854   3.507  0.00  0.00    -0.331 N 
ATOM      7  C   UNL     1       3.096   2.871   3.785  0.00  0.00    +0.049 A 
ATOM      8  C   UNL     1       4.448   2.723   3.520  0.00  0.00    +0.025 A 
ATOM      9  C   UNL     1       5.310   3.776   3.771  0.00  0.00    +0.002 A 
ATOM     10  C   UNL     1       4.828   4.968   4.280  0.00  0.00    +0.002 A 
ATOM     11  C   UNL     1       3.480   5.114   4.562  0.00  0.00    +0.025 A 
ATOM     12  C   UNL     1       2.621   4.054   4.331  0.00  0.00    +0.052 A 
ATOM     13  N   UNL     1       1.279   4.095   4.691  0.00  0.00    -0.316 N 
ATOM     14  C   UNL     1      -1.002   3.080   1.999  0.00  0.00    +0.163 C 
ATOM     15  O   UNL     1      -1.063   2.254   1.110  0.00  0.00    -0.292 OA
ATOM     16  C   UNL     1      -2.138   4.045   2.168  0.00  0.00    +0.088 C 
ATOM     17  H   UNL     1       2.258   0.907   4.062  0.00  0.00    +0.147 HD
ATOM     18  H   UNL     1       1.084   4.209   5.768  0.00  0.00    +0.152 HD
ENDROOT
BRANCH   1  23
ATOM     19  C   UNL     1      -5.302   6.250   4.870  0.00  0.00    +0.120 A 
ATOM     20  C   UNL     1      -5.240   7.436   4.153  0.00  0.00    +0.045 A 
ATOM     21  C   UNL     1      -4.197   7.658   3.275  0.00  0.00    +0.004 A 
ATOM     22  C   UNL     1      -3.215   6.698   3.110  0.00  0.00    +0.004 A 
ATOM     23  C   UNL     1      -3.275   5.515   3.822  0.00  0.00    -0.040 A 
ATOM     24  C   UNL     1      -4.318   5.287   4.698  0.00  0.00    +0.049 A 
BRANCH  19  26
ATOM     25  C   UNL     1      -7.307   7.062   5.855  0.00  0.00    +0.277 C 
ATOM     26  O   UNL     1      -6.327   6.029   5.734  0.00  0.00    -0.495 OA
ENDBRANCH  19  26
ENDBRANCH   1  23
BRANCH   5  27
ATOM     27  C   UNL     1       1.809   2.381   1.198  0.00  0.00    +0.023 A 
ATOM     28  C   UNL     1       1.824   3.693   0.764  0.00  0.00    +0.013 A 
ATOM     29  C   UNL     1       2.421   4.021  -0.439  0.00  0.00    +0.050 A 
ATOM     30  C   UNL     1       3.011   3.033  -1.214  0.00  0.00    +0.165 A 
ATOM     31  C   UNL     1       3.002   1.714  -0.779  0.00  0.00    +0.204 A 
ATOM     32  C   UNL     1       2.402   1.389   0.432  0.00  0.00    +0.170 A 
BRANCH  32  33
ATOM     33  O   UNL     1       2.391   0.099   0.862  0.00  0.00    -0.491 OA
ATOM     34  C   UNL     1       3.492  -0.326   1.667  0.00  0.00    +0.277 C 
ENDBRANCH  32  33
BRANCH  31  35
ATOM     35  O   UNL     1       3.581   0.742  -1.536  0.00  0.00    -0.488 OA
ATOM     36  C   UNL     1       2.750   0.088  -2.497  0.00  0.00    +0.277 C 
ENDBRANCH  31  35
BRANCH  30  37
ATOM     37  O   UNL     1       3.598   3.357  -2.397  0.00  0.00    -0.491 OA
ATOM     38  C   UNL     1       3.569   4.733  -2.781  0.00  0.00    +0.277 C 
ENDBRANCH  30  37
ENDBRANCH   5  27
TORSDOF 6
