REMARK  Name = ZINC01879035
REMARK  7 active torsions:
REMARK  status: ('A' for Active; 'I' for Inactive)
REMARK    1  A    between atoms: C_1  and  C_2
REMARK    2  A    between atoms: C_7  and  N_8
REMARK    3  A    between atoms: C_9  and  C_11
REMARK    4  A    between atoms: C_11  and  S_12
REMARK    5  A    between atoms: S_12  and  C_13
REMARK    6  A    between atoms: C_14  and  C_29
REMARK    7  A    between atoms: C_15  and  C_22
REMARK                            x       y       z     vdW  Elec       q    Type
REMARK                         _______ _______ _______ _____ _____    ______ ____
ROOT
ATOM      1  C   UNL     1      -6.428   2.048  -0.410  0.00  0.00    +0.116 A 
ATOM      2  C   UNL     1      -7.733   1.538  -0.527  0.00  0.00    +0.091 A 
ATOM      3  C   UNL     1      -8.804   2.450  -0.606  0.00  0.00    +0.007 A 
ATOM      4  C   UNL     1      -8.515   3.817  -0.572  0.00  0.00    -0.017 A 
ATOM      5  C   UNL     1      -7.204   4.234  -0.461  0.00  0.00    +0.046 A 
ATOM      6  N   UNL     1      -6.218   3.353  -0.384  0.00  0.00    -0.244 NA
ATOM      7  C   UNL     1      -7.153   5.749  -0.446  0.00  0.00    +0.056 C 
ATOM      8  C   UNL     1      -8.519   6.206  -1.000  0.00  0.00    +0.011 C 
ATOM      9  C   UNL     1      -9.435   5.016  -0.642  0.00  0.00    +0.038 C 
ENDROOT
BRANCH   3  10
ATOM     10  C   UNL     1     -10.201   1.972  -0.725  0.00  0.00    -0.016 A 
ATOM     11  C   UNL     1     -11.114   2.217   0.301  0.00  0.00    +0.010 A 
ATOM     12  C   UNL     1     -12.415   1.773   0.183  0.00  0.00    +0.020 A 
ATOM     13  C   UNL     1     -12.813   1.078  -0.947  0.00  0.00    +0.041 A 
ATOM     14  C   UNL     1     -11.909   0.828  -1.966  0.00  0.00    +0.020 A 
ATOM     15  C   UNL     1     -10.607   1.271  -1.860  0.00  0.00    +0.010 A 
ATOM     16 CL   UNL     1     -14.450   0.517  -1.086  0.00  0.00    -0.084 Cl
ENDBRANCH   3  10
BRANCH   2  17
ATOM     17  C   UNL     1      -7.968   0.126  -0.561  0.00  0.00    +0.102 C 
ATOM     18  N   UNL     1      -8.155  -0.994  -0.587  0.00  0.00    -0.191 NA
ENDBRANCH   2  17
BRANCH   1  19
ATOM     19  S   UNL     1      -5.062   0.939  -0.304  0.00  0.00    -0.095 S 
BRANCH  19  20
ATOM     20  C   UNL     1      -3.702   2.127  -0.184  0.00  0.00    +0.172 C 
BRANCH  20  22
ATOM     21  N   UNL     1      -1.237   2.069   0.019  0.00  0.00    -0.285 N 
ATOM     22  C   UNL     1      -2.394   1.385  -0.081  0.00  0.00    +0.227 C 
ATOM     23  O   UNL     1      -2.383   0.172  -0.088  0.00  0.00    -0.275 OA
ATOM     24  H   UNL     1      -1.250   3.037   0.090  0.00  0.00    +0.155 HD
BRANCH  21  31
ATOM     25  C   UNL     1       1.000   3.306  -1.231  0.00  0.00    +0.046 C 
ATOM     26  C   UNL     1       1.099   1.950  -0.581  0.00  0.00    -0.028 A 
ATOM     27  C   UNL     1       2.301   1.268  -0.583  0.00  0.00    +0.019 A 
ATOM     28  C   UNL     1       2.393   0.024   0.013  0.00  0.00    +0.014 A 
ATOM     29  C   UNL     1       1.282  -0.542   0.613  0.00  0.00    +0.016 A 
ATOM     30  C   UNL     1       0.078   0.134   0.619  0.00  0.00    +0.024 A 
ATOM     31  C   UNL     1      -0.017   1.384   0.021  0.00  0.00    +0.036 A 
ATOM     32  I   UNL     1       4.217  -1.006   0.008  0.00  0.00    -0.044 I 
ENDBRANCH  21  31
ENDBRANCH  20  22
ENDBRANCH  19  20
ENDBRANCH   1  19
TORSDOF 6
