REMARK  Name = ZINC46992363
REMARK  9 active torsions:
REMARK  status: ('A' for Active; 'I' for Inactive)
REMARK    1  A    between atoms: C_1  and  C_2
REMARK    2  A    between atoms: C_2  and  N_3
REMARK    3  A    between atoms: N_3  and  C_4
REMARK    4  A    between atoms: N_3  and  C_21
REMARK    5  A    between atoms: C_4  and  C_5
REMARK    6  A    between atoms: C_5  and  N_6
REMARK    7  A    between atoms: C_7  and  C_9
REMARK    8  A    between atoms: C_14  and  C_16
REMARK    9  A    between atoms: C_26  and  C_27
REMARK                            x       y       z     vdW  Elec       q    Type
REMARK                         _______ _______ _______ _____ _____    ______ ____
ROOT
ATOM      1  N   UNL     1       2.736  -3.225   0.087  0.00  0.00    -0.312 N 
ATOM      2  C   UNL     1       2.705  -4.330   0.858  0.00  0.00    +0.234 C 
ATOM      3  O   UNL     1       1.647  -4.748   1.278  0.00  0.00    -0.274 OA
ATOM      4  H   UNL     1       3.583  -2.891  -0.249  0.00  0.00    +0.149 HD
ENDROOT
BRANCH   2   5
ATOM      5  C   UNL     1       3.986  -5.048   1.197  0.00  0.00    +0.162 C 
ATOM      6  C   UNL     1       4.409  -5.953   0.021  0.00  0.00    +0.033 C 
ATOM      7  C   UNL     1       4.963  -7.214   0.734  0.00  0.00    +0.021 C 
ATOM      8  C   UNL     1       4.025  -7.315   1.962  0.00  0.00    +0.109 C 
ATOM      9  N   UNL     1       3.778  -5.918   2.364  0.00  0.00    -0.283 N 
ATOM     10  C   UNL     1       3.421  -5.506   3.597  0.00  0.00    +0.283 C 
ATOM     11  O   UNL     1       3.243  -4.322   3.815  0.00  0.00    -0.267 OA
BRANCH  10  12
ATOM     12  C   UNL     1       3.247  -6.485   4.675  0.00  0.00    +0.189 A 
ATOM     13  C   UNL     1       2.884  -6.206   5.961  0.00  0.00    +0.054 A 
ATOM     14  C   UNL     1       2.838  -7.432   6.643  0.00  0.00    +0.042 A 
ATOM     15  C   UNL     1       3.170  -8.394   5.754  0.00  0.00    +0.196 A 
ATOM     16  O   UNL     1       3.411  -7.820   4.568  0.00  0.00    -0.458 OA
ENDBRANCH  10  12
ENDBRANCH   2   5
BRANCH   1  17
ATOM     17  C   UNL     1       1.491  -2.527  -0.243  0.00  0.00    +0.123 C 
BRANCH  17  18
ATOM     18  C   UNL     1       1.803  -1.315  -1.122  0.00  0.00    +0.124 C 
BRANCH  18  19
ATOM     19  N   UNL     1       0.577  -0.544  -1.345  0.00  0.00    -0.328 N 
BRANCH  19  20
ATOM     20  C   UNL     1      -0.186  -0.764  -2.493  0.00  0.00    +0.033 A 
ATOM     21  C   UNL     1       0.177  -0.169  -3.695  0.00  0.00    +0.023 A 
ATOM     22  C   UNL     1      -0.580  -0.388  -4.829  0.00  0.00    +0.002 A 
ATOM     23  C   UNL     1      -1.699  -1.198  -4.769  0.00  0.00    +0.000 A 
ATOM     24  C   UNL     1      -2.064  -1.792  -3.575  0.00  0.00    +0.005 A 
ATOM     25  C   UNL     1      -1.308  -1.581  -2.438  0.00  0.00    -0.029 A 
ATOM     26  C   UNL     1      -1.702  -2.234  -1.138  0.00  0.00    +0.045 C 
ENDBRANCH  19  20
BRANCH  19  28
ATOM     27  C   UNL     1       0.765   1.812  -0.718  0.00  0.00    +0.024 C 
ATOM     28  C   UNL     1       0.153   0.456  -0.362  0.00  0.00    +0.102 C 
ENDBRANCH  19  28
ENDBRANCH  18  19
ENDBRANCH  17  18
ENDBRANCH   1  17
TORSDOF 7
