REMARK  Name = ZINC63617110
REMARK  10 active torsions:
REMARK  status: ('A' for Active; 'I' for Inactive)
REMARK    1  A    between atoms: C_1  and  C_2
REMARK    2  A    between atoms: C_5  and  C_8
REMARK    3  A    between atoms: C_8  and  C_10
REMARK    4  A    between atoms: C_8  and  N_21
REMARK    5  A    between atoms: N_12  and  C_13
REMARK    6  A    between atoms: C_16  and  O_19
REMARK    7  A    between atoms: O_19  and  C_20
REMARK    8  A    between atoms: N_21  and  C_22
REMARK    9  A    between atoms: C_23  and  C_25
REMARK   10  A    between atoms: C_25  and  C_26
REMARK                            x       y       z     vdW  Elec       q    Type
REMARK                         _______ _______ _______ _____ _____    ______ ____
ROOT
ATOM      1  C   UNL     1      -0.056  -3.990  -0.014  0.00  0.00    +0.192 C 
ENDROOT
BRANCH   1   6
ATOM      2  C   UNL     1      -0.363   1.671  -1.135  0.00  0.00    +0.044 C 
ATOM      3  C   UNL     1      -0.283   0.194  -0.842  0.00  0.00    -0.050 A 
ATOM      4  C   UNL     1      -0.534  -0.723  -1.845  0.00  0.00    +0.004 A 
ATOM      5  C   UNL     1      -0.460  -2.077  -1.577  0.00  0.00    +0.006 A 
ATOM      6  C   UNL     1      -0.136  -2.514  -0.306  0.00  0.00    -0.018 A 
ATOM      7  C   UNL     1       0.116  -1.596   0.696  0.00  0.00    +0.006 A 
ATOM      8  C   UNL     1       0.047  -0.242   0.427  0.00  0.00    +0.004 A 
ENDBRANCH   1   6
BRANCH   1   9
ATOM      9  C   UNL     1       1.371  -4.366   0.291  0.00  0.00    +0.242 C 
ATOM     10  O   UNL     1       1.654  -4.849   1.367  0.00  0.00    -0.273 OA
ATOM     11  N   UNL     1       2.333  -4.165  -0.631  0.00  0.00    -0.284 N 
ATOM     12  H   UNL     1       2.120  -3.712  -1.462  0.00  0.00    +0.155 HD
BRANCH  11  13
ATOM     13  C   UNL     1       3.639  -4.610  -0.390  0.00  0.00    +0.034 A 
ATOM     14  C   UNL     1       4.720  -3.892  -0.884  0.00  0.00    +0.027 A 
ATOM     15  C   UNL     1       6.007  -4.331  -0.645  0.00  0.00    +0.047 A 
ATOM     16  C   UNL     1       6.221  -5.489   0.088  0.00  0.00    +0.120 A 
ATOM     17  C   UNL     1       5.141  -6.207   0.582  0.00  0.00    +0.047 A 
ATOM     18  C   UNL     1       3.853  -5.765   0.349  0.00  0.00    +0.027 A 
BRANCH  16  19
ATOM     19  O   UNL     1       7.488  -5.921   0.323  0.00  0.00    -0.495 OA
ATOM     20  C   UNL     1       7.634  -7.120   1.085  0.00  0.00    +0.277 C 
ENDBRANCH  16  19
ENDBRANCH  11  13
ENDBRANCH   1   9
BRANCH   1  21
ATOM     21  N   UNL     1      -0.902  -4.305   1.140  0.00  0.00    -0.289 N 
ATOM     22  C   UNL     1      -0.581  -3.750   2.457  0.00  0.00    +0.133 C 
ATOM     23  C   UNL     1      -1.975  -5.106   0.990  0.00  0.00    +0.220 C 
ATOM     24  O   UNL     1      -2.241  -5.566  -0.100  0.00  0.00    -0.275 OA
BRANCH  23  25
ATOM     25  C   UNL     1      -2.845  -5.431   2.177  0.00  0.00    +0.129 C 
BRANCH  25  26
ATOM     26  C   UNL     1      -3.968  -6.338   1.744  0.00  0.00    -0.033 C 
ATOM     27  C   UNL     1      -3.997  -7.688   1.818  0.00  0.00    -0.001 A 
ATOM     28  C   UNL     1      -3.029  -8.678   2.303  0.00  0.00    +0.010 A 
ATOM     29  C   UNL     1      -3.349  -9.991   2.246  0.00  0.00    +0.001 A 
ATOM     30  C   UNL     1      -4.579 -10.428   1.736  0.00  0.00    +0.002 A 
ATOM     31  C   UNL     1      -5.520  -9.579   1.272  0.00  0.00    +0.026 A 
ATOM     32  C   UNL     1      -5.290  -8.175   1.285  0.00  0.00    +0.043 A 
ATOM     33  N   UNL     1      -6.031  -7.166   0.897  0.00  0.00    -0.380 N 
ATOM     34  C   UNL     1      -5.294  -5.922   1.146  0.00  0.00    +0.145 C 
ATOM     35  H   UNL     1      -6.919  -7.230   0.514  0.00  0.00    +0.160 HD
ENDBRANCH  25  26
ENDBRANCH  23  25
ENDBRANCH   1  21
TORSDOF 7
