REMARK  Name = ZINC45109689
REMARK  7 active torsions:
REMARK  status: ('A' for Active; 'I' for Inactive)
REMARK    1  A    between atoms: C_1  and  C_2
REMARK    2  A    between atoms: C_2  and  C_3
REMARK    3  A    between atoms: C_2  and  C_4
REMARK    4  A    between atoms: C_2  and  N_7
REMARK    5  A    between atoms: C_8  and  C_10
REMARK    6  A    between atoms: C_10  and  C_17
REMARK    7  A    between atoms: C_17  and  N_19
REMARK                            x       y       z     vdW  Elec       q    Type
REMARK                         _______ _______ _______ _____ _____    ______ ____
ROOT
ATOM      1  N   UNL     1       0.696  -0.256  -1.240  0.00  0.00    -0.301 N 
ATOM      2  C   UNL     1       2.030  -0.136  -1.385  0.00  0.00    +0.226 C 
ATOM      3  O   UNL     1       2.683   0.433  -0.536  0.00  0.00    -0.275 OA
ATOM      4  H   UNL     1       0.165  -0.655  -1.948  0.00  0.00    +0.150 HD
ENDROOT
BRANCH   2   5
ATOM      5  C   UNL     1       2.711  -0.708  -2.602  0.00  0.00    +0.091 C 
ATOM      6  C   UNL     1       1.946  -0.255  -3.862  0.00  0.00    +0.023 C 
ATOM      7  C   UNL     1       1.548   1.186  -3.687  0.00  0.00    +0.001 C 
ATOM      8  C   UNL     1       2.570   2.159  -4.306  0.00  0.00    +0.000 C 
ATOM      9  C   UNL     1       4.029   1.744  -4.036  0.00  0.00    +0.000 C 
ATOM     10  C   UNL     1       4.239   1.260  -2.627  0.00  0.00    +0.001 C 
ATOM     11  C   UNL     1       4.101  -0.276  -2.611  0.00  0.00    +0.023 C 
BRANCH   5  12
ATOM     12  C   UNL     1       2.668  -2.212  -2.522  0.00  0.00    +0.061 C 
ATOM     13  S   UNL     1       4.019  -3.041  -2.313  0.00  0.00    -0.040 S 
BRANCH  12  14
ATOM     14  N   UNL     1       1.490  -2.859  -2.627  0.00  0.00    -0.355 N 
ATOM     15  H   UNL     1       0.663  -2.356  -2.684  0.00  0.00    +0.143 HD
ATOM     16  H   UNL     1       1.470  -3.829  -2.646  0.00  0.00    +0.143 HD
ENDBRANCH  12  14
ENDBRANCH   5  12
ENDBRANCH   2   5
BRANCH   1  18
ATOM     17  C   UNL     1       0.303   1.713   0.155  0.00  0.00    +0.041 C 
ATOM     18  C   UNL     1       0.046   0.214  -0.015  0.00  0.00    +0.105 C 
ATOM     19  C   UNL     1       0.618  -0.540   1.188  0.00  0.00    +0.041 C 
BRANCH  18  20
ATOM     20  C   UNL     1      -1.437  -0.035  -0.104  0.00  0.00    +0.233 C 
ATOM     21  O   UNL     1      -2.063  -0.335   0.890  0.00  0.00    -0.274 OA
ATOM     22  N   UNL     1      -2.068   0.076  -1.290  0.00  0.00    -0.328 N 
ATOM     23  H   UNL     1      -1.568   0.316  -2.086  0.00  0.00    +0.145 HD
ATOM     24  H   UNL     1      -3.023  -0.084  -1.348  0.00  0.00    +0.145 HD
ENDBRANCH  18  20
ENDBRANCH   1  18
TORSDOF 5
