REMARK  Name = ZINC38595880
REMARK  8 active torsions:
REMARK  status: ('A' for Active; 'I' for Inactive)
REMARK    1  A    between atoms: C_1  and  C_2
REMARK    2  A    between atoms: C_2  and  C_4
REMARK    3  A    between atoms: C_2  and  N_24
REMARK    4  A    between atoms: C_4  and  C_6
REMARK    5  A    between atoms: C_4  and  N_11
REMARK    6  A    between atoms: N_14  and  C_17
REMARK    7  A    between atoms: C_17  and  C_18
REMARK    8  A    between atoms: C_25  and  C_27
REMARK                            x       y       z     vdW  Elec       q    Type
REMARK                         _______ _______ _______ _____ _____    ______ ____
ROOT
ATOM      1  C   UNL     1      -1.392  -0.633  -0.052  0.00  0.00    +0.113 C 
ENDROOT
BRANCH   1   2
ATOM      2  N   UNL     1      -2.057  -0.241  -1.302  0.00  0.00    -0.297 NA
ATOM      3  C   UNL     1      -2.012   1.216  -1.489  0.00  0.00    +0.066 C 
ATOM      4  C   UNL     1      -2.661   1.577  -2.827  0.00  0.00    -0.063 C 
ATOM      5  N   UNL     1      -4.053   1.107  -2.838  0.00  0.00    +0.384 N 
ATOM      6  C   UNL     1      -4.080  -0.353  -2.676  0.00  0.00    -0.063 C 
ATOM      7  C   UNL     1      -3.443  -0.729  -1.336  0.00  0.00    +0.066 C 
ATOM      8  H   UNL     1      -4.560   1.539  -2.080  0.00  0.00    -0.081 HD
BRANCH   5   9
ATOM      9  C   UNL     1      -4.681   1.469  -4.116  0.00  0.00    -0.043 C 
BRANCH   9  10
ATOM     10  C   UNL     1      -6.141   1.098  -4.081  0.00  0.00    -0.064 A 
ATOM     11  C   UNL     1      -6.545  -0.157  -4.497  0.00  0.00    +0.002 A 
ATOM     12  C   UNL     1      -7.884  -0.498  -4.465  0.00  0.00    +0.000 A 
ATOM     13  C   UNL     1      -8.819   0.416  -4.017  0.00  0.00    +0.000 A 
ATOM     14  C   UNL     1      -8.415   1.671  -3.600  0.00  0.00    +0.000 A 
ATOM     15  C   UNL     1      -7.075   2.010  -3.628  0.00  0.00    +0.002 A 
ENDBRANCH   9  10
ENDBRANCH   5   9
ENDBRANCH   1   2
BRANCH   1  16
ATOM     16  C   UNL     1      -1.435  -2.132   0.091  0.00  0.00    +0.009 A 
ATOM     17  C   UNL     1      -1.659  -2.878   1.201  0.00  0.00    +0.013 A 
ATOM     18  C   UNL     1      -1.653  -4.256   1.095  0.00  0.00    +0.008 A 
ATOM     19  C   UNL     1      -1.423  -4.821  -0.115  0.00  0.00    +0.045 A 
ATOM     20  S   UNL     1      -1.212  -3.388  -1.159  0.00  0.00    -0.100 S 
ENDBRANCH   1  16
BRANCH   1  22
ATOM     21  C   UNL     1       0.771  -0.617   1.198  0.00  0.00    +0.030 C 
ATOM     22  C   UNL     1       0.065  -0.165  -0.082  0.00  0.00    +0.092 C 
BRANCH  22  23
ATOM     23  N   UNL     1       0.741  -0.745  -1.245  0.00  0.00    -0.307 N 
ATOM     24  C   UNL     1       1.816  -0.130  -1.775  0.00  0.00    +0.251 C 
ATOM     25  O   UNL     1       2.225   0.906  -1.289  0.00  0.00    -0.270 OA
ATOM     26  H   UNL     1       0.414  -1.572  -1.633  0.00  0.00    +0.149 HD
BRANCH  24  27
ATOM     27  C   UNL     1       2.496  -0.714  -2.944  0.00  0.00    +0.122 A 
ATOM     28  C   UNL     1       3.609  -0.107  -3.509  0.00  0.00    +0.031 A 
ATOM     29  C   UNL     1       4.191  -0.711  -4.653  0.00  0.00    +0.018 A 
ATOM     30  C   UNL     1       5.425  -0.263  -5.146  0.00  0.00    +0.011 A 
ATOM     31  C   UNL     1       5.992  -0.882  -6.222  0.00  0.00    +0.001 A 
ATOM     32  C   UNL     1       5.353  -1.949  -6.840  0.00  0.00    +0.004 A 
ATOM     33  C   UNL     1       4.129  -2.394  -6.385  0.00  0.00    +0.047 A 
ATOM     34  C   UNL     1       3.530  -1.775  -5.295  0.00  0.00    +0.139 A 
ATOM     35  O   UNL     1       2.309  -2.175  -4.866  0.00  0.00    -0.422 OA
ATOM     36  C   UNL     1       2.025  -1.969  -3.557  0.00  0.00    +0.350 A 
ATOM     37  O   UNL     1       1.400  -2.789  -2.910  0.00  0.00    -0.244 OA
ENDBRANCH  24  27
ENDBRANCH  22  23
ENDBRANCH   1  22
TORSDOF 7
