REMARK  Name = ZINC12557884
REMARK  11 active torsions:
REMARK  status: ('A' for Active; 'I' for Inactive)
REMARK    1  A    between atoms: C_1  and  C_2
REMARK    2  A    between atoms: C_6  and  N_8
REMARK    3  A    between atoms: C_9  and  C_28
REMARK    4  A    between atoms: C_12  and  S_13
REMARK    5  A    between atoms: S_13  and  C_14
REMARK    6  A    between atoms: C_14  and  C_15
REMARK    7  A    between atoms: C_15  and  C_17
REMARK    8  A    between atoms: C_15  and  O_27
REMARK    9  A    between atoms: C_17  and  O_18
REMARK   10  A    between atoms: O_18  and  C_19
REMARK   11  A    between atoms: C_22  and  C_25
REMARK                            x       y       z     vdW  Elec       q    Type
REMARK                         _______ _______ _______ _____ _____    ______ ____
ROOT
ATOM      1  S   UNL     1       1.077   5.605  -2.501  0.00  0.00    -0.083 S 
ENDROOT
BRANCH   1   6
ATOM      2  N   UNL     1      -0.069   5.245   0.029  0.00  0.00    -0.274 N 
ATOM      3  C   UNL     1      -0.537   6.061   1.024  0.00  0.00    +0.135 A 
ATOM      4  N   UNL     1      -0.366   7.291   0.629  0.00  0.00    -0.133 NA
ATOM      5  N   UNL     1       0.166   7.310  -0.540  0.00  0.00    -0.122 NA
ATOM      6  C   UNL     1       0.371   6.082  -0.959  0.00  0.00    +0.196 A 
ATOM      7  C   UNL     1      -1.136   5.619   2.335  0.00  0.00    +0.088 C 
BRANCH   2  13
ATOM      8  C   UNL     1       2.490   1.044  -0.016  0.00  0.00    +0.044 C 
ATOM      9  C   UNL     1       1.176   1.782   0.000  0.00  0.00    -0.048 A 
ATOM     10  C   UNL     1      -0.013   1.076   0.008  0.00  0.00    +0.003 A 
ATOM     11  C   UNL     1      -1.220   1.749   0.017  0.00  0.00    +0.002 A 
ATOM     12  C   UNL     1      -1.242   3.131   0.030  0.00  0.00    +0.026 A 
ATOM     13  C   UNL     1      -0.050   3.842   0.022  0.00  0.00    +0.050 A 
ATOM     14  C   UNL     1       1.161   3.163   0.007  0.00  0.00    +0.029 A 
ENDBRANCH   2  13
ENDBRANCH   1   6
BRANCH   1  15
ATOM     15  C   UNL     1       1.387   7.235  -3.223  0.00  0.00    +0.112 C 
BRANCH  15  16
ATOM     16  C   UNL     1       2.018   7.069  -4.607  0.00  0.00    +0.162 C 
BRANCH  16  17
ATOM     17  O   UNL     1       3.253   6.359  -4.485  0.00  0.00    -0.388 OA
ATOM     18  H   UNL     1       3.906   6.800  -3.925  0.00  0.00    +0.210 HD
ENDBRANCH  16  17
BRANCH  16  19
ATOM     19  C   UNL     1       2.280   8.447  -5.217  0.00  0.00    +0.261 C 
BRANCH  19  20
ATOM     20  O   UNL     1       2.761   8.292  -6.554  0.00  0.00    -0.489 OA
BRANCH  20  21
ATOM     21  C   UNL     1       3.044   9.427  -7.243  0.00  0.00    +0.121 A 
ATOM     22  C   UNL     1       2.856  10.666  -6.642  0.00  0.00    +0.047 A 
ATOM     23  C   UNL     1       3.147  11.821  -7.335  0.00  0.00    +0.022 A 
ATOM     24  C   UNL     1       3.622  11.745  -8.648  0.00  0.00    +0.052 A 
ATOM     25  C   UNL     1       3.804  10.496  -9.249  0.00  0.00    +0.022 A 
ATOM     26  C   UNL     1       3.515   9.347  -8.547  0.00  0.00    +0.047 A 
BRANCH  24  27
ATOM     27  C   UNL     1       3.921  12.942  -9.373  0.00  0.00    +0.099 C 
ATOM     28  N   UNL     1       4.159  13.892  -9.949  0.00  0.00    -0.191 NA
ENDBRANCH  24  27
ENDBRANCH  20  21
ENDBRANCH  19  20
ENDBRANCH  16  19
ENDBRANCH  15  16
ENDBRANCH   1  15
TORSDOF 9
