REMARK  Name = ZINC39659878
REMARK  5 active torsions:
REMARK  status: ('A' for Active; 'I' for Inactive)
REMARK    1  A    between atoms: C_4  and  S_7
REMARK    2  A    between atoms: S_7  and  C_8
REMARK    3  A    between atoms: C_9  and  C_14
REMARK    4  A    between atoms: C_18  and  C_27
REMARK    5  A    between atoms: N_29  and  C_30
REMARK                            x       y       z     vdW  Elec       q    Type
REMARK                         _______ _______ _______ _____ _____    ______ ____
ROOT
ATOM      1  C   UNL     1       5.878  -2.976   0.190  0.00  0.00    +0.249 C 
ATOM      2  O   UNL     1       6.196  -1.802   0.155  0.00  0.00    -0.270 OA
ATOM      3  N   UNL     1       6.829  -3.931   0.212  0.00  0.00    -0.296 N 
ATOM      4  C   UNL     1       6.642  -5.396   0.326  0.00  0.00    +0.121 C 
ATOM      5  C   UNL     1       7.693  -5.999  -0.633  0.00  0.00    +0.100 C 
ATOM      6  C   UNL     1       8.778  -4.917  -0.756  0.00  0.00    -0.004 C 
ATOM      7  C   UNL     1       8.298  -3.752   0.123  0.00  0.00    +0.115 C 
ATOM      8  C   UNL     1      10.115  -5.448  -0.247  0.00  0.00    -0.010 C 
ATOM      9  C   UNL     1      11.190  -4.374  -0.433  0.00  0.00    -0.082 C 
ATOM     10  N   UNL     1      11.291  -4.021  -1.855  0.00  0.00    +0.379 N 
ATOM     11  C   UNL     1      10.030  -3.425  -2.313  0.00  0.00    -0.082 C 
ATOM     12  C   UNL     1       8.905  -4.459  -2.206  0.00  0.00    -0.010 C 
ATOM     13  H   UNL     1      12.041  -3.358  -1.983  0.00  0.00    -0.086 HD
ATOM     14  H   UNL     1      11.484  -4.852  -2.393  0.00  0.00    -0.086 HD
ENDROOT
BRANCH   1  16
ATOM     15  C   UNL     1       3.507  -2.613  -0.524  0.00  0.00    +0.114 A 
ATOM     16  C   UNL     1       4.454  -3.354   0.207  0.00  0.00    +0.069 A 
ATOM     17  C   UNL     1       4.018  -4.457   0.949  0.00  0.00    +0.017 A 
ATOM     18  C   UNL     1       2.670  -4.770   0.932  0.00  0.00    +0.020 A 
ATOM     19  C   UNL     1       1.799  -3.993   0.189  0.00  0.00    +0.112 A 
ATOM     20  N   UNL     1       2.228  -2.954  -0.500  0.00  0.00    -0.248 NA
BRANCH  15  21
ATOM     21  S   UNL     1       4.026  -1.219  -1.468  0.00  0.00    -0.069 S 
BRANCH  21  25
ATOM     22  C   UNL     1       0.157   0.557  -3.016  0.00  0.00    +0.000 A 
ATOM     23  C   UNL     1       0.618   0.899  -1.758  0.00  0.00    +0.001 A 
ATOM     24  C   UNL     1       1.797   0.359  -1.283  0.00  0.00    +0.015 A 
ATOM     25  C   UNL     1       2.520  -0.528  -2.070  0.00  0.00    +0.014 A 
ATOM     26  C   UNL     1       2.054  -0.869  -3.334  0.00  0.00    +0.015 A 
ATOM     27  C   UNL     1       0.874  -0.326  -3.803  0.00  0.00    +0.001 A 
ENDBRANCH  21  25
ENDBRANCH  15  21
ENDBRANCH   1  16
BRANCH   5  28
ATOM     28  C   UNL     1       7.076  -6.282  -1.978  0.00  0.00    +0.218 C 
ATOM     29  O   UNL     1       6.218  -5.547  -2.418  0.00  0.00    -0.275 OA
ATOM     30  N   UNL     1       7.477  -7.353  -2.692  0.00  0.00    -0.312 N 
ATOM     31  H   UNL     1       8.164  -7.941  -2.339  0.00  0.00    +0.149 HD
BRANCH  30  32
ATOM     32  C   UNL     1       6.877  -7.628  -4.000  0.00  0.00    +0.073 C 
ATOM     33  C   UNL     1       5.584  -8.424  -3.810  0.00  0.00    +0.022 C 
ATOM     34  C   UNL     1       4.760  -8.372  -5.098  0.00  0.00    +0.002 C 
ATOM     35  C   UNL     1       4.757  -6.943  -5.645  0.00  0.00    +0.000 C 
ATOM     36  C   UNL     1       5.527  -6.901  -6.967  0.00  0.00    +0.000 C 
ATOM     37  C   UNL     1       7.029  -6.960  -6.684  0.00  0.00    +0.000 C 
ATOM     38  C   UNL     1       7.422  -8.392  -6.315  0.00  0.00    +0.002 C 
ATOM     39  C   UNL     1       7.856  -8.441  -4.849  0.00  0.00    +0.022 C 
ENDBRANCH  30  32
ENDBRANCH   5  28
TORSDOF 5
