REMARK  Name = ZINC01336699
REMARK  13 active torsions:
REMARK  status: ('A' for Active; 'I' for Inactive)
REMARK    1  A    between atoms: C_1  and  C_2
REMARK    2  A    between atoms: C_2  and  C_3
REMARK    3  A    between atoms: C_2  and  C_4
REMARK    4  A    between atoms: C_4  and  C_6
REMARK    5  A    between atoms: C_4  and  N_20
REMARK    6  A    between atoms: N_10  and  C_11
REMARK    7  A    between atoms: C_11  and  C_12
REMARK    8  A    between atoms: C_15  and  O_18
REMARK    9  A    between atoms: O_18  and  C_19
REMARK   10  A    between atoms: N_20  and  C_21
REMARK   11  A    between atoms: N_20  and  C_28
REMARK   12  A    between atoms: C_21  and  C_22
REMARK   13  A    between atoms: C_28  and  C_29
REMARK                            x       y       z     vdW  Elec       q    Type
REMARK                         _______ _______ _______ _____ _____    ______ ____
ROOT
ATOM      1  N   UNL     1      -1.845  -0.189   1.343  0.00  0.00    -0.284 NA
ENDROOT
BRANCH   1   2
ATOM      2  C   UNL     1      -1.391  -0.868   0.122  0.00  0.00    +0.130 C 
BRANCH   2   3
ATOM      3  C   UNL     1      -0.066  -1.536   0.382  0.00  0.00    +0.169 A 
ATOM      4  N   UNL     1       0.248  -2.275   1.418  0.00  0.00    -0.112 NA
ATOM      5  N   UNL     1       1.468  -2.664   1.275  0.00  0.00    -0.023 NA
ATOM      6  N   UNL     1       1.941  -2.192   0.175  0.00  0.00    -0.044 NA
ATOM      7  N   UNL     1       1.024  -1.496  -0.407  0.00  0.00    -0.223 N 
BRANCH   7   8
ATOM      8  C   UNL     1       1.146  -0.790  -1.685  0.00  0.00    +0.182 C 
BRANCH   8   9
ATOM      9  C   UNL     1       1.640   0.612  -1.440  0.00  0.00    -0.026 A 
ATOM     10  C   UNL     1       0.735   1.634  -1.220  0.00  0.00    +0.009 A 
ATOM     11  C   UNL     1       1.185   2.921  -0.996  0.00  0.00    +0.046 A 
ATOM     12  C   UNL     1       2.547   3.187  -0.990  0.00  0.00    +0.120 A 
ATOM     13  C   UNL     1       3.453   2.159  -1.211  0.00  0.00    +0.046 A 
ATOM     14  C   UNL     1       2.998   0.874  -1.430  0.00  0.00    +0.009 A 
BRANCH  12  15
ATOM     15  O   UNL     1       2.992   4.452  -0.770  0.00  0.00    -0.495 OA
ATOM     16  C   UNL     1       4.407   4.652  -0.778  0.00  0.00    +0.277 C 
ENDBRANCH  12  15
ENDBRANCH   8   9
ENDBRANCH   7   8
ENDBRANCH   2   3
BRANCH   2  18
ATOM     17  C   UNL     1      -2.683  -2.865   0.886  0.00  0.00    +0.009 C 
ATOM     18  C   UNL     1      -2.421  -1.921  -0.289  0.00  0.00    +0.008 C 
ATOM     19  C   UNL     1      -3.727  -1.229  -0.688  0.00  0.00    +0.009 C 
ENDBRANCH   2  18
ENDBRANCH   1   2
BRANCH   1  20
ATOM     20  C   UNL     1      -1.777   1.270   1.191  0.00  0.00    +0.120 C 
BRANCH  20  21
ATOM     21  C   UNL     1      -2.931   1.741   0.344  0.00  0.00    -0.033 A 
ATOM     22  C   UNL     1      -2.752   1.957  -1.010  0.00  0.00    +0.005 A 
ATOM     23  C   UNL     1      -3.810   2.388  -1.787  0.00  0.00    +0.000 A 
ATOM     24  C   UNL     1      -5.048   2.604  -1.211  0.00  0.00    +0.000 A 
ATOM     25  C   UNL     1      -5.228   2.387   0.142  0.00  0.00    +0.000 A 
ATOM     26  C   UNL     1      -4.170   1.951   0.919  0.00  0.00    +0.005 A 
ENDBRANCH  20  21
ENDBRANCH   1  20
BRANCH   1  27
ATOM     27  C   UNL     1      -1.071  -0.633   2.511  0.00  0.00    +0.126 C 
BRANCH  27  28
ATOM     28  C   UNL     1      -1.552   0.096   3.739  0.00  0.00    +0.031 A 
ATOM     29  C   UNL     1      -2.498  -0.467   4.533  0.00  0.00    +0.020 A 
ATOM     30  C   UNL     1      -2.944   0.266   5.717  0.00  0.00    +0.003 A 
ATOM     31  C   UNL     1      -3.918  -0.266   6.571  0.00  0.00    +0.059 A 
ATOM     32  C   UNL     1      -4.319   0.449   7.679  0.00  0.00    +0.167 A 
ATOM     33  C   UNL     1      -3.755   1.701   7.952  0.00  0.00    +0.168 A 
ATOM     34  C   UNL     1      -2.792   2.234   7.114  0.00  0.00    +0.075 A 
ATOM     35  C   UNL     1      -2.378   1.526   5.993  0.00  0.00    +0.053 A 
ATOM     36  N   UNL     1      -1.419   2.043   5.145  0.00  0.00    -0.322 N 
ATOM     37  H   UNL     1      -1.030   2.910   5.336  0.00  0.00    +0.169 HD
ATOM     38  C   UNL     1      -1.014   1.358   4.062  0.00  0.00    +0.254 A 
ATOM     39  O   UNL     1      -0.162   1.844   3.337  0.00  0.00    -0.268 OA
ATOM     40  O   UNL     1      -4.321   2.190   9.094  0.00  0.00    -0.453 OA
ATOM     41  C   UNL     1      -5.522   1.421   9.290  0.00  0.00    +0.466 C 
ATOM     42  O   UNL     1      -5.233   0.163   8.652  0.00  0.00    -0.453 OA
ENDBRANCH  27  28
ENDBRANCH   1  27
TORSDOF 10
