REMARK  Name = ZINC09470842
REMARK  14 active torsions:
REMARK  status: ('A' for Active; 'I' for Inactive)
REMARK    1  A    between atoms: C_1  and  C_2
REMARK    2  A    between atoms: C_4  and  C_12
REMARK    3  A    between atoms: C_5  and  C_11
REMARK    4  A    between atoms: N_6  and  C_7
REMARK    5  A    between atoms: C_7  and  C_8
REMARK    6  A    between atoms: C_8  and  O_9
REMARK    7  A    between atoms: O_9  and  C_10
REMARK    8  A    between atoms: C_12  and  C_14
REMARK    9  A    between atoms: C_14  and  S_15
REMARK   10  A    between atoms: S_15  and  C_16
REMARK   11  A    between atoms: C_19  and  C_28
REMARK   12  A    between atoms: N_20  and  C_21
REMARK   13  A    between atoms: C_28  and  C_30
REMARK   14  A    between atoms: C_28  and  N_69
REMARK                            x       y       z     vdW  Elec       q    Type
REMARK                         _______ _______ _______ _____ _____    ______ ____
ROOT
ATOM      1  C   UNL     1       7.161  -1.391  -0.559  0.00  0.00    +0.196 A 
ATOM      2  N   UNL     1       6.362  -2.430  -0.491  0.00  0.00    -0.122 NA
ATOM      3  N   UNL     1       7.051  -3.503  -0.332  0.00  0.00    -0.135 NA
ATOM      4  C   UNL     1       8.322  -3.217  -0.287  0.00  0.00    +0.125 A 
ATOM      5  N   UNL     1       8.440  -1.861  -0.436  0.00  0.00    -0.275 N 
ENDROOT
BRANCH   5   6
ATOM      6  C   UNL     1       9.625  -1.109  -0.455  0.00  0.00    +0.050 A 
ATOM      7  C   UNL     1      10.544  -1.287  -1.480  0.00  0.00    +0.029 A 
ATOM      8  C   UNL     1      11.707  -0.542  -1.500  0.00  0.00    +0.040 A 
ATOM      9  C   UNL     1      11.962   0.372  -0.492  0.00  0.00    +0.124 A 
ATOM     10  C   UNL     1      11.049   0.547   0.534  0.00  0.00    +0.040 A 
ATOM     11  C   UNL     1       9.882  -0.191   0.554  0.00  0.00    +0.029 A 
ATOM     12  F   UNL     1      13.103   1.096  -0.510  0.00  0.00    -0.205 F 
ENDBRANCH   5   6
BRANCH   4  13
ATOM     13  C   UNL     1       9.453  -4.198  -0.111  0.00  0.00    -0.002 C 
ATOM     14  C   UNL     1       9.486  -4.682   1.339  0.00  0.00    -0.005 C 
BRANCH  13  20
ATOM     15  C   UNL     1      10.350  -6.309  -0.883  0.00  0.00    -0.078 C 
ATOM     16  C   UNL     1      10.035  -7.554  -1.717  0.00  0.00    -0.019 C 
ATOM     17  C   UNL     1       9.849  -7.147  -3.181  0.00  0.00    -0.004 C 
ATOM     18  C   UNL     1       8.730  -6.106  -3.276  0.00  0.00    -0.019 C 
ATOM     19  C   UNL     1       9.083  -4.904  -2.397  0.00  0.00    -0.078 C 
ATOM     20  N   UNL     1       9.224  -5.358  -0.997  0.00  0.00    +0.386 N 
ATOM     21  H   UNL     1       8.358  -5.830  -0.711  0.00  0.00    -0.081 HD
ENDBRANCH  13  20
ENDBRANCH   4  13
BRANCH   1  22
ATOM     22  S   UNL     1       6.678   0.290  -0.775  0.00  0.00    -0.078 S 
BRANCH  22  23
ATOM     23  C   UNL     1       4.881   0.093  -0.860  0.00  0.00    +0.157 C 
BRANCH  23  24
ATOM     24  C   UNL     1       4.236   1.442  -1.049  0.00  0.00    +0.175 C 
ATOM     25  O   UNL     1       4.924   2.439  -1.119  0.00  0.00    -0.291 OA
BRANCH  24  29
ATOM     26  C   UNL     1      -0.721   0.274  -1.214  0.00  0.00    +0.063 C 
ATOM     27  C   UNL     1       0.592   1.015  -1.218  0.00  0.00    +0.017 A 
ATOM     28  C   UNL     1       1.804   0.452  -1.083  0.00  0.00    +0.034 A 
ATOM     29  C   UNL     1       2.779   1.549  -1.148  0.00  0.00    +0.039 A 
ATOM     30  C   UNL     1       2.038   2.703  -1.320  0.00  0.00    +0.026 A 
ATOM     31  N   UNL     1       0.738   2.365  -1.360  0.00  0.00    -0.345 N 
ATOM     32  C   UNL     1       2.593   4.099  -1.443  0.00  0.00    +0.064 C 
BRANCH  31  33
ATOM     33  C   UNL     1      -0.367   3.310  -1.536  0.00  0.00    +0.149 C 
BRANCH  33  34
ATOM     34  C   UNL     1      -0.843   3.800  -0.167  0.00  0.00    +0.181 C 
BRANCH  34  35
ATOM     35  O   UNL     1      -1.920   4.723  -0.340  0.00  0.00    -0.381 OA
ATOM     36  C   UNL     1      -2.441   5.244   0.885  0.00  0.00    +0.194 C 
ENDBRANCH  34  35
ENDBRANCH  33  34
ENDBRANCH  31  33
ENDBRANCH  24  29
ENDBRANCH  23  24
ENDBRANCH  22  23
ENDBRANCH   1  22
TORSDOF 10
