REMARK  Name = ZINC21892684
REMARK  8 active torsions:
REMARK  status: ('A' for Active; 'I' for Inactive)
REMARK    1  A    between atoms: C_1  and  O_2
REMARK    2  A    between atoms: O_2  and  C_3
REMARK    3  A    between atoms: C_6  and  C_11
REMARK    4  A    between atoms: C_8  and  O_9
REMARK    5  A    between atoms: O_9  and  C_10
REMARK    6  A    between atoms: N_28  and  C_29
REMARK    7  A    between atoms: C_33  and  S_35
REMARK    8  A    between atoms: S_35  and  C_36
REMARK                            x       y       z     vdW  Elec       q    Type
REMARK                         _______ _______ _______ _____ _____    ______ ____
ROOT
ATOM      1  C   UNL     1      -3.339   2.596  -1.845  0.00  0.00    +0.155 C 
ATOM      2  C   UNL     1      -3.324   1.584  -0.728  0.00  0.00    +0.049 A 
ATOM      3  C   UNL     1      -4.248   0.656  -0.434  0.00  0.00    +0.025 A 
ATOM      4  C   UNL     1      -3.792  -0.048   0.702  0.00  0.00    +0.020 A 
ATOM      5  C   UNL     1      -2.600   0.481   1.057  0.00  0.00    +0.091 A 
ATOM      6  N   UNL     1      -2.307   1.478   0.185  0.00  0.00    -0.318 N 
ATOM      7  C   UNL     1      -1.179   2.314   0.141  0.00  0.00    +0.051 A 
ATOM      8  C   UNL     1       0.102   1.796   0.220  0.00  0.00    +0.026 A 
ATOM      9  C   UNL     1       1.190   2.636   0.067  0.00  0.00    +0.002 A 
ATOM     10  C   UNL     1       0.995   3.987  -0.159  0.00  0.00    +0.000 A 
ATOM     11  C   UNL     1      -0.285   4.508  -0.213  0.00  0.00    +0.007 A 
ATOM     12  C   UNL     1      -1.374   3.679  -0.042  0.00  0.00    -0.006 A 
ATOM     13  C   UNL     1      -2.768   4.238  -0.001  0.00  0.00    +0.147 C 
ATOM     14  N   UNL     1      -3.501   3.942  -1.258  0.00  0.00    -0.268 N 
ATOM     15  C   UNL     1      -4.290   4.868  -1.840  0.00  0.00    +0.308 C 
ATOM     16  O   UNL     1      -4.884   4.601  -2.867  0.00  0.00    -0.252 OA
ATOM     17  N   UNL     1      -4.420   6.088  -1.284  0.00  0.00    -0.269 N 
ATOM     18  H   UNL     1      -3.818   6.358  -0.403  0.00  0.00    +0.156 HD
ENDROOT
BRANCH   1  22
ATOM     19  C   UNL     1       0.341   2.391  -4.013  0.00  0.00    +0.162 A 
ATOM     20  C   UNL     1      -0.185   1.252  -3.426  0.00  0.00    +0.050 A 
ATOM     21  C   UNL     1      -1.375   1.321  -2.727  0.00  0.00    +0.009 A 
ATOM     22  C   UNL     1      -2.042   2.526  -2.609  0.00  0.00    -0.017 A 
ATOM     23  C   UNL     1      -1.525   3.666  -3.196  0.00  0.00    +0.055 A 
ATOM     24  C   UNL     1      -0.330   3.604  -3.895  0.00  0.00    +0.162 A 
BRANCH  19  26
ATOM     25  C   UNL     1       2.146   1.047  -4.781  0.00  0.00    +0.277 C 
ATOM     26  O   UNL     1       1.512   2.325  -4.701  0.00  0.00    -0.491 OA
ENDBRANCH  19  26
BRANCH  24  27
ATOM     27  O   UNL     1       0.182   4.726  -4.468  0.00  0.00    -0.491 OA
ATOM     28  C   UNL     1      -0.561   5.935  -4.306  0.00  0.00    +0.277 C 
ENDBRANCH  24  27
ENDBRANCH   1  22
BRANCH  17  29
ATOM     29  C   UNL     1      -5.320   7.012  -1.826  0.00  0.00    +0.036 A 
ATOM     30  C   UNL     1      -5.031   8.371  -1.784  0.00  0.00    +0.023 A 
ATOM     31  C   UNL     1      -5.917   9.284  -2.325  0.00  0.00    +0.003 A 
ATOM     32  C   UNL     1      -7.096   8.851  -2.899  0.00  0.00    +0.015 A 
ATOM     33  C   UNL     1      -7.393   7.494  -2.939  0.00  0.00    +0.009 A 
ATOM     34  C   UNL     1      -6.503   6.573  -2.402  0.00  0.00    +0.038 A 
BRANCH  33  35
ATOM     35  S   UNL     1      -8.898   6.942  -3.670  0.00  0.00    -0.129 S 
ATOM     36  C   UNL     1      -9.707   8.471  -4.217  0.00  0.00    +0.090 C 
ENDBRANCH  33  35
ENDBRANCH  17  29
TORSDOF 5
