REMARK  Name = ZINC43093181
REMARK  7 active torsions:
REMARK  status: ('A' for Active; 'I' for Inactive)
REMARK    1  A    between atoms: C_1  and  C_2
REMARK    2  A    between atoms: C_6  and  C_23
REMARK    3  A    between atoms: N_9  and  C_10
REMARK    4  A    between atoms: C_10  and  C_12
REMARK    5  A    between atoms: C_10  and  C_19
REMARK    6  A    between atoms: C_19  and  C_21
REMARK    7  A    between atoms: C_19  and  N_22
REMARK                            x       y       z     vdW  Elec       q    Type
REMARK                         _______ _______ _______ _____ _____    ______ ____
ROOT
ATOM      1  C   UNL     1       0.291   0.038   2.407  0.00  0.00    -0.051 C 
ENDROOT
BRANCH   1   8
ATOM      2  C   UNL     1       0.190   2.827   2.096  0.00  0.00    -0.013 C 
ATOM      3  C   UNL     1      -0.516   1.889   1.115  0.00  0.00    -0.071 C 
ATOM      4  C   UNL     1      -0.538   2.529  -0.274  0.00  0.00    -0.015 C 
ATOM      5  C   UNL     1      -1.246   1.587  -1.253  0.00  0.00    +0.009 C 
ATOM      6  C   UNL     1      -0.532   0.233  -1.249  0.00  0.00    +0.058 C 
ATOM      7  C   UNL     1      -0.510  -0.322   0.177  0.00  0.00    -0.065 C 
ATOM      8  N   UNL     1       0.204   0.611   1.057  0.00  0.00    +0.385 N 
ATOM      9  H   UNL     1       1.134   0.766   0.699  0.00  0.00    -0.081 HD
BRANCH   6  10
ATOM     10  C   UNL     1      -1.266  -0.725  -2.152  0.00  0.00    +0.212 C 
ATOM     11  O   UNL     1      -1.723  -1.754  -1.700  0.00  0.00    -0.276 OA
ATOM     12  N   UNL     1      -1.414  -0.439  -3.460  0.00  0.00    -0.329 N 
ATOM     13  H   UNL     1      -1.048   0.383  -3.821  0.00  0.00    +0.145 HD
ATOM     14  H   UNL     1      -1.886  -1.056  -4.041  0.00  0.00    +0.145 HD
ENDBRANCH   6  10
ENDBRANCH   1   8
BRANCH   1  15
ATOM     15  C   UNL     1      -1.012  -0.636   2.752  0.00  0.00    -0.049 A 
ATOM     16  C   UNL     1      -1.246  -1.937   2.346  0.00  0.00    +0.003 A 
ATOM     17  C   UNL     1      -2.441  -2.556   2.662  0.00  0.00    +0.000 A 
ATOM     18  C   UNL     1      -3.402  -1.874   3.385  0.00  0.00    +0.001 A 
ATOM     19  C   UNL     1      -3.170  -0.574   3.791  0.00  0.00    +0.015 A 
ATOM     20  C   UNL     1      -1.972   0.044   3.478  0.00  0.00    +0.019 A 
ATOM     21 BR   UNL     1      -1.650   1.821   4.040  0.00  0.00    -0.050 Br
ENDBRANCH   1  15
BRANCH   1  22
ATOM     22  C   UNL     1       1.424  -0.989   2.453  0.00  0.00    -0.088 C 
ATOM     23  C   UNL     1       2.732  -0.324   2.019  0.00  0.00    -0.016 C 
BRANCH  22  24
ATOM     24  N   UNL     1       1.565  -1.502   3.822  0.00  0.00    +0.379 N 
ATOM     25  H   UNL     1       0.703  -1.940   4.107  0.00  0.00    -0.090 HD
ATOM     26  H   UNL     1       2.313  -2.179   3.852  0.00  0.00    -0.090 HD
ATOM     27  H   UNL     1       1.778  -0.738   4.447  0.00  0.00    -0.090 HD
ENDBRANCH  22  24
ENDBRANCH   1  22
TORSDOF 5
