REMARK  Name = ZINC64622877
REMARK  6 active torsions:
REMARK  status: ('A' for Active; 'I' for Inactive)
REMARK    1  A    between atoms: C_1  and  C_2
REMARK    2  A    between atoms: C_5  and  C_8
REMARK    3  A    between atoms: N_25  and  C_26
REMARK    4  A    between atoms: C_31  and  C_32
REMARK    5  A    between atoms: C_32  and  O_34
REMARK    6  A    between atoms: O_34  and  C_35
REMARK                            x       y       z     vdW  Elec       q    Type
REMARK                         _______ _______ _______ _____ _____    ______ ____
ROOT
ATOM      1  C   UNL     1       0.084  -4.295   0.008  0.00  0.00    +0.134 C 
ATOM      2  C   UNL     1       1.520  -4.817   0.121  0.00  0.00    +0.131 C 
ATOM      3  C   UNL     1       1.970  -4.546   1.551  0.00  0.00    -0.035 C 
ATOM      4  C   UNL     1       3.082  -3.825   1.464  0.00  0.00    -0.001 A 
ATOM      5  C   UNL     1       4.006  -3.321   2.493  0.00  0.00    +0.010 A 
ATOM      6  C   UNL     1       5.062  -2.591   2.046  0.00  0.00    +0.001 A 
ATOM      7  C   UNL     1       5.288  -2.315   0.694  0.00  0.00    +0.002 A 
ATOM      8  C   UNL     1       4.492  -2.741  -0.320  0.00  0.00    +0.026 A 
ATOM      9  C   UNL     1       3.352  -3.523   0.025  0.00  0.00    +0.043 A 
ATOM     10  N   UNL     1       2.438  -4.080  -0.750  0.00  0.00    -0.375 N 
ATOM     11  C   UNL     1       1.173  -4.995   2.751  0.00  0.00    +0.052 C 
ATOM     12  C   UNL     1      -0.273  -4.515   2.526  0.00  0.00    +0.114 C 
ATOM     13  N   UNL     1      -0.680  -4.822   1.150  0.00  0.00    -0.276 N 
ATOM     14  C   UNL     1      -1.763  -5.594   0.929  0.00  0.00    +0.307 C 
ATOM     15  O   UNL     1      -2.046  -5.934  -0.204  0.00  0.00    -0.252 OA
ATOM     16  N   UNL     1      -2.531  -5.989   1.963  0.00  0.00    -0.269 N 
ATOM     17  H   UNL     1      -2.353  -5.654   2.856  0.00  0.00    +0.156 HD
ATOM     18  H   UNL     1       2.374  -4.015  -1.715  0.00  0.00    +0.160 HD
ENDROOT
BRANCH   1  23
ATOM     19  C   UNL     1       0.089   1.482   0.155  0.00  0.00    +0.044 C 
ATOM     20  C   UNL     1       0.087  -0.024   0.117  0.00  0.00    -0.050 A 
ATOM     21  C   UNL     1       0.569  -0.744   1.195  0.00  0.00    +0.004 A 
ATOM     22  C   UNL     1       0.567  -2.126   1.160  0.00  0.00    +0.006 A 
ATOM     23  C   UNL     1       0.084  -2.788   0.047  0.00  0.00    -0.025 A 
ATOM     24  C   UNL     1      -0.398  -2.069  -1.031  0.00  0.00    +0.006 A 
ATOM     25  C   UNL     1      -0.400  -0.687  -0.994  0.00  0.00    +0.004 A 
ENDBRANCH   1  23
BRANCH  16  26
ATOM     26  C   UNL     1      -3.580  -6.880   1.751  0.00  0.00    +0.049 A 
ATOM     27  C   UNL     1      -3.543  -7.758   0.675  0.00  0.00    +0.024 A 
ATOM     28  C   UNL     1      -4.584  -8.640   0.467  0.00  0.00    +0.002 A 
ATOM     29  C   UNL     1      -5.671  -8.658   1.325  0.00  0.00    +0.001 A 
ATOM     30  C   UNL     1      -5.726  -7.794   2.398  0.00  0.00    +0.017 A 
ATOM     31  C   UNL     1      -4.677  -6.899   2.626  0.00  0.00    +0.080 A 
BRANCH  31  32
ATOM     32  C   UNL     1      -4.725  -5.977   3.774  0.00  0.00    +0.341 C 
ATOM     33  O   UNL     1      -3.866  -5.129   3.909  0.00  0.00    -0.245 OA
BRANCH  32  34
ATOM     34  O   UNL     1      -5.723  -6.075   4.675  0.00  0.00    -0.464 OA
ATOM     35  C   UNL     1      -5.707  -5.149   5.763  0.00  0.00    +0.280 C 
ENDBRANCH  32  34
ENDBRANCH  31  32
ENDBRANCH  16  26
TORSDOF 4
