REMARK  Name = ZINC64839523
REMARK  9 active torsions:
REMARK  status: ('A' for Active; 'I' for Inactive)
REMARK    1  A    between atoms: C_1  and  C_2
REMARK    2  A    between atoms: C_2  and  C_3
REMARK    3  A    between atoms: C_3  and  C_5
REMARK    4  A    between atoms: C_3  and  N_23
REMARK    5  A    between atoms: N_7  and  C_8
REMARK    6  A    between atoms: C_8  and  C_9
REMARK    7  A    between atoms: N_12  and  C_15
REMARK    8  A    between atoms: C_15  and  C_16
REMARK    9  A    between atoms: N_34  and  C_37
REMARK                            x       y       z     vdW  Elec       q    Type
REMARK                         _______ _______ _______ _____ _____    ______ ____
ROOT
ATOM      1  C   UNL     1       2.208  -0.296  -1.092  0.00  0.00    +0.236 C 
ATOM      2  O   UNL     1       3.021  -1.196  -1.117  0.00  0.00    -0.274 OA
ATOM      3  N   UNL     1       2.620   0.980  -0.963  0.00  0.00    -0.313 N 
ATOM      4  H   UNL     1       1.977   1.704  -1.010  0.00  0.00    +0.149 HD
ENDROOT
BRANCH   1   5
ATOM      5  C   UNL     1       0.738  -0.606  -1.207  0.00  0.00    +0.173 C 
BRANCH   5   6
ATOM      6  N   UNL     1       0.547  -2.057  -1.267  0.00  0.00    -0.323 N 
ATOM      7  C   UNL     1       0.929  -2.944  -0.282  0.00  0.00    +0.051 A 
ATOM      8  C   UNL     1       1.551  -2.771   0.952  0.00  0.00    +0.026 A 
ATOM      9  C   UNL     1       1.817  -3.865   1.745  0.00  0.00    +0.002 A 
ATOM     10  C   UNL     1       1.471  -5.143   1.327  0.00  0.00    +0.001 A 
ATOM     11  C   UNL     1       0.861  -5.334   0.119  0.00  0.00    +0.010 A 
ATOM     12  C   UNL     1       0.582  -4.240  -0.700  0.00  0.00    +0.009 A 
ATOM     13  C   UNL     1      -0.047  -4.095  -2.020  0.00  0.00    +0.033 A 
ATOM     14  C   UNL     1      -0.045  -2.731  -2.312  0.00  0.00    +0.119 A 
ATOM     15  C   UNL     1      -0.605  -2.302  -3.539  0.00  0.00    +0.291 A 
ATOM     16  O   UNL     1      -0.618  -1.117  -3.830  0.00  0.00    -0.264 OA
ATOM     17  N   UNL     1      -1.125  -3.216  -4.383  0.00  0.00    -0.231 N 
ATOM     18  N   UNL     1      -1.116  -4.577  -4.062  0.00  0.00    -0.176 NA
ATOM     19  C   UNL     1      -0.600  -5.006  -2.944  0.00  0.00    +0.143 A 
ATOM     20  C   UNL     1      -1.706  -2.777  -5.654  0.00  0.00    +0.176 C 
ENDBRANCH   5   6
BRANCH   5  22
ATOM     21  C   UNL     1      -1.505  -0.237  -0.169  0.00  0.00    +0.006 C 
ATOM     22  C   UNL     1       0.002  -0.045   0.012  0.00  0.00    +0.031 C 
ENDBRANCH   5  22
ENDBRANCH   1   5
BRANCH   3  23
ATOM     23  C   UNL     1       4.040   1.274  -0.751  0.00  0.00    +0.107 C 
BRANCH  23  24
ATOM     24  C   UNL     1       4.236   2.787  -0.637  0.00  0.00    +0.003 C 
ATOM     25  C   UNL     1       3.533   3.301   0.622  0.00  0.00    -0.014 C 
ATOM     26  C   UNL     1       3.800   4.801   0.772  0.00  0.00    -0.078 C 
ATOM     27  N   UNL     1       5.244   5.035   0.886  0.00  0.00    +0.382 N 
ATOM     28  C   UNL     1       5.917   4.610  -0.348  0.00  0.00    -0.078 C 
ATOM     29  C   UNL     1       5.731   3.103  -0.541  0.00  0.00    -0.014 C 
ATOM     30  H   UNL     1       5.609   4.508   1.665  0.00  0.00    -0.081 HD
BRANCH  27  31
ATOM     31  C   UNL     1       5.491   6.466   1.108  0.00  0.00    -0.040 C 
BRANCH  31  32
ATOM     32  C   UNL     1       6.961   6.692   1.347  0.00  0.00    -0.029 A 
ATOM     33  C   UNL     1       7.437   6.842   2.636  0.00  0.00    +0.004 A 
ATOM     34  C   UNL     1       8.786   7.049   2.855  0.00  0.00    +0.000 A 
ATOM     35  C   UNL     1       9.661   7.106   1.786  0.00  0.00    +0.003 A 
ATOM     36  C   UNL     1       9.188   6.955   0.496  0.00  0.00    +0.038 A 
ATOM     37  C   UNL     1       7.837   6.743   0.276  0.00  0.00    +0.125 A 
ATOM     38  F   UNL     1       7.374   6.591  -0.984  0.00  0.00    -0.205 F 
ENDBRANCH  31  32
ENDBRANCH  27  31
ENDBRANCH  23  24
ENDBRANCH   3  23
TORSDOF 7
