REMARK  Name = ZINC10394817
REMARK  6 active torsions:
REMARK  status: ('A' for Active; 'I' for Inactive)
REMARK    1  A    between atoms: C_1  and  C_2
REMARK    2  A    between atoms: C_4  and  C_8
REMARK    3  A    between atoms: C_5  and  C_7
REMARK    4  A    between atoms: C_8  and  O_10
REMARK    5  A    between atoms: O_10  and  C_11
REMARK    6  A    between atoms: C_11  and  C_12
REMARK                            x       y       z     vdW  Elec       q    Type
REMARK                         _______ _______ _______ _____ _____    ______ ____
ROOT
ATOM      1  C   UNL     1       1.112   2.305   4.949  0.00  0.00    +0.170 A 
ATOM      2  N   UNL     1       1.886   1.892   3.961  0.00  0.00    -0.214 NA
ATOM      3  C   UNL     1       1.396   1.534   2.785  0.00  0.00    +0.128 A 
ATOM      4  C   UNL     1      -0.010   1.594   2.575  0.00  0.00    +0.051 A 
ATOM      5  C   UNL     1      -0.770   1.245   1.366  0.00  0.00    -0.025 A 
ATOM      6  C   UNL     1      -2.105   1.409   1.425  0.00  0.00    -0.004 A 
ATOM      7  S   UNL     1      -2.433   1.999   3.066  0.00  0.00    -0.073 S 
ATOM      8  C   UNL     1      -0.768   2.046   3.672  0.00  0.00    +0.114 A 
ATOM      9  N   UNL     1      -0.197   2.383   4.812  0.00  0.00    -0.221 NA
ATOM     10  C   UNL     1      -3.107   1.153   0.342  0.00  0.00    +0.043 C 
ATOM     11  C   UNL     1      -2.857  -0.234  -0.264  0.00  0.00    +0.005 C 
ATOM     12  C   UNL     1      -1.871  -0.083  -1.419  0.00  0.00    +0.001 C 
ATOM     13  C   UNL     1      -0.888   1.047  -1.121  0.00  0.00    +0.005 C 
ATOM     14  C   UNL     1      -0.064   0.723   0.119  0.00  0.00    +0.037 C 
ATOM     15  N   UNL     1       2.239   1.106   1.775  0.00  0.00    -0.343 N 
ATOM     16  H   UNL     1       1.912   0.494   1.097  0.00  0.00    +0.144 HD
ATOM     17  H   UNL     1       3.157   1.418   1.745  0.00  0.00    +0.144 HD
ENDROOT
BRANCH   1  18
ATOM     18  C   UNL     1       1.740   2.697   6.262  0.00  0.00    +0.308 C 
BRANCH  18  19
ATOM     19  O   UNL     1       1.819   1.534   7.127  0.00  0.00    -0.453 OA
BRANCH  19  20
ATOM     20  C   UNL     1       2.360   1.714   8.348  0.00  0.00    +0.343 C 
ATOM     21  O   UNL     1       2.755   2.815   8.681  0.00  0.00    -0.245 OA
BRANCH  20  25
ATOM     22  C   UNL     1       2.097  -2.949  10.398  0.00  0.00    +0.086 C 
ATOM     23  C   UNL     1       2.348  -1.481  10.165  0.00  0.00    +0.103 A 
ATOM     24  C   UNL     1       2.043  -0.808   9.046  0.00  0.00    +0.059 A 
ATOM     25  C   UNL     1       2.472   0.579   9.279  0.00  0.00    +0.100 A 
ATOM     26  C   UNL     1       2.991   0.596  10.541  0.00  0.00    +0.116 A 
ATOM     27  O   UNL     1       2.907  -0.638  11.048  0.00  0.00    -0.464 OA
ATOM     28  C   UNL     1       3.562   1.800  11.245  0.00  0.00    +0.087 C 
ENDBRANCH  20  25
ENDBRANCH  19  20
ENDBRANCH  18  19
ENDBRANCH   1  18
TORSDOF 4
