REMARK  Name = ZINC12170472
REMARK  12 active torsions:
REMARK  status: ('A' for Active; 'I' for Inactive)
REMARK    1  A    between atoms: C_1  and  C_2
REMARK    2  A    between atoms: C_5  and  C_35
REMARK    3  A    between atoms: C_6  and  O_8
REMARK    4  A    between atoms: O_8  and  C_9
REMARK    5  A    between atoms: C_9  and  C_10
REMARK    6  A    between atoms: C_10  and  C_12
REMARK    7  A    between atoms: C_10  and  O_34
REMARK    8  A    between atoms: C_12  and  N_73
REMARK    9  A    between atoms: C_15  and  C_18
REMARK   10  A    between atoms: C_18  and  N_19
REMARK   11  A    between atoms: C_35  and  C_36
REMARK   12  A    between atoms: C_35  and  C_37
REMARK                            x       y       z     vdW  Elec       q    Type
REMARK                         _______ _______ _______ _____ _____    ______ ____
ROOT
ATOM      1  C   UNL     1      -0.836   3.414  -0.923  0.00  0.00    -0.078 C 
ATOM      2  C   UNL     1      -0.903   1.886  -0.874  0.00  0.00    -0.014 C 
ATOM      3  C   UNL     1      -0.407   1.401   0.491  0.00  0.00    +0.003 C 
ATOM      4  C   UNL     1      -1.259   2.039   1.592  0.00  0.00    -0.014 C 
ATOM      5  C   UNL     1      -1.183   3.563   1.471  0.00  0.00    -0.078 C 
ATOM      6  N   UNL     1      -1.697   3.966   0.145  0.00  0.00    +0.381 N 
ATOM      7  H   UNL     1      -2.648   3.597   0.030  0.00  0.00    -0.082 HD
ENDROOT
BRANCH   6   8
ATOM      8  C   UNL     1      -1.740   5.440   0.047  0.00  0.00    -0.044 C 
BRANCH   8   9
ATOM      9  C   UNL     1      -2.684   5.827  -1.093  0.00  0.00    +0.135 C 
BRANCH   9  10
ATOM     10  O   UNL     1      -4.001   5.358  -0.800  0.00  0.00    -0.390 OA
ATOM     11  H   UNL     1      -4.375   5.718   0.015  0.00  0.00    +0.210 HD
ENDBRANCH   9  10
BRANCH   9  12
ATOM     12  C   UNL     1      -2.706   7.350  -1.242  0.00  0.00    +0.258 C 
BRANCH  12  13
ATOM     13  O   UNL     1      -3.495   7.706  -2.378  0.00  0.00    -0.489 OA
BRANCH  13  19
ATOM     14  C   UNL     1      -2.439  12.335  -1.250  0.00  0.00    +0.044 C 
ATOM     15  C   UNL     1      -3.119  11.316  -2.127  0.00  0.00    -0.047 A 
ATOM     16  C   UNL     1      -3.869  11.729  -3.213  0.00  0.00    +0.004 A 
ATOM     17  C   UNL     1      -4.494  10.796  -4.019  0.00  0.00    +0.008 A 
ATOM     18  C   UNL     1      -4.365   9.447  -3.745  0.00  0.00    -0.003 A 
ATOM     19  C   UNL     1      -3.618   9.031  -2.653  0.00  0.00    +0.124 A 
ATOM     20  C   UNL     1      -2.992   9.969  -1.845  0.00  0.00    +0.049 A 
BRANCH  18  21
ATOM     21  C   UNL     1      -5.042   8.431  -4.628  0.00  0.00    +0.016 C 
ATOM     22  C   UNL     1      -6.552   8.672  -4.620  0.00  0.00    +0.012 C 
ATOM     23  C   UNL     1      -4.512   8.564  -6.058  0.00  0.00    +0.012 C 
ENDBRANCH  18  21
ENDBRANCH  13  19
ENDBRANCH  12  13
ENDBRANCH   9  12
ENDBRANCH   8   9
ENDBRANCH   6   8
BRANCH   3  24
ATOM     24  C   UNL     1      -0.528  -0.122   0.568  0.00  0.00    +0.120 C 
BRANCH  24  25
ATOM     25  N   UNL     1       0.054  -0.595   1.827  0.00  0.00    -0.234 N 
ATOM     26  C   UNL     1       1.360  -0.920   1.855  0.00  0.00    +0.254 C 
ATOM     27  O   UNL     1       2.031  -0.817   0.847  0.00  0.00    -0.270 OA
ATOM     28  C   UNL     1       1.981  -1.395   3.101  0.00  0.00    +0.046 A 
ATOM     29  C   UNL     1       3.323  -1.734   3.177  0.00  0.00    +0.014 A 
ATOM     30  C   UNL     1       3.863  -2.182   4.377  0.00  0.00    +0.001 A 
ATOM     31  C   UNL     1       3.102  -2.300   5.504  0.00  0.00    +0.008 A 
ATOM     32  C   UNL     1       1.737  -1.966   5.470  0.00  0.00    -0.016 A 
ATOM     33  C   UNL     1       1.177  -1.510   4.258  0.00  0.00    +0.006 A 
ATOM     34  C   UNL     1      -0.192  -1.165   4.191  0.00  0.00    +0.046 A 
ATOM     35  C   UNL     1      -0.972  -1.282   5.332  0.00  0.00    +0.014 A 
ATOM     36  C   UNL     1      -0.409  -1.732   6.520  0.00  0.00    +0.001 A 
ATOM     37  C   UNL     1       0.912  -2.070   6.603  0.00  0.00    +0.008 A 
ATOM     38  C   UNL     1      -0.739  -0.694   2.910  0.00  0.00    +0.254 C 
ATOM     39  O   UNL     1      -1.915  -0.393   2.829  0.00  0.00    -0.270 OA
ENDBRANCH  24  25
ENDBRANCH   3  24
TORSDOF 9
