REMARK  Name = ZINC36595156
REMARK  14 active torsions:
REMARK  status: ('A' for Active; 'I' for Inactive)
REMARK    1  A    between atoms: C_1  and  C_2
REMARK    2  A    between atoms: C_5  and  C_9
REMARK    3  A    between atoms: C_6  and  C_8
REMARK    4  A    between atoms: C_9  and  C_11
REMARK    5  A    between atoms: C_9  and  N_18
REMARK    6  A    between atoms: N_13  and  C_14
REMARK    7  A    between atoms: C_14  and  C_15
REMARK    8  A    between atoms: C_14  and  C_16
REMARK    9  A    between atoms: C_14  and  C_17
REMARK   10  A    between atoms: N_18  and  C_19
REMARK   11  A    between atoms: C_19  and  C_20
REMARK   12  A    between atoms: C_23  and  C_25
REMARK   13  A    between atoms: C_26  and  C_28
REMARK   14  A    between atoms: C_28  and  C_29
REMARK                            x       y       z     vdW  Elec       q    Type
REMARK                         _______ _______ _______ _____ _____    ______ ____
ROOT
ATOM      1  N   UNL     1      -0.691  -5.059  -1.162  0.00  0.00    -0.278 N 
ATOM      2  C   UNL     1      -1.149  -6.322  -1.063  0.00  0.00    +0.221 C 
ATOM      3  O   UNL     1      -0.920  -6.974  -0.067  0.00  0.00    -0.275 OA
ENDROOT
BRANCH   1   4
ATOM      4  C   UNL     1       0.084  -4.472  -0.066  0.00  0.00    +0.193 C 
BRANCH   4   9
ATOM      5  C   UNL     1       0.900   1.157  -1.083  0.00  0.00    +0.044 C 
ATOM      6  C   UNL     1       0.687  -0.311  -0.818  0.00  0.00    -0.050 A 
ATOM      7  C   UNL     1       1.716  -1.209  -1.032  0.00  0.00    +0.004 A 
ATOM      8  C   UNL     1       1.521  -2.555  -0.789  0.00  0.00    +0.006 A 
ATOM      9  C   UNL     1       0.297  -3.004  -0.330  0.00  0.00    -0.015 A 
ATOM     10  C   UNL     1      -0.732  -2.107  -0.115  0.00  0.00    -0.045 A 
ATOM     11  C   UNL     1      -0.535  -0.759  -0.354  0.00  0.00    +0.007 A 
ATOM     12  C   UNL     1      -2.067  -2.596   0.385  0.00  0.00    +0.044 C 
ENDBRANCH   4   9
BRANCH   4  13
ATOM     13  C   UNL     1       1.419  -5.164   0.032  0.00  0.00    +0.239 C 
ATOM     14  O   UNL     1       1.809  -5.860  -0.881  0.00  0.00    -0.273 OA
ATOM     15  N   UNL     1       2.179  -5.009   1.134  0.00  0.00    -0.309 N 
ATOM     16  H   UNL     1       1.840  -4.504   1.890  0.00  0.00    +0.149 HD
BRANCH  15  17
ATOM     17  C   UNL     1       3.517  -5.604   1.191  0.00  0.00    +0.026 C 
ATOM     18  C   UNL     1       4.378  -5.029   0.064  0.00  0.00    +0.031 C 
ATOM     19  C   UNL     1       4.161  -5.281   2.541  0.00  0.00    +0.031 C 
ATOM     20  C   UNL     1       3.408  -7.121   1.027  0.00  0.00    +0.031 C 
ENDBRANCH  15  17
ENDBRANCH   4  13
ENDBRANCH   1   4
BRANCH   1  21
ATOM     21  C   UNL     1      -0.968  -4.271  -2.366  0.00  0.00    +0.183 C 
BRANCH  21  22
ATOM     22  C   UNL     1       0.155  -4.453  -3.354  0.00  0.00    +0.122 A 
ATOM     23  C   UNL     1       0.169  -5.326  -4.378  0.00  0.00    +0.046 A 
ATOM     24  C   UNL     1       1.407  -5.160  -5.041  0.00  0.00    +0.045 A 
ATOM     25  C   UNL     1       2.075  -4.195  -4.383  0.00  0.00    +0.102 A 
ATOM     26  O   UNL     1       1.310  -3.767  -3.366  0.00  0.00    -0.463 OA
ATOM     27  C   UNL     1       3.447  -3.678  -4.732  0.00  0.00    +0.086 C 
ENDBRANCH  21  22
ENDBRANCH   1  21
BRANCH   2  28
ATOM     28  C   UNL     1      -1.946  -6.926  -2.191  0.00  0.00    +0.131 C 
BRANCH  28  29
ATOM     29  C   UNL     1      -2.335  -8.336  -1.833  0.00  0.00    -0.039 A 
ATOM     30  C   UNL     1      -1.500  -9.388  -2.161  0.00  0.00    +0.005 A 
ATOM     31  C   UNL     1      -1.857 -10.682  -1.832  0.00  0.00    +0.015 A 
ATOM     32  C   UNL     1      -3.049 -10.925  -1.174  0.00  0.00    +0.018 A 
ATOM     33  C   UNL     1      -3.884  -9.873  -0.846  0.00  0.00    +0.015 A 
ATOM     34  C   UNL     1      -3.525  -8.578  -1.171  0.00  0.00    +0.005 A 
ATOM     35 BR   UNL     1      -3.538 -12.696  -0.725  0.00  0.00    -0.050 Br
ENDBRANCH  28  29
ENDBRANCH   2  28
TORSDOF 8
