REMARK  Name = ZINC14467778
REMARK  4 active torsions:
REMARK  status: ('A' for Active; 'I' for Inactive)
REMARK    1  A    between atoms: C_1  and  N_2
REMARK    2  A    between atoms: C_3  and  C_5
REMARK    3  A    between atoms: C_12  and  C_21
REMARK    4  A    between atoms: C_26  and  O_27
REMARK                            x       y       z     vdW  Elec       q    Type
REMARK                         _______ _______ _______ _____ _____    ______ ____
ROOT
ATOM      1  C   UNL     1      -2.255   0.784  -2.278  0.00  0.00    +0.058 A 
ATOM      2  C   UNL     1      -3.611   0.599  -2.551  0.00  0.00    +0.015 A 
ATOM      3  C   UNL     1      -4.492   0.393  -1.512  0.00  0.00    +0.001 A 
ATOM      4  C   UNL     1      -4.037   0.367  -0.207  0.00  0.00    +0.006 A 
ATOM      5  C   UNL     1      -2.693   0.545   0.085  0.00  0.00    -0.019 A 
ATOM      6  C   UNL     1      -1.795   0.757  -0.947  0.00  0.00    +0.044 A 
ATOM      7  N   UNL     1      -0.440   0.948  -0.723  0.00  0.00    -0.336 N 
ATOM      8  C   UNL     1       0.010   0.317   0.518  0.00  0.00    +0.109 C 
ATOM      9  C   UNL     1      -0.788   0.881   1.695  0.00  0.00    +0.029 C 
ATOM     10  C   UNL     1      -2.273   0.491   1.525  0.00  0.00    +0.049 C 
ATOM     11  C   UNL     1      -2.345  -0.925   2.047  0.00  0.00    -0.023 C 
ATOM     12  C   UNL     1      -1.329  -1.177   2.833  0.00  0.00    -0.030 C 
ATOM     13  C   UNL     1      -0.436   0.042   2.956  0.00  0.00    +0.033 C 
ATOM     14  H   UNL     1       0.105   0.629  -1.509  0.00  0.00    +0.147 HD
ENDROOT
BRANCH   8  15
ATOM     15  C   UNL     1       1.476   0.601   0.723  0.00  0.00    +0.017 A 
ATOM     16  C   UNL     1       2.333  -0.420   1.088  0.00  0.00    +0.029 A 
ATOM     17  C   UNL     1       3.679  -0.160   1.276  0.00  0.00    +0.043 A 
ATOM     18  C   UNL     1       4.170   1.122   1.100  0.00  0.00    +0.043 A 
ATOM     19  C   UNL     1       3.316   2.145   0.735  0.00  0.00    +0.084 A 
ATOM     20  C   UNL     1       1.966   1.885   0.540  0.00  0.00    +0.140 A 
ATOM     21 CL   UNL     1       3.931   3.753   0.513  0.00  0.00    -0.080 Cl
ATOM     22 CL   UNL     1       4.754  -1.444   1.736  0.00  0.00    -0.083 Cl
BRANCH  20  23
ATOM     23  O   UNL     1       1.125   2.889   0.176  0.00  0.00    -0.505 OA
ATOM     24  H   UNL     1       0.727   3.359   0.922  0.00  0.00    +0.292 HD
ENDBRANCH  20  23
ENDBRANCH   8  15
BRANCH   1  27
ATOM     25  C   UNL     1      -0.774   1.119  -5.758  0.00  0.00    +0.128 C 
ATOM     26  N   UNL     1      -1.719   0.898  -4.660  0.00  0.00    -0.314 N 
ATOM     27  C   UNL     1      -1.304   1.006  -3.382  0.00  0.00    +0.246 C 
ATOM     28  O   UNL     1      -0.146   1.287  -3.140  0.00  0.00    -0.270 OA
ATOM     29  H   UNL     1      -2.643   0.674  -4.853  0.00  0.00    +0.149 HD
ENDBRANCH   1  27
TORSDOF 3
