REMARK  Name = ZINC14668550
REMARK  9 active torsions:
REMARK  status: ('A' for Active; 'I' for Inactive)
REMARK    1  A    between atoms: C_1  and  C_2
REMARK    2  A    between atoms: C_2  and  C_3
REMARK    3  A    between atoms: C_2  and  O_4
REMARK    4  A    between atoms: O_4  and  C_5
REMARK    5  A    between atoms: C_10  and  C_11
REMARK    6  A    between atoms: N_13  and  C_14
REMARK    7  A    between atoms: C_14  and  N_16
REMARK    8  A    between atoms: N_16  and  C_17
REMARK    9  A    between atoms: C_22  and  N_23
REMARK                            x       y       z     vdW  Elec       q    Type
REMARK                         _______ _______ _______ _____ _____    ______ ____
ROOT
ATOM      1  C   UNL     1      -2.835   0.373  -0.344  0.00  0.00    +0.253 C 
ATOM      2  O   UNL     1      -2.802   1.576  -0.517  0.00  0.00    -0.270 OA
ATOM      3  N   UNL     1      -3.990  -0.226   0.007  0.00  0.00    -0.263 N 
ATOM      4  H   UNL     1      -4.016  -1.186   0.144  0.00  0.00    +0.157 HD
ENDROOT
BRANCH   1  10
ATOM      5  C   UNL     1      -0.407   0.188  -0.884  0.00  0.00    +0.133 A 
ATOM      6  C   UNL     1       0.739  -0.577  -1.040  0.00  0.00    +0.047 A 
ATOM      7  C   UNL     1       0.693  -1.942  -0.842  0.00  0.00    +0.019 A 
ATOM      8  C   UNL     1      -0.496  -2.559  -0.486  0.00  0.00    +0.019 A 
ATOM      9  C   UNL     1      -1.645  -1.814  -0.327  0.00  0.00    +0.032 A 
ATOM     10  C   UNL     1      -1.611  -0.430  -0.519  0.00  0.00    +0.080 A 
ATOM     11 BR   UNL     1      -0.543  -4.431  -0.219  0.00  0.00    -0.050 Br
BRANCH   5  12
ATOM     12  O   UNL     1      -0.363   1.530  -1.078  0.00  0.00    -0.489 OA
BRANCH  12  14
ATOM     13  C   UNL     1       1.171   2.158  -2.837  0.00  0.00    +0.051 C 
ATOM     14  C   UNL     1       0.920   2.107  -1.328  0.00  0.00    +0.167 C 
ATOM     15  C   UNL     1       0.962   3.526  -0.757  0.00  0.00    +0.051 C 
ENDBRANCH  12  14
ENDBRANCH   5  12
ENDBRANCH   1  10
BRANCH   3  16
ATOM     16  C   UNL     1      -5.109   0.509   0.167  0.00  0.00    +0.141 C 
ATOM     17  S   UNL     1      -5.062   2.203  -0.076  0.00  0.00    -0.018 S 
BRANCH  16  18
ATOM     18  N   UNL     1      -6.264  -0.090   0.517  0.00  0.00    -0.295 N 
ATOM     19  H   UNL     1      -6.275  -1.038   0.725  0.00  0.00    +0.154 HD
BRANCH  18  20
ATOM     20  C   UNL     1      -7.447   0.655   0.583  0.00  0.00    +0.063 A 
ATOM     21  C   UNL     1      -7.466   1.871   1.252  0.00  0.00    +0.027 A 
ATOM     22  C   UNL     1      -8.635   2.605   1.315  0.00  0.00    +0.022 A 
ATOM     23  C   UNL     1      -9.785   2.129   0.710  0.00  0.00    +0.043 A 
ATOM     24  C   UNL     1      -9.768   0.917   0.042  0.00  0.00    +0.054 A 
ATOM     25  C   UNL     1      -8.601   0.182  -0.028  0.00  0.00    +0.149 A 
ATOM     26 CL   UNL     1     -11.252   3.053   0.790  0.00  0.00    -0.083 Cl
BRANCH  25  27
ATOM     27  N   UNL     1      -8.582  -1.112  -0.747  0.00  0.00    +0.058 N 
ATOM     28  O   UNL     1      -9.569  -1.485  -1.354  0.00  0.00    -0.126 OA
ATOM     29  O   UNL     1      -7.578  -1.802  -0.732  0.00  0.00    -0.126 OA
ENDBRANCH  25  27
ENDBRANCH  18  20
ENDBRANCH  16  18
ENDBRANCH   3  16
TORSDOF 7
