REMARK  Name = ZINC09055832
REMARK  6 active torsions:
REMARK  status: ('A' for Active; 'I' for Inactive)
REMARK    1  A    between atoms: C_1  and  C_2
REMARK    2  A    between atoms: C_2  and  C_4
REMARK    3  A    between atoms: C_2  and  O_16
REMARK    4  A    between atoms: O_16  and  C_17
REMARK    5  A    between atoms: C_17  and  C_19
REMARK    6  A    between atoms: C_23  and  N_25
REMARK                            x       y       z     vdW  Elec       q    Type
REMARK                         _______ _______ _______ _____ _____    ______ ____
ROOT
ATOM      1  C   UNL     1       3.347  -0.832  -1.424  0.00  0.00    +0.340 C 
ATOM      2  O   UNL     1       3.748  -1.372  -0.412  0.00  0.00    -0.245 OA
ENDROOT
BRANCH   1   3
ATOM      3  C   UNL     1       3.606  -1.448  -2.741  0.00  0.00    +0.061 A 
ATOM      4  C   UNL     1       3.142  -0.832  -3.906  0.00  0.00    +0.015 A 
ATOM      5  C   UNL     1       3.390  -1.407  -5.136  0.00  0.00    +0.003 A 
ATOM      6  C   UNL     1       4.088  -2.597  -5.219  0.00  0.00    +0.024 A 
ATOM      7  C   UNL     1       4.550  -3.220  -4.067  0.00  0.00    +0.045 A 
ATOM      8  C   UNL     1       4.311  -2.649  -2.827  0.00  0.00    +0.039 A 
BRANCH   7   9
ATOM      9  N   UNL     1       5.258  -4.427  -4.158  0.00  0.00    -0.202 N 
ATOM     10  C   UNL     1       5.750  -5.102  -3.103  0.00  0.00    +0.258 C 
ATOM     11  O   UNL     1       5.653  -4.768  -1.940  0.00  0.00    -0.269 OA
ATOM     12  C   UNL     1       6.425  -6.320  -3.598  0.00  0.00    +0.050 A 
ATOM     13  C   UNL     1       7.097  -7.368  -2.990  0.00  0.00    +0.014 A 
ATOM     14  C   UNL     1       7.636  -8.382  -3.767  0.00  0.00    +0.001 A 
ATOM     15  C   UNL     1       7.507  -8.354  -5.143  0.00  0.00    +0.001 A 
ATOM     16  C   UNL     1       6.838  -7.311  -5.765  0.00  0.00    +0.014 A 
ATOM     17  C   UNL     1       6.295  -6.291  -5.001  0.00  0.00    +0.050 A 
ATOM     18  C   UNL     1       5.539  -5.059  -5.311  0.00  0.00    +0.258 C 
ATOM     19  O   UNL     1       5.226  -4.680  -6.422  0.00  0.00    -0.269 OA
ENDBRANCH   7   9
ENDBRANCH   1   3
BRANCH   1  20
ATOM     20  O   UNL     1       2.666   0.327  -1.344  0.00  0.00    -0.450 OA
BRANCH  20  22
ATOM     21  C   UNL     1       3.610   1.800   0.351  0.00  0.00    +0.060 C 
ATOM     22  C   UNL     1       2.449   0.874  -0.017  0.00  0.00    +0.239 C 
BRANCH  22  23
ATOM     23  C   UNL     1       1.160   1.655  -0.000  0.00  0.00    +0.151 A 
ATOM     24  N   UNL     1      -0.011   0.966   0.007  0.00  0.00    -0.307 N 
ATOM     25  H   UNL     1       0.002  -0.004   0.002  0.00  0.00    +0.170 HD
ATOM     26  C   UNL     1      -1.196   1.620   0.017  0.00  0.00    +0.259 A 
ATOM     27  O   UNL     1      -2.252   1.016   0.018  0.00  0.00    -0.267 OA
ATOM     28  C   UNL     1      -1.157   3.090   0.030  0.00  0.00    +0.065 A 
ATOM     29  C   UNL     1      -2.319   3.858   0.044  0.00  0.00    +0.015 A 
ATOM     30  C   UNL     1      -2.225   5.233   0.051  0.00  0.00    +0.001 A 
ATOM     31  C   UNL     1      -0.983   5.855   0.043  0.00  0.00    +0.002 A 
ATOM     32  C   UNL     1       0.177   5.115   0.028  0.00  0.00    +0.028 A 
ATOM     33  C   UNL     1       0.107   3.720   0.021  0.00  0.00    +0.078 A 
ATOM     34  N   UNL     1       1.225   2.952   0.007  0.00  0.00    -0.230 NA
ENDBRANCH  22  23
ENDBRANCH  20  22
ENDBRANCH   1  20
TORSDOF 5
