REMARK  Name = ZINC32961236
REMARK  5 active torsions:
REMARK  status: ('A' for Active; 'I' for Inactive)
REMARK    1  A    between atoms: C_1  and  C_2
REMARK    2  A    between atoms: C_2  and  S_3
REMARK    3  A    between atoms: S_3  and  C_6
REMARK    4  A    between atoms: C_14  and  C_15
REMARK    5  A    between atoms: C_18  and  C_20
REMARK                            x       y       z     vdW  Elec       q    Type
REMARK                         _______ _______ _______ _____ _____    ______ ____
ROOT
ATOM      1  C   UNL     1       0.014  -2.324  -0.208  0.00  0.00    +0.257 C 
ATOM      2  N   UNL     1      -1.064  -3.004  -0.445  0.00  0.00    -0.174 NA
ATOM      3  S   UNL     1      -0.585  -4.603  -0.293  0.00  0.00    +0.049 S 
ATOM      4  C   UNL     1       1.010  -4.369   0.131  0.00  0.00    +0.183 C 
ATOM      5  N   UNL     1       1.941  -5.240   0.447  0.00  0.00    -0.152 NA
ATOM      6  C   UNL     1       3.158  -4.802   0.823  0.00  0.00    +0.273 C 
ATOM      7  O   UNL     1       4.079  -5.585   0.993  0.00  0.00    -0.268 OA
ATOM      8  C   UNL     1       3.352  -3.348   1.024  0.00  0.00    +0.082 C 
ATOM      9  C   UNL     1       4.331  -2.851   1.871  0.00  0.00    +0.062 C 
ATOM     10  C   UNL     1       2.437  -2.450   0.268  0.00  0.00    +0.138 C 
ATOM     11  N   UNL     1       2.789  -1.269  -0.170  0.00  0.00    -0.284 NA
ATOM     12  N   UNL     1       1.155  -2.998   0.067  0.00  0.00    -0.201 N 
ATOM     13  H   UNL     1       3.687  -0.939  -0.008  0.00  0.00    +0.188 HD
ENDROOT
BRANCH   9  14
ATOM     14  C   UNL     1       5.002  -3.715   2.752  0.00  0.00    +0.129 A 
ATOM     15  C   UNL     1       6.101  -3.388   3.533  0.00  0.00    +0.050 A 
ATOM     16  C   UNL     1       6.441  -4.534   4.250  0.00  0.00    +0.050 A 
ATOM     17  C   UNL     1       5.545  -5.518   3.888  0.00  0.00    +0.136 A 
ATOM     18  O   UNL     1       4.685  -5.005   2.991  0.00  0.00    -0.455 OA
BRANCH  17  19
ATOM     19  C   UNL     1       5.531  -6.900   4.402  0.00  0.00    +0.019 A 
ATOM     20  C   UNL     1       6.479  -7.309   5.345  0.00  0.00    +0.013 A 
ATOM     21  C   UNL     1       6.460  -8.602   5.822  0.00  0.00    +0.022 A 
ATOM     22  C   UNL     1       5.505  -9.497   5.369  0.00  0.00    +0.059 A 
ATOM     23  C   UNL     1       4.562  -9.099   4.434  0.00  0.00    +0.060 A 
ATOM     24  C   UNL     1       4.566  -7.806   3.953  0.00  0.00    +0.033 A 
ATOM     25 CL   UNL     1       3.369 -10.229   3.872  0.00  0.00    -0.082 Cl
ATOM     26 CL   UNL     1       5.489 -11.124   5.974  0.00  0.00    -0.082 Cl
ENDBRANCH  17  19
ENDBRANCH   9  14
BRANCH   1  27
ATOM     27  S   UNL     1      -0.003  -0.562  -0.250  0.00  0.00    +0.029 S 
ATOM     28  O   UNL     1       1.093  -0.169   0.564  0.00  0.00    -0.167 OA
ATOM     29  O   UNL     1      -1.333  -0.204   0.102  0.00  0.00    -0.167 OA
BRANCH  27  31
ATOM     30  C   UNL     1       0.328   1.388  -2.139  0.00  0.00    +0.028 C 
ATOM     31  C   UNL     1       0.321  -0.134  -1.983  0.00  0.00    +0.172 C 
ENDBRANCH  27  31
ENDBRANCH   1  27
TORSDOF 4
