REMARK  Name = ZINC06143381
REMARK  9 active torsions:
REMARK  status: ('A' for Active; 'I' for Inactive)
REMARK    1  A    between atoms: C_1  and  C_2
REMARK    2  A    between atoms: C_3  and  N_10
REMARK    3  A    between atoms: N_10  and  N_11
REMARK    4  A    between atoms: C_12  and  C_13
REMARK    5  A    between atoms: C_16  and  O_21
REMARK    6  A    between atoms: C_17  and  O_19
REMARK    7  A    between atoms: O_19  and  C_20
REMARK    8  A    between atoms: O_21  and  C_22
REMARK    9  A    between atoms: C_22  and  C_23
REMARK                            x       y       z     vdW  Elec       q    Type
REMARK                         _______ _______ _______ _____ _____    ______ ____
ROOT
ATOM      1  C   UNL     1      -3.632   3.414   0.041  0.00  0.00    -0.002 A 
ATOM      2  C   UNL     1      -2.446   4.152   0.034  0.00  0.00    +0.013 A 
ATOM      3  C   UNL     1      -2.491   5.530   0.042  0.00  0.00    +0.050 A 
ATOM      4  C   UNL     1      -3.713   6.187   0.058  0.00  0.00    +0.162 A 
ATOM      5  C   UNL     1      -4.900   5.458   0.065  0.00  0.00    +0.162 A 
ATOM      6  C   UNL     1      -4.863   4.076   0.052  0.00  0.00    +0.059 A 
ENDROOT
BRANCH   1   8
ATOM      7  N   UNL     1      -2.442   1.327   0.023  0.00  0.00    -0.189 NA
ATOM      8  C   UNL     1      -3.586   1.940   0.032  0.00  0.00    +0.138 C 
BRANCH   7   9
ATOM      9  N   UNL     1      -2.398  -0.073   0.014  0.00  0.00    -0.221 N 
ATOM     10  H   UNL     1      -3.222  -0.585   0.015  0.00  0.00    +0.176 HD
BRANCH   9  13
ATOM     11  C   UNL     1      -0.018   1.503   0.010  0.00  0.00    +0.071 C 
ATOM     12  C   UNL     1       0.002  -0.004   0.002  0.00  0.00    +0.100 A 
ATOM     13  C   UNL     1      -1.191  -0.721   0.004  0.00  0.00    +0.143 A 
ATOM     14  N   UNL     1      -1.129  -2.087  -0.004  0.00  0.00    -0.291 N 
ATOM     15  H   UNL     1      -1.940  -2.619  -0.004  0.00  0.00    +0.172 HD
ATOM     16  C   UNL     1       0.084  -2.679  -0.014  0.00  0.00    +0.366 A 
ATOM     17  O   UNL     1       0.165  -3.896  -0.021  0.00  0.00    -0.243 OA
ATOM     18  N   UNL     1       1.196  -1.938  -0.015  0.00  0.00    -0.090 NA
ATOM     19  N   UNL     1       1.153  -0.653  -0.013  0.00  0.00    -0.146 NA
ENDBRANCH   9  13
ENDBRANCH   7   9
ENDBRANCH   1   8
BRANCH   5  20
ATOM     20  O   UNL     1      -6.096   6.105   0.081  0.00  0.00    -0.491 OA
ATOM     21  C   UNL     1      -7.273   5.295   0.087  0.00  0.00    +0.277 C 
ENDBRANCH   5  20
BRANCH   4  22
ATOM     22  O   UNL     1      -3.752   7.546   0.066  0.00  0.00    -0.484 OA
BRANCH  22  23
ATOM     23  C   UNL     1      -2.498   8.231   0.058  0.00  0.00    +0.267 C 
BRANCH  23  24
ATOM     24  C   UNL     1      -2.738   9.719   0.070  0.00  0.00    +0.028 A 
ATOM     25  C   UNL     1      -2.866  10.408  -1.123  0.00  0.00    +0.049 A 
ATOM     26  C   UNL     1      -3.087  11.773  -1.113  0.00  0.00    +0.022 A 
ATOM     27  C   UNL     1      -3.181  12.450   0.088  0.00  0.00    +0.023 A 
ATOM     28  C   UNL     1      -3.053  11.762   1.282  0.00  0.00    +0.060 A 
ATOM     29  C   UNL     1      -2.837  10.394   1.272  0.00  0.00    +0.067 A 
ATOM     30 CL   UNL     1      -2.684   9.529   2.769  0.00  0.00    -0.082 Cl
ATOM     31 CL   UNL     1      -3.170  12.612   2.791  0.00  0.00    -0.082 Cl
ATOM     32 CL   UNL     1      -2.748   9.559  -2.633  0.00  0.00    -0.083 Cl
ENDBRANCH  23  24
ENDBRANCH  22  23
ENDBRANCH   4  22
TORSDOF 7
