REMARK  Name = ZINC36430658
REMARK  8 active torsions:
REMARK  status: ('A' for Active; 'I' for Inactive)
REMARK    1  A    between atoms: C_1  and  C_2
REMARK    2  A    between atoms: C_4  and  O_5
REMARK    3  A    between atoms: C_14  and  C_16
REMARK    4  A    between atoms: C_16  and  C_17
REMARK    5  A    between atoms: C_16  and  N_21
REMARK    6  A    between atoms: C_17  and  C_18
REMARK    7  A    between atoms: C_18  and  C_19
REMARK    8  A    between atoms: C_18  and  C_20
REMARK                            x       y       z     vdW  Elec       q    Type
REMARK                         _______ _______ _______ _____ _____    ______ ____
ROOT
ATOM      1  C   UNL     1      -0.352   1.662   0.211  0.00  0.00    +0.045 C 
ATOM      2  C   UNL     1      -0.617   0.179   0.184  0.00  0.00    -0.033 A 
ATOM      3  C   UNL     1      -0.991  -0.451  -0.986  0.00  0.00    +0.091 A 
ATOM      4  C   UNL     1      -1.231  -1.817  -0.991  0.00  0.00    +0.285 A 
ATOM      5  O   UNL     1      -1.108  -2.550   0.122  0.00  0.00    -0.425 OA
ATOM      6  C   UNL     1      -0.746  -1.985   1.292  0.00  0.00    +0.141 A 
ATOM      7  C   UNL     1      -0.483  -0.599   1.354  0.00  0.00    +0.021 A 
ATOM      8  C   UNL     1      -0.100  -0.008   2.571  0.00  0.00    +0.013 A 
ATOM      9  C   UNL     1       0.023  -0.773   3.688  0.00  0.00    +0.024 A 
ATOM     10  C   UNL     1      -0.231  -2.155   3.634  0.00  0.00    +0.037 A 
ATOM     11  C   UNL     1      -0.623  -2.754   2.436  0.00  0.00    +0.070 A 
ATOM     12  N   UNL     1      -0.103  -2.911   4.759  0.00  0.00    -0.284 N 
ATOM     13  C   UNL     1      -0.036  -4.224   4.667  0.00  0.00    +0.238 C 
ATOM     14  O   UNL     1       0.033  -4.755   3.573  0.00  0.00    -0.273 OA
ATOM     15  H   UNL     1      -0.062  -2.483   5.629  0.00  0.00    +0.155 HD
ENDROOT
BRANCH   4  16
ATOM     16  O   UNL     1      -1.595  -2.419  -2.139  0.00  0.00    -0.480 OA
ATOM     17  H   UNL     1      -1.742  -3.371  -2.055  0.00  0.00    +0.295 HD
ENDBRANCH   4  16
BRANCH  13  18
ATOM     18  C   UNL     1      -0.046  -5.069   5.915  0.00  0.00    +0.171 C 
BRANCH  18  19
ATOM     19  N   UNL     1       0.037  -6.485   5.547  0.00  0.00    -0.222 N 
ATOM     20  C   UNL     1       1.025  -7.023   4.809  0.00  0.00    +0.254 C 
ATOM     21  O   UNL     1       1.974  -6.421   4.348  0.00  0.00    -0.270 OA
ATOM     22  C   UNL     1       0.761  -8.469   4.653  0.00  0.00    +0.049 A 
ATOM     23  C   UNL     1       1.417  -9.508   4.011  0.00  0.00    +0.014 A 
ATOM     24  C   UNL     1       0.887 -10.788   4.059  0.00  0.00    +0.001 A 
ATOM     25  C   UNL     1      -0.290 -11.034   4.741  0.00  0.00    +0.001 A 
ATOM     26  C   UNL     1      -0.956 -10.005   5.388  0.00  0.00    +0.014 A 
ATOM     27  C   UNL     1      -0.438  -8.720   5.348  0.00  0.00    +0.049 A 
ATOM     28  C   UNL     1      -0.861  -7.419   5.909  0.00  0.00    +0.254 C 
ATOM     29  O   UNL     1      -1.854  -7.225   6.580  0.00  0.00    -0.270 OA
ENDBRANCH  18  19
BRANCH  18  30
ATOM     30  C   UNL     1       1.153  -4.698   6.791  0.00  0.00    +0.035 C 
BRANCH  30  31
ATOM     31  C   UNL     1       1.115  -5.519   8.081  0.00  0.00    -0.015 C 
ATOM     32  C   UNL     1       2.369  -5.228   8.908  0.00  0.00    +0.007 C 
ATOM     33  C   UNL     1      -0.128  -5.141   8.890  0.00  0.00    +0.007 C 
ENDBRANCH  30  31
ENDBRANCH  18  30
ENDBRANCH  13  18
TORSDOF 5
