REMARK  Name = ZINC59924079
REMARK  10 active torsions:
REMARK  status: ('A' for Active; 'I' for Inactive)
REMARK    1  A    between atoms: C_1  and  C_2
REMARK    2  A    between atoms: C_5  and  C_33
REMARK    3  A    between atoms: N_8  and  S_10
REMARK    4  A    between atoms: S_10  and  C_13
REMARK    5  A    between atoms: C_17  and  C_19
REMARK    6  A    between atoms: N_21  and  C_22
REMARK    7  A    between atoms: C_22  and  C_23
REMARK    8  A    between atoms: C_23  and  C_25
REMARK    9  A    between atoms: C_23  and  C_26
REMARK   10  A    between atoms: C_26  and  N_27
REMARK                            x       y       z     vdW  Elec       q    Type
REMARK                         _______ _______ _______ _____ _____    ______ ____
ROOT
ATOM      1  C   UNL     1       2.547  -3.268  -0.217  0.00  0.00    +0.106 A 
ATOM      2  C   UNL     1       2.078  -4.392  -0.874  0.00  0.00    +0.028 A 
ATOM      3  C   UNL     1       2.503  -4.677  -2.160  0.00  0.00    +0.003 A 
ATOM      4  C   UNL     1       3.399  -3.841  -2.795  0.00  0.00    +0.013 A 
ATOM      5  C   UNL     1       3.876  -2.706  -2.138  0.00  0.00    +0.039 A 
ATOM      6  C   UNL     1       3.438  -2.421  -0.843  0.00  0.00    +0.041 A 
ENDROOT
BRANCH   5   7
ATOM      7  C   UNL     1       4.836  -1.807  -2.812  0.00  0.00    +0.244 C 
ATOM      8  O   UNL     1       5.250  -0.819  -2.237  0.00  0.00    -0.270 OA
ATOM      9  N   UNL     1       5.253  -2.082  -4.063  0.00  0.00    -0.311 N 
ATOM     10  H   UNL     1       4.923  -2.870  -4.522  0.00  0.00    +0.149 HD
BRANCH   9  11
ATOM     11  C   UNL     1       6.204  -1.191  -4.731  0.00  0.00    +0.106 C 
BRANCH  11  12
ATOM     12  C   UNL     1       6.510  -1.727  -6.131  0.00  0.00    -0.014 C 
ATOM     13  C   UNL     1       5.240  -1.678  -6.985  0.00  0.00    +0.007 C 
BRANCH  12  14
ATOM     14  C   UNL     1       7.595  -0.868  -6.781  0.00  0.00    -0.074 C 
BRANCH  14  15
ATOM     15  N   UNL     1       7.974  -1.452  -8.075  0.00  0.00    +0.380 N 
ATOM     16  C   UNL     1       8.587  -2.768  -7.855  0.00  0.00    -0.079 C 
ATOM     17  C   UNL     1       8.910  -3.416  -9.203  0.00  0.00    -0.019 C 
ATOM     18  C   UNL     1       9.882  -2.520  -9.975  0.00  0.00    -0.004 C 
ATOM     19  C   UNL     1       9.262  -1.129 -10.134  0.00  0.00    -0.019 C 
ATOM     20  C   UNL     1       8.927  -0.565  -8.751  0.00  0.00    -0.079 C 
ATOM     21  H   UNL     1       7.150  -1.560  -8.648  0.00  0.00    -0.082 HD
ENDBRANCH  14  15
ENDBRANCH  12  14
ENDBRANCH  11  12
ENDBRANCH   9  11
ENDBRANCH   5   7
BRANCH   1  22
ATOM     22  S   UNL     1       1.999  -2.914   1.419  0.00  0.00    +0.061 S 
ATOM     23  O   UNL     1       2.998  -2.098   2.015  0.00  0.00    -0.153 OA
ATOM     24  O   UNL     1       1.587  -4.150   1.986  0.00  0.00    -0.153 OA
BRANCH  22  30
ATOM     25  C   UNL     1      -0.019   1.526   0.010  0.00  0.00    +0.009 C 
ATOM     26  C   UNL     1       0.002  -0.004   0.002  0.00  0.00    +0.002 C 
ATOM     27  C   UNL     1      -1.433  -0.534   0.015  0.00  0.00    +0.009 C 
ATOM     28  C   UNL     1      -1.414  -2.064  -0.027  0.00  0.00    +0.002 C 
ATOM     29  C   UNL     1      -0.692  -2.596   1.215  0.00  0.00    +0.112 C 
ATOM     30  N   UNL     1       0.639  -1.977   1.288  0.00  0.00    -0.176 NA
ATOM     31  C   UNL     1       0.742  -0.512   1.244  0.00  0.00    +0.112 C 
ATOM     32  C   UNL     1      -0.680  -2.532  -1.285  0.00  0.00    +0.009 C 
ENDBRANCH  22  30
ENDBRANCH   1  22
TORSDOF 7
