REMARK  Name = ZINC20755036
REMARK  4 active torsions:
REMARK  status: ('A' for Active; 'I' for Inactive)
REMARK    1  A    between atoms: C_10  and  C_22
REMARK    2  A    between atoms: C_13  and  C_15
REMARK    3  A    between atoms: C_27  and  O_28
REMARK    4  A    between atoms: O_28  and  C_29
REMARK                            x       y       z     vdW  Elec       q    Type
REMARK                         _______ _______ _______ _____ _____    ______ ____
ROOT
ATOM      1  C   UNL     1      -0.016   1.362   0.009  0.00  0.00    +0.002 A 
ATOM      2  C   UNL     1       1.168   2.084   0.002  0.00  0.00    +0.002 A 
ATOM      3  C   UNL     1       2.384   1.434  -0.012  0.00  0.00    +0.028 A 
ATOM      4  C   UNL     1       2.427   0.046  -0.019  0.00  0.00    +0.069 A 
ATOM      5  C   UNL     1       1.222  -0.686  -0.013  0.00  0.00    +0.066 A 
ATOM      6  C   UNL     1       0.002  -0.004   0.002  0.00  0.00    +0.028 A 
ATOM      7  N   UNL     1       1.549  -2.004  -0.024  0.00  0.00    -0.324 N 
ATOM      8  C   UNL     1       2.848  -2.135  -0.022  0.00  0.00    +0.210 A 
ATOM      9  N   UNL     1       3.434  -0.884  -0.033  0.00  0.00    -0.302 N 
ATOM     10  C   UNL     1       4.887  -0.699  -0.061  0.00  0.00    +0.130 C 
ATOM     11  C   UNL     1       5.531  -1.894   0.651  0.00  0.00    +0.086 C 
ATOM     12  C   UNL     1       4.875  -3.182   0.244  0.00  0.00    +0.054 C 
ATOM     13  N   UNL     1       3.602  -3.269  -0.033  0.00  0.00    -0.218 NA
ATOM     14  H   UNL     1       0.914  -2.737  -0.032  0.00  0.00    +0.169 HD
ENDROOT
BRANCH  12  15
ATOM     15  C   UNL     1       5.701  -4.396   0.152  0.00  0.00    -0.003 A 
ATOM     16  C   UNL     1       7.067  -4.340   0.447  0.00  0.00    +0.011 A 
ATOM     17  C   UNL     1       7.835  -5.482   0.359  0.00  0.00    +0.016 A 
ATOM     18  C   UNL     1       7.256  -6.682  -0.020  0.00  0.00    +0.018 A 
ATOM     19  C   UNL     1       5.904  -6.745  -0.314  0.00  0.00    +0.016 A 
ATOM     20  C   UNL     1       5.122  -5.613  -0.224  0.00  0.00    +0.011 A 
ATOM     21 BR   UNL     1       8.318  -8.242  -0.138  0.00  0.00    -0.050 Br
ENDBRANCH  12  15
BRANCH  10  22
ATOM     22  C   UNL     1       5.366  -0.636  -1.488  0.00  0.00    +0.019 A 
ATOM     23  C   UNL     1       5.150  -1.705  -2.337  0.00  0.00    +0.029 A 
ATOM     24  C   UNL     1       5.589  -1.648  -3.648  0.00  0.00    +0.042 A 
ATOM     25  C   UNL     1       6.245  -0.522  -4.111  0.00  0.00    +0.023 A 
ATOM     26  C   UNL     1       6.463   0.549  -3.266  0.00  0.00    +0.047 A 
ATOM     27  C   UNL     1       6.019   0.496  -1.953  0.00  0.00    +0.132 A 
ATOM     28 CL   UNL     1       5.317  -2.992  -4.712  0.00  0.00    -0.084 Cl
BRANCH  27  29
ATOM     29  O   UNL     1       6.227   1.551  -1.121  0.00  0.00    -0.434 OA
BRANCH  29  30
ATOM     30  C   UNL     1       6.905   2.683  -1.667  0.00  0.00    +0.541 C 
ATOM     31  F   UNL     1       8.175   2.298  -2.110  0.00  0.00    -0.166 F 
ATOM     32  F   UNL     1       6.171   3.193  -2.743  0.00  0.00    -0.166 F 
ENDBRANCH  29  30
ENDBRANCH  27  29
ENDBRANCH  10  22
TORSDOF 4
