REMARK  Name = ZINC66602045
REMARK  7 active torsions:
REMARK  status: ('A' for Active; 'I' for Inactive)
REMARK    1  A    between atoms: C_1  and  C_2
REMARK    2  A    between atoms: C_2  and  C_4
REMARK    3  A    between atoms: C_2  and  N_18
REMARK    4  A    between atoms: C_4  and  C_5
REMARK    5  A    between atoms: N_7  and  N_8
REMARK    6  A    between atoms: C_9  and  C_11
REMARK    7  A    between atoms: C_19  and  C_21
REMARK                            x       y       z     vdW  Elec       q    Type
REMARK                         _______ _______ _______ _____ _____    ______ ____
ROOT
ATOM      1  C   UNL     1       0.870  -2.011   1.172  0.00  0.00    +0.231 C 
ATOM      2  O   UNL     1       0.414  -2.615   0.224  0.00  0.00    -0.274 OA
ATOM      3  N   UNL     1       1.491  -2.681   2.163  0.00  0.00    -0.234 N 
ATOM      4  H   UNL     1       1.855  -2.198   2.921  0.00  0.00    +0.173 HD
ENDROOT
BRANCH   3   5
ATOM      5  N   UNL     1       1.610  -4.075   2.098  0.00  0.00    -0.229 N 
ATOM      6  C   UNL     1       2.231  -4.745   3.089  0.00  0.00    +0.276 C 
ATOM      7  O   UNL     1       2.688  -4.139   4.040  0.00  0.00    -0.267 OA
ATOM      8  H   UNL     1       1.245  -4.559   1.340  0.00  0.00    +0.173 HD
BRANCH   6   9
ATOM      9  C   UNL     1       2.355  -6.205   3.021  0.00  0.00    +0.104 A 
ATOM     10  C   UNL     1       2.956  -7.016   3.960  0.00  0.00    +0.047 A 
ATOM     11  C   UNL     1       2.849  -8.332   3.497  0.00  0.00    +0.036 A 
ATOM     12  C   UNL     1       2.198  -8.302   2.309  0.00  0.00    +0.098 A 
ATOM     13  N   UNL     1       1.888  -7.016   2.011  0.00  0.00    -0.356 N 
ATOM     14  H   UNL     1       1.417  -6.716   1.218  0.00  0.00    +0.166 HD
ATOM     15 BR   UNL     1       3.497  -9.877   4.373  0.00  0.00    -0.049 Br
ENDBRANCH   6   9
ENDBRANCH   3   5
BRANCH   1  16
ATOM     16  C   UNL     1       0.742  -0.511   1.242  0.00  0.00    +0.119 C 
BRANCH  16  18
ATOM     17  C   UNL     1      -0.019   1.526   0.010  0.00  0.00    +0.028 C 
ATOM     18  C   UNL     1       0.002  -0.004   0.002  0.00  0.00    +0.079 C 
BRANCH  18  19
ATOM     19  N   UNL     1      -1.372  -0.511   0.012  0.00  0.00    -0.312 N 
ATOM     20  C   UNL     1      -2.051  -0.643  -1.145  0.00  0.00    +0.216 C 
ATOM     21  O   UNL     1      -1.524  -0.341  -2.194  0.00  0.00    -0.276 OA
ATOM     22  H   UNL     1      -1.794  -0.752   0.852  0.00  0.00    +0.149 HD
BRANCH  20  23
ATOM     23  C   UNL     1      -3.465  -1.164  -1.134  0.00  0.00    +0.075 C 
ATOM     24  C   UNL     1      -3.485  -2.571  -0.532  0.00  0.00    +0.013 C 
ATOM     25  C   UNL     1      -4.920  -3.100  -0.521  0.00  0.00    +0.001 C 
ATOM     26  C   UNL     1      -5.456  -3.151  -1.953  0.00  0.00    +0.000 C 
ATOM     27  C   UNL     1      -5.436  -1.745  -2.555  0.00  0.00    +0.001 C 
ATOM     28  C   UNL     1      -4.000  -1.215  -2.566  0.00  0.00    +0.013 C 
ENDBRANCH  20  23
ENDBRANCH  18  19
ENDBRANCH  16  18
ENDBRANCH   1  16
TORSDOF 6
