REMARK  Name = ZINC17044419
REMARK  5 active torsions:
REMARK  status: ('A' for Active; 'I' for Inactive)
REMARK    1  A    between atoms: C_1  and  N_52
REMARK    2  A    between atoms: C_3  and  C_25
REMARK    3  A    between atoms: C_5  and  C_17
REMARK    4  A    between atoms: C_17  and  C_19
REMARK    5  A    between atoms: C_28  and  N_31
REMARK                            x       y       z     vdW  Elec       q    Type
REMARK                         _______ _______ _______ _____ _____    ______ ____
ROOT
ATOM      1  C   UNL     1       0.704   1.201   0.327  0.00  0.00    -0.094 C 
ATOM      2  C   UNL     1      -1.585   0.975   1.131  0.00  0.00    -0.068 C 
ATOM      3  C   UNL     1      -2.261   1.057   2.523  0.00  0.00    +0.012 C 
ATOM      4  C   UNL     1      -1.083   0.815   3.497  0.00  0.00    +0.070 C 
ATOM      5  C   UNL     1       0.172   1.172   2.691  0.00  0.00    +0.051 C 
ATOM      6  C   UNL     1       0.974   2.240   3.384  0.00  0.00    -0.027 A 
ATOM      7  C   UNL     1       0.696   3.534   3.764  0.00  0.00    +0.004 A 
ATOM      8  C   UNL     1       1.663   4.291   4.402  0.00  0.00    +0.000 A 
ATOM      9  C   UNL     1       2.908   3.744   4.656  0.00  0.00    +0.002 A 
ATOM     10  C   UNL     1       3.191   2.448   4.277  0.00  0.00    +0.023 A 
ATOM     11  C   UNL     1       2.222   1.680   3.635  0.00  0.00    +0.036 A 
ATOM     12  N   UNL     1       2.266   0.366   3.162  0.00  0.00    -0.286 N 
ATOM     13  C   UNL     1       1.104  -0.008   2.595  0.00  0.00    +0.212 C 
ATOM     14  O   UNL     1       0.855  -1.088   2.102  0.00  0.00    -0.277 OA
ATOM     15  H   UNL     1       3.043  -0.209   3.234  0.00  0.00    +0.155 HD
ATOM     16  N   UNL     1      -0.281   1.607   1.375  0.00  0.00    +0.391 N 
ATOM     17  H   UNL     1      -0.384   2.629   1.363  0.00  0.00    -0.080 HD
ENDROOT
BRANCH   3  18
ATOM     18  C   UNL     1      -3.306  -0.019   2.672  0.00  0.00    -0.045 A 
ATOM     19  C   UNL     1      -2.976  -1.340   2.437  0.00  0.00    +0.006 A 
ATOM     20  C   UNL     1      -3.933  -2.328   2.578  0.00  0.00    +0.033 A 
ATOM     21  C   UNL     1      -5.223  -1.992   2.945  0.00  0.00    +0.126 A 
ATOM     22  C   UNL     1      -5.555  -0.670   3.175  0.00  0.00    +0.033 A 
ATOM     23  C   UNL     1      -4.596   0.317   3.038  0.00  0.00    +0.006 A 
BRANCH  21  24
ATOM     24  N   UNL     1      -6.249  -3.049   3.090  0.00  0.00    +0.056 N 
ATOM     25  O   UNL     1      -7.386  -2.754   3.413  0.00  0.00    -0.126 OA
ATOM     26  O   UNL     1      -5.957  -4.214   2.888  0.00  0.00    -0.126 OA
ENDBRANCH  21  24
ENDBRANCH   3  18
BRANCH   4  27
ATOM     27  C   UNL     1      -1.040  -0.630   3.921  0.00  0.00    +0.184 C 
ATOM     28  O   UNL     1      -0.681  -1.482   3.137  0.00  0.00    -0.290 OA
BRANCH  27  29
ATOM     29  C   UNL     1      -1.433  -1.008   5.292  0.00  0.00    +0.106 A 
ATOM     30  C   UNL     1      -1.396  -2.349   5.678  0.00  0.00    +0.031 A 
ATOM     31  C   UNL     1      -1.764  -2.687   6.971  0.00  0.00    +0.004 A 
ATOM     32  C   UNL     1      -2.166  -1.676   7.830  0.00  0.00    +0.020 A 
ATOM     33  C   UNL     1      -2.184  -0.365   7.378  0.00  0.00    +0.111 A 
ATOM     34  N   UNL     1      -1.825  -0.070   6.148  0.00  0.00    -0.252 NA
ENDBRANCH  27  29
ENDBRANCH   4  27
TORSDOF 4
