REMARK  Name = ZINC13638173
REMARK  7 active torsions:
REMARK  status: ('A' for Active; 'I' for Inactive)
REMARK    1  A    between atoms: C_1  and  C_2
REMARK    2  A    between atoms: C_2  and  C_3
REMARK    3  A    between atoms: C_2  and  C_4
REMARK    4  A    between atoms: C_2  and  N_5
REMARK    5  A    between atoms: C_6  and  C_8
REMARK    6  A    between atoms: C_21  and  C_24
REMARK    7  A    between atoms: C_27  and  O_30
REMARK                            x       y       z     vdW  Elec       q    Type
REMARK                         _______ _______ _______ _____ _____    ______ ____
ROOT
ATOM      1  C   UNL     1       3.624  -3.205   0.992  0.00  0.00    +0.037 A 
ATOM      2  C   UNL     1       3.232  -3.966  -0.114  0.00  0.00    +0.015 A 
ATOM      3  C   UNL     1       2.212  -3.515  -0.920  0.00  0.00    +0.024 A 
ATOM      4  C   UNL     1       1.576  -2.309  -0.637  0.00  0.00    +0.031 A 
ATOM      5  C   UNL     1       1.958  -1.545   0.459  0.00  0.00    -0.019 A 
ATOM      6  C   UNL     1       2.983  -1.999   1.271  0.00  0.00    +0.019 A 
ATOM      7  C   UNL     1       1.299  -0.245   0.798  0.00  0.00    +0.049 C 
ATOM      8  C   UNL     1       2.180   0.928   0.439  0.00  0.00    -0.023 C 
ATOM      9  C   UNL     1       1.451   1.924  -0.002  0.00  0.00    -0.030 C 
ATOM     10  C   UNL     1      -0.019   1.553   0.011  0.00  0.00    +0.033 C 
ATOM     11  C   UNL     1       0.002  -0.004   0.002  0.00  0.00    +0.029 C 
ATOM     12  C   UNL     1       0.192  -0.450  -1.451  0.00  0.00    +0.105 C 
ATOM     13  N   UNL     1       0.547  -1.872  -1.469  0.00  0.00    -0.336 N 
ATOM     14  H   UNL     1       0.078  -2.494  -2.047  0.00  0.00    +0.147 HD
ENDROOT
BRANCH  12  15
ATOM     15  C   UNL     1      -1.090  -0.240  -2.214  0.00  0.00    -0.027 A 
ATOM     16  C   UNL     1      -2.115  -1.162  -2.108  0.00  0.00    +0.009 A 
ATOM     17  C   UNL     1      -3.294  -0.969  -2.803  0.00  0.00    +0.046 A 
ATOM     18  C   UNL     1      -3.444   0.145  -3.616  0.00  0.00    +0.117 A 
ATOM     19  C   UNL     1      -2.412   1.065  -3.725  0.00  0.00    +0.046 A 
ATOM     20  C   UNL     1      -1.238   0.871  -3.024  0.00  0.00    +0.009 A 
BRANCH  18  21
ATOM     21  O   UNL     1      -4.601   0.334  -4.304  0.00  0.00    -0.507 OA
ATOM     22  H   UNL     1      -4.604  -0.064  -5.186  0.00  0.00    +0.292 HD
ENDBRANCH  18  21
ENDBRANCH  12  15
BRANCH   1  24
ATOM     23  N   UNL     1       5.336  -4.846   1.593  0.00  0.00    -0.307 N 
ATOM     24  C   UNL     1       4.716  -3.679   1.863  0.00  0.00    +0.244 C 
ATOM     25  O   UNL     1       5.058  -3.018   2.824  0.00  0.00    -0.270 OA
ATOM     26  H   UNL     1       5.064  -5.373   0.826  0.00  0.00    +0.150 HD
BRANCH  23  28
ATOM     27  C   UNL     1       5.894  -5.499   3.883  0.00  0.00    +0.031 C 
ATOM     28  C   UNL     1       6.420  -5.316   2.458  0.00  0.00    +0.026 C 
ATOM     29  C   UNL     1       6.947  -6.654   1.934  0.00  0.00    +0.031 C 
ATOM     30  C   UNL     1       7.553  -4.288   2.461  0.00  0.00    +0.031 C 
ENDBRANCH  23  28
ENDBRANCH   1  24
TORSDOF 4
