REMARK  Name = ZINC08586326
REMARK  11 active torsions:
REMARK  status: ('A' for Active; 'I' for Inactive)
REMARK    1  A    between atoms: C_1  and  C_2
REMARK    2  A    between atoms: C_2  and  C_3
REMARK    3  A    between atoms: C_3  and  C_5
REMARK    4  A    between atoms: C_3  and  N_63
REMARK    5  A    between atoms: N_9  and  C_10
REMARK    6  A    between atoms: C_15  and  C_16
REMARK    7  A    between atoms: C_15  and  N_63
REMARK    8  A    between atoms: C_21  and  C_22
REMARK    9  A    between atoms: C_21  and  N_63
REMARK   10  A    between atoms: C_28  and  C_33
REMARK   11  A    between atoms: C_31  and  O_32
REMARK                            x       y       z     vdW  Elec       q    Type
REMARK                         _______ _______ _______ _____ _____    ______ ____
ROOT
ATOM      1  N   UNL     1       6.091   4.917  -1.292  0.00  0.00    +0.392 N 
ATOM      2  H   UNL     1       5.072   4.981  -1.399  0.00  0.00    -0.080 HD
ENDROOT
BRANCH   1   3
ATOM      3  C   UNL     1       6.705   6.170  -1.779  0.00  0.00    +0.003 C 
BRANCH   3   4
ATOM      4  C   UNL     1       6.969   6.057  -3.258  0.00  0.00    +0.138 A 
ATOM      5  N   UNL     1       6.083   5.824  -4.196  0.00  0.00    -0.115 NA
ATOM      6  N   UNL     1       6.697   5.803  -5.328  0.00  0.00    -0.023 NA
ATOM      7  N   UNL     1       7.954   6.008  -5.136  0.00  0.00    -0.044 NA
ATOM      8  N   UNL     1       8.161   6.169  -3.873  0.00  0.00    -0.228 N 
BRANCH   8   9
ATOM      9  C   UNL     1       9.451   6.425  -3.229  0.00  0.00    +0.111 C 
ATOM     10  C   UNL     1      10.086   7.706  -3.808  0.00  0.00    +0.027 C 
ATOM     11  C   UNL     1      11.602   7.387  -3.862  0.00  0.00    +0.002 C 
ATOM     12  C   UNL     1      11.623   5.896  -4.282  0.00  0.00    +0.002 C 
ATOM     13  C   UNL     1      10.428   5.274  -3.529  0.00  0.00    +0.027 C 
ENDBRANCH   8   9
ENDBRANCH   3   4
BRANCH   3  15
ATOM     14  C   UNL     1       5.500   7.467  -0.016  0.00  0.00    +0.002 C 
ATOM     15  C   UNL     1       5.732   7.322  -1.521  0.00  0.00    -0.011 C 
ENDBRANCH   3  15
ENDBRANCH   1   3
BRANCH   1  16
ATOM     16  C   UNL     1       6.586   3.771  -2.082  0.00  0.00    -0.034 C 
BRANCH  16  17
ATOM     17  C   UNL     1       5.627   2.620  -1.917  0.00  0.00    -0.027 A 
ATOM     18  C   UNL     1       4.587   2.256  -2.706  0.00  0.00    +0.009 A 
ATOM     19  C   UNL     1       3.834   1.151  -2.355  0.00  0.00    +0.008 A 
ATOM     20  C   UNL     1       4.159   0.464  -1.233  0.00  0.00    +0.045 A 
ATOM     21  S   UNL     1       5.571   1.379  -0.635  0.00  0.00    -0.103 S 
ENDBRANCH  16  17
ENDBRANCH   1  16
BRANCH   1  22
ATOM     22  C   UNL     1       6.411   4.721   0.138  0.00  0.00    -0.036 C 
BRANCH  22  23
ATOM     23  C   UNL     1       7.902   4.736   0.353  0.00  0.00    -0.002 A 
ATOM     24  C   UNL     1       8.528   5.891   0.717  0.00  0.00    +0.017 A 
ATOM     25  C   UNL     1       9.924   5.862   0.909  0.00  0.00    +0.001 A 
ATOM     26  C   UNL     1      10.632   7.014   1.285  0.00  0.00    +0.010 A 
ATOM     27  C   UNL     1      11.981   6.947   1.460  0.00  0.00    +0.001 A 
ATOM     28  C   UNL     1      12.668   5.750   1.271  0.00  0.00    +0.005 A 
ATOM     29  C   UNL     1      12.012   4.615   0.906  0.00  0.00    -0.024 A 
ATOM     30  C   UNL     1      10.620   4.644   0.716  0.00  0.00    +0.078 A 
ATOM     31  N   UNL     1       9.951   3.542   0.357  0.00  0.00    -0.213 NA
ATOM     32  C   UNL     1       8.648   3.564   0.177  0.00  0.00    +0.214 A 
ATOM     33  C   UNL     1      12.777   3.333   0.700  0.00  0.00    +0.046 C 
BRANCH  32  34
ATOM     34  O   UNL     1       8.011   2.423  -0.187  0.00  0.00    -0.492 OA
ATOM     35  H   UNL     1       7.780   1.848   0.555  0.00  0.00    +0.294 HD
ENDBRANCH  32  34
ENDBRANCH  22  23
ENDBRANCH   1  22
TORSDOF 9
