REMARK  Name = ZINC39354221
REMARK  6 active torsions:
REMARK  status: ('A' for Active; 'I' for Inactive)
REMARK    1  A    between atoms: C_1  and  C_2
REMARK    2  A    between atoms: C_2  and  C_3
REMARK    3  A    between atoms: C_8  and  C_12
REMARK    4  A    between atoms: C_12  and  C_14
REMARK    5  A    between atoms: N_16  and  C_17
REMARK    6  A    between atoms: C_19  and  C_30
REMARK                            x       y       z     vdW  Elec       q    Type
REMARK                         _______ _______ _______ _____ _____    ______ ____
ROOT
ATOM      1  C   UNL     1      -0.614  -1.390   7.242  0.00  0.00    +0.285 C 
ATOM      2  O   UNL     1      -1.626  -0.741   7.078  0.00  0.00    -0.267 OA
ATOM      3  N   UNL     1      -0.454  -2.116   8.366  0.00  0.00    -0.296 N 
ATOM      4  H   UNL     1       0.323  -2.688   8.467  0.00  0.00    +0.150 HD
ENDROOT
BRANCH   3   5
ATOM      5  C   UNL     1      -1.453  -2.042   9.434  0.00  0.00    +0.149 C 
ATOM      6  C   UNL     1      -1.418  -3.317  10.304  0.00  0.00    +0.126 C 
ATOM      7  C   UNL     1      -2.823  -3.745  10.714  0.00  0.00    +0.021 C 
ATOM      8  C   UNL     1      -2.847  -5.118  11.331  0.00  0.00    +0.006 C 
ATOM      9  C   UNL     1      -2.877  -6.255  10.330  0.00  0.00    +0.000 C 
ATOM     10  C   UNL     1      -3.946  -6.033   9.266  0.00  0.00    +0.001 C 
ATOM     11  C   UNL     1      -3.676  -4.707   8.553  0.00  0.00    +0.014 C 
ATOM     12  C   UNL     1      -3.807  -3.578   9.549  0.00  0.00    +0.053 C 
ATOM     13  S   UNL     1      -3.153  -2.053   8.736  0.00  0.00    -0.134 S 
BRANCH   6  14
ATOM     14  C   UNL     1      -0.623  -3.054  11.514  0.00  0.00    +0.069 C 
ATOM     15  N   UNL     1      -0.009  -2.851  12.448  0.00  0.00    -0.196 NA
ENDBRANCH   6  14
ENDBRANCH   3   5
BRANCH   1  16
ATOM     16  C   UNL     1       0.451  -1.385   6.200  0.00  0.00    +0.246 C 
ATOM     17  O   UNL     1       1.466  -2.036   6.365  0.00  0.00    -0.282 OA
BRANCH  16  23
ATOM     18  C   UNL     1       1.358   0.653   1.727  0.00  0.00    -0.024 A 
ATOM     19  C   UNL     1       2.568   0.069   1.584  0.00  0.00    +0.005 A 
ATOM     20  C   UNL     1       3.102  -0.780   2.565  0.00  0.00    +0.001 A 
ATOM     21  C   UNL     1       2.444  -1.069   3.713  0.00  0.00    +0.010 A 
ATOM     22  C   UNL     1       1.171  -0.511   3.963  0.00  0.00    +0.007 A 
ATOM     23  C   UNL     1       0.284  -0.625   5.023  0.00  0.00    +0.033 C 
ATOM     24  C   UNL     1      -0.903   0.238   4.651  0.00  0.00    +0.153 C 
ATOM     25  N   UNL     1      -0.592   0.812   3.338  0.00  0.00    -0.380 N 
ATOM     26  C   UNL     1       0.579   0.396   2.950  0.00  0.00    +0.046 A 
ATOM     27  H   UNL     1      -1.168   1.411   2.839  0.00  0.00    +0.160 HD
BRANCH  18  29
ATOM     28  C   UNL     1       1.153   3.012   0.991  0.00  0.00    +0.009 C 
ATOM     29  C   UNL     1       0.815   1.559   0.652  0.00  0.00    +0.034 C 
ENDBRANCH  18  29
ENDBRANCH  16  23
ENDBRANCH   1  16
TORSDOF 5
