REMARK  Name = ZINC27663949
REMARK  5 active torsions:
REMARK  status: ('A' for Active; 'I' for Inactive)
REMARK    1  A    between atoms: C_4  and  O_35
REMARK    2  A    between atoms: C_5  and  C_7
REMARK    3  A    between atoms: N_15  and  C_25
REMARK    4  A    between atoms: C_16  and  C_18
REMARK    5  A    between atoms: C_25  and  C_26
REMARK                            x       y       z     vdW  Elec       q    Type
REMARK                         _______ _______ _______ _____ _____    ______ ____
ROOT
ATOM      1  C   UNL     1       1.324  -2.577  -0.297  0.00  0.00    +0.102 A 
ATOM      2  C   UNL     1       0.121  -3.244  -0.043  0.00  0.00    +0.035 A 
ATOM      3  C   UNL     1       0.435  -4.589  -0.019  0.00  0.00    +0.126 A 
ATOM      4  N   UNL     1       1.778  -4.670  -0.253  0.00  0.00    -0.272 N 
ATOM      5  H   UNL     1       2.288  -5.495  -0.294  0.00  0.00    +0.189 HD
ATOM      6  N   UNL     1       2.266  -3.492  -0.415  0.00  0.00    -0.173 NA
ATOM      7  C   UNL     1      -0.792  -5.350   0.245  0.00  0.00    +0.266 C 
ATOM      8  O   UNL     1      -0.853  -6.562   0.329  0.00  0.00    -0.268 OA
ATOM      9  N   UNL     1      -1.839  -4.517   0.382  0.00  0.00    -0.281 N 
ATOM     10  C   UNL     1      -1.357  -3.139   0.213  0.00  0.00    +0.144 C 
ENDROOT
BRANCH  10  11
ATOM     11  C   UNL     1      -2.043  -2.490  -0.961  0.00  0.00    +0.013 A 
ATOM     12  C   UNL     1      -2.482  -1.182  -0.868  0.00  0.00    +0.008 A 
ATOM     13  C   UNL     1      -3.111  -0.586  -1.945  0.00  0.00    +0.001 A 
ATOM     14  C   UNL     1      -3.301  -1.296  -3.116  0.00  0.00    +0.003 A 
ATOM     15  C   UNL     1      -2.862  -2.602  -3.211  0.00  0.00    +0.039 A 
ATOM     16  C   UNL     1      -2.227  -3.199  -2.135  0.00  0.00    +0.129 A 
ATOM     17  F   UNL     1      -1.793  -4.475  -2.229  0.00  0.00    -0.205 F 
ENDBRANCH  10  11
BRANCH   1  22
ATOM     18  C   UNL     1       1.105   1.111   0.404  0.00  0.00    +0.001 A 
ATOM     19  C   UNL     1       1.844   1.633  -0.643  0.00  0.00    +0.004 A 
ATOM     20  C   UNL     1       2.416   0.794  -1.579  0.00  0.00    +0.046 A 
ATOM     21  C   UNL     1       2.252  -0.578  -1.474  0.00  0.00    +0.126 A 
ATOM     22  C   UNL     1       1.506  -1.109  -0.418  0.00  0.00    +0.044 A 
ATOM     23  C   UNL     1       0.934  -0.254   0.521  0.00  0.00    +0.014 A 
BRANCH  21  24
ATOM     24  O   UNL     1       2.813  -1.405  -2.394  0.00  0.00    -0.506 OA
ATOM     25  H   UNL     1       3.708  -1.694  -2.169  0.00  0.00    +0.292 HD
ENDBRANCH  21  24
ENDBRANCH   1  22
BRANCH   9  26
ATOM     26  C   UNL     1      -3.223  -4.915   0.652  0.00  0.00    +0.144 C 
BRANCH  26  27
ATOM     27  C   UNL     1      -3.449  -4.967   2.141  0.00  0.00    -0.026 A 
ATOM     28  C   UNL     1      -3.214  -6.140   2.833  0.00  0.00    +0.009 A 
ATOM     29  C   UNL     1      -3.419  -6.193   4.199  0.00  0.00    +0.050 A 
ATOM     30  C   UNL     1      -3.862  -5.069   4.878  0.00  0.00    +0.166 A 
ATOM     31  C   UNL     1      -4.099  -3.887   4.180  0.00  0.00    +0.167 A 
ATOM     32  C   UNL     1      -3.885  -3.840   2.812  0.00  0.00    +0.054 A 
ATOM     33  O   UNL     1      -4.523  -2.937   5.064  0.00  0.00    -0.453 OA
ATOM     34  C   UNL     1      -4.935  -3.660   6.239  0.00  0.00    +0.466 C 
ATOM     35  O   UNL     1      -4.138  -4.859   6.198  0.00  0.00    -0.453 OA
ENDBRANCH  26  27
ENDBRANCH   9  26
TORSDOF 5
