REMARK  Name = ZINC13064795
REMARK  15 active torsions:
REMARK  status: ('A' for Active; 'I' for Inactive)
REMARK    1  A    between atoms: C_1  and  C_2
REMARK    2  A    between atoms: C_2  and  C_3
REMARK    3  A    between atoms: C_3  and  C_5
REMARK    4  A    between atoms: C_3  and  N_68
REMARK    5  A    between atoms: N_9  and  C_10
REMARK    6  A    between atoms: C_10  and  C_11
REMARK    7  A    between atoms: C_10  and  C_12
REMARK    8  A    between atoms: C_10  and  C_13
REMARK    9  A    between atoms: C_13  and  C_14
REMARK   10  A    between atoms: C_15  and  C_16
REMARK   11  A    between atoms: C_15  and  N_68
REMARK   12  A    between atoms: C_21  and  C_22
REMARK   13  A    between atoms: C_21  and  N_68
REMARK   14  A    between atoms: C_25  and  C_35
REMARK   15  A    between atoms: C_27  and  C_34
REMARK                            x       y       z     vdW  Elec       q    Type
REMARK                         _______ _______ _______ _____ _____    ______ ____
ROOT
ATOM      1  N   UNL     1       0.256  -0.008   1.809  0.00  0.00    +0.394 N 
ATOM      2  H   UNL     1       1.065  -0.544   2.144  0.00  0.00    -0.080 HD
ENDROOT
BRANCH   1   3
ATOM      3  C   UNL     1       0.219   1.293   2.510  0.00  0.00    +0.003 C 
BRANCH   3   4
ATOM      4  C   UNL     1       0.305   1.049   3.994  0.00  0.00    +0.139 A 
ATOM      5  N   UNL     1      -0.352   0.144   4.678  0.00  0.00    -0.115 NA
ATOM      6  N   UNL     1      -0.006   0.251   5.914  0.00  0.00    -0.023 NA
ATOM      7  N   UNL     1       0.854   1.200   6.037  0.00  0.00    -0.043 NA
ATOM      8  N   UNL     1       1.077   1.713   4.875  0.00  0.00    -0.225 N 
BRANCH   8   9
ATOM      9  C   UNL     1       1.994   2.814   4.570  0.00  0.00    +0.061 C 
ATOM     10  C   UNL     1       3.302   2.616   5.339  0.00  0.00    +0.036 C 
ATOM     11  C   UNL     1       2.284   2.837   3.068  0.00  0.00    +0.036 C 
BRANCH   9  12
ATOM     12  C   UNL     1       1.354   4.141   4.986  0.00  0.00    +0.026 C 
ATOM     13  C   UNL     1       2.312   5.291   4.668  0.00  0.00    +0.006 C 
ENDBRANCH   9  12
ENDBRANCH   8   9
ENDBRANCH   3   4
BRANCH   3  15
ATOM     14  C   UNL     1      -1.061   3.408   2.870  0.00  0.00    +0.002 C 
ATOM     15  C   UNL     1      -1.079   2.038   2.190  0.00  0.00    -0.011 C 
ENDBRANCH   3  15
ENDBRANCH   1   3
BRANCH   1  16
ATOM     16  C   UNL     1      -0.977  -0.770   2.095  0.00  0.00    -0.002 C 
BRANCH  16  17
ATOM     17  C   UNL     1      -0.764  -2.205   1.687  0.00  0.00    +0.089 A 
ATOM     18  C   UNL     1      -0.334  -3.196   2.489  0.00  0.00    +0.042 A 
ATOM     19  C   UNL     1      -0.279  -4.368   1.700  0.00  0.00    +0.041 A 
ATOM     20  C   UNL     1      -0.679  -4.023   0.463  0.00  0.00    +0.195 A 
ATOM     21  O   UNL     1      -0.977  -2.714   0.462  0.00  0.00    -0.470 OA
ENDBRANCH  16  17
ENDBRANCH   1  16
BRANCH   1  22
ATOM     22  C   UNL     1       0.392   0.206   0.353  0.00  0.00    -0.036 C 
BRANCH  22  23
ATOM     23  C   UNL     1       1.829   0.541   0.046  0.00  0.00    +0.001 A 
ATOM     24  C   UNL     1       2.707  -0.452  -0.240  0.00  0.00    +0.017 A 
ATOM     25  C   UNL     1       4.096  -0.094  -0.534  0.00  0.00    +0.002 A 
ATOM     26  C   UNL     1       5.047  -1.073  -0.836  0.00  0.00    -0.041 A 
ATOM     27  C   UNL     1       6.335  -0.706  -1.106  0.00  0.00    +0.007 A 
ATOM     28  C   UNL     1       6.708   0.631  -1.083  0.00  0.00    -0.048 A 
ATOM     29  C   UNL     1       5.788   1.613  -0.788  0.00  0.00    +0.029 A 
ATOM     30  C   UNL     1       4.470   1.263  -0.510  0.00  0.00    +0.050 A 
ATOM     31  N   UNL     1       3.529   2.225  -0.212  0.00  0.00    -0.322 N 
ATOM     32  H   UNL     1       3.788   3.159  -0.196  0.00  0.00    +0.169 HD
ATOM     33  C   UNL     1       2.254   1.887   0.051  0.00  0.00    +0.251 A 
ATOM     34  O   UNL     1       1.447   2.764   0.306  0.00  0.00    -0.268 OA
ATOM     35  C   UNL     1       8.135   1.012  -1.385  0.00  0.00    +0.044 C 
ATOM     36  C   UNL     1       4.654  -2.528  -0.864  0.00  0.00    +0.044 C 
ENDBRANCH  22  23
ENDBRANCH   1  22
TORSDOF 9
