REMARK  Name = ZINC36823552
REMARK  9 active torsions:
REMARK  status: ('A' for Active; 'I' for Inactive)
REMARK    1  A    between atoms: C_1  and  C_2
REMARK    2  A    between atoms: C_5  and  O_28
REMARK    3  A    between atoms: C_6  and  N_8
REMARK    4  A    between atoms: C_9  and  S_13
REMARK    5  A    between atoms: S_13  and  C_14
REMARK    6  A    between atoms: C_14  and  C_15
REMARK    7  A    between atoms: C_24  and  O_27
REMARK    8  A    between atoms: C_25  and  C_26
REMARK    9  A    between atoms: O_28  and  C_29
REMARK                            x       y       z     vdW  Elec       q    Type
REMARK                         _______ _______ _______ _____ _____    ______ ____
ROOT
ATOM      1  S   UNL     1       0.259  -0.578   4.083  0.00  0.00    -0.080 S 
ENDROOT
BRANCH   1   3
ATOM      2  N   UNL     1       0.052  -2.795   2.401  0.00  0.00    -0.184 N 
ATOM      3  C   UNL     1       0.140  -2.283   3.654  0.00  0.00    +0.214 A 
ATOM      4  N   UNL     1       0.119  -3.300   4.489  0.00  0.00    -0.101 NA
ATOM      5  N   UNL     1       0.025  -4.408   3.846  0.00  0.00    -0.022 NA
ATOM      6  N   UNL     1      -0.026  -4.188   2.577  0.00  0.00    -0.038 NA
BRANCH   2  12
ATOM      7  C   UNL     1       1.975   0.687  -0.492  0.00  0.00    +0.044 C 
ATOM      8  C   UNL     1       0.956  -0.394  -0.238  0.00  0.00    -0.048 A 
ATOM      9  C   UNL     1       0.007  -0.687  -1.200  0.00  0.00    +0.007 A 
ATOM     10  C   UNL     1      -0.930  -1.677  -0.973  0.00  0.00    +0.048 A 
ATOM     11  C   UNL     1      -0.919  -2.381   0.221  0.00  0.00    +0.146 A 
ATOM     12  C   UNL     1       0.037  -2.087   1.190  0.00  0.00    +0.112 A 
ATOM     13  C   UNL     1       0.977  -1.095   0.953  0.00  0.00    +0.035 A 
BRANCH  11  14
ATOM     14  O   UNL     1      -1.841  -3.355   0.446  0.00  0.00    -0.493 OA
ATOM     15  C   UNL     1      -2.791  -3.601  -0.592  0.00  0.00    +0.277 C 
ENDBRANCH  11  14
ENDBRANCH   2  12
ENDBRANCH   1   3
BRANCH   1  16
ATOM     16  C   UNL     1       0.342  -0.587   5.895  0.00  0.00    +0.113 C 
BRANCH  16  17
ATOM     17  C   UNL     1       0.448   0.830   6.400  0.00  0.00    -0.020 A 
ATOM     18  C   UNL     1      -0.617   1.447   6.974  0.00  0.00    +0.097 A 
ATOM     19  C   UNL     1      -0.493   2.772   7.439  0.00  0.00    +0.338 A 
ATOM     20  O   UNL     1      -1.456   3.314   7.953  0.00  0.00    -0.245 OA
ATOM     21  O   UNL     1       0.659   3.453   7.330  0.00  0.00    -0.422 OA
ATOM     22  C   UNL     1       1.755   2.898   6.770  0.00  0.00    +0.146 A 
ATOM     23  C   UNL     1       1.703   1.576   6.290  0.00  0.00    +0.022 A 
ATOM     24  C   UNL     1       2.838   0.995   5.712  0.00  0.00    +0.015 A 
ATOM     25  C   UNL     1       3.995   1.713   5.622  0.00  0.00    +0.046 A 
ATOM     26  C   UNL     1       4.054   3.021   6.100  0.00  0.00    +0.123 A 
ATOM     27  C   UNL     1       2.937   3.615   6.665  0.00  0.00    +0.034 A 
ATOM     28  C   UNL     1       3.011   5.029   7.179  0.00  0.00    +0.051 C 
BRANCH  26  29
ATOM     29  O   UNL     1       5.213   3.721   6.003  0.00  0.00    -0.506 OA
ATOM     30  H   UNL     1       5.300   4.226   5.182  0.00  0.00    +0.292 HD
ENDBRANCH  26  29
ENDBRANCH  16  17
ENDBRANCH   1  16
TORSDOF 6
