REMARK  Name = ZINC19898598
REMARK  16 active torsions:
REMARK  status: ('A' for Active; 'I' for Inactive)
REMARK    1  A    between atoms: C_1  and  C_2
REMARK    2  A    between atoms: C_2  and  C_3
REMARK    3  A    between atoms: C_3  and  C_5
REMARK    4  A    between atoms: C_3  and  O_6
REMARK    5  A    between atoms: O_6  and  C_7
REMARK    6  A    between atoms: C_7  and  C_9
REMARK    7  A    between atoms: C_10  and  C_41
REMARK    8  A    between atoms: C_14  and  C_16
REMARK    9  A    between atoms: C_19  and  O_24
REMARK   10  A    between atoms: C_20  and  O_22
REMARK   11  A    between atoms: O_22  and  C_23
REMARK   12  A    between atoms: C_28  and  C_31
REMARK   13  A    between atoms: C_34  and  O_39
REMARK   14  A    between atoms: C_35  and  O_37
REMARK   15  A    between atoms: O_37  and  C_38
REMARK   16  A    between atoms: O_39  and  C_40
REMARK                            x       y       z     vdW  Elec       q    Type
REMARK                         _______ _______ _______ _____ _____    ______ ____
ROOT
ATOM      1  C   UNL     1       1.320  -0.569   0.238  0.00  0.00    +0.065 C 
ATOM      2  C   UNL     1       2.433   0.184   0.276  0.00  0.00    +0.016 C 
ATOM      3  N   UNL     1       2.366   1.531   0.053  0.00  0.00    -0.321 N 
ATOM      4  C   UNL     1       1.179   2.201   0.185  0.00  0.00    +0.016 C 
ATOM      5  C   UNL     1       0.007   1.533   0.140  0.00  0.00    +0.024 C 
ATOM      6  C   UNL     1      -0.021   0.038  -0.056  0.00  0.00    +0.092 C 
ATOM      7  C   UNL     1      -1.219   2.209   0.269  0.00  0.00    +0.162 C 
ATOM      8  O   UNL     1      -2.256   1.577   0.234  0.00  0.00    -0.292 OA
ATOM      9  C   UNL     1      -1.270   3.702   0.454  0.00  0.00    +0.088 C 
ATOM     10  C   UNL     1      -0.042   4.326  -0.218  0.00  0.00    +0.032 C 
ATOM     11  C   UNL     1       1.215   3.696   0.386  0.00  0.00    +0.059 C 
ATOM     12  C   UNL     1       3.764  -0.461   0.565  0.00  0.00    +0.061 C 
ATOM     13  H   UNL     1       3.270   2.087  -0.236  0.00  0.00    +0.152 HD
ENDROOT
BRANCH   6  14
ATOM     14  C   UNL     1      -0.400  -0.267  -1.482  0.00  0.00    -0.032 A 
ATOM     15  C   UNL     1       0.385   0.202  -2.520  0.00  0.00    +0.008 A 
ATOM     16  C   UNL     1       0.044  -0.080  -3.829  0.00  0.00    +0.049 A 
ATOM     17  C   UNL     1      -1.091  -0.824  -4.106  0.00  0.00    +0.158 A 
ATOM     18  C   UNL     1      -1.884  -1.291  -3.062  0.00  0.00    +0.162 A 
ATOM     19  C   UNL     1      -1.534  -1.009  -1.751  0.00  0.00    +0.054 A 
BRANCH  18  20
ATOM     20  O   UNL     1      -3.000  -2.021  -3.328  0.00  0.00    -0.491 OA
ATOM     21  C   UNL     1      -3.766  -2.467  -2.207  0.00  0.00    +0.277 C 
ENDBRANCH  18  20
BRANCH  17  22
ATOM     22  O   UNL     1      -1.431  -1.097  -5.394  0.00  0.00    -0.503 OA
ATOM     23  H   UNL     1      -2.333  -1.687  -5.612  0.00  0.00    +0.292 HD
ENDBRANCH  17  22
ENDBRANCH   6  14
BRANCH  10  24
ATOM     24  C   UNL     1      -0.032   5.813   0.029  0.00  0.00    -0.040 A 
ATOM     25  C   UNL     1      -0.012   6.297   1.324  0.00  0.00    +0.008 A 
ATOM     26  C   UNL     1       0.004   7.660   1.555  0.00  0.00    +0.049 A 
ATOM     27  C   UNL     1      -0.012   8.544   0.488  0.00  0.00    +0.161 A 
ATOM     28  C   UNL     1      -0.038   8.057  -0.815  0.00  0.00    +0.162 A 
ATOM     29  C   UNL     1      -0.048   6.689  -1.040  0.00  0.00    +0.053 A 
BRANCH  28  30
ATOM     30  O   UNL     1      -0.053   8.921  -1.865  0.00  0.00    -0.491 OA
ATOM     31  C   UNL     1      -0.079   8.349  -3.175  0.00  0.00    +0.277 C 
ENDBRANCH  28  30
BRANCH  27  32
ATOM     32  O   UNL     1      -0.003   9.885   0.714  0.00  0.00    -0.491 OA
ATOM     33  C   UNL     1       0.024  10.313   2.078  0.00  0.00    +0.277 C 
ENDBRANCH  27  32
ENDBRANCH  10  24
BRANCH   1  34
ATOM     34  C   UNL     1       1.414  -1.959   0.480  0.00  0.00    +0.338 C 
ATOM     35  O   UNL     1       1.034  -2.419   1.540  0.00  0.00    -0.245 OA
BRANCH  34  36
ATOM     36  O   UNL     1       1.925  -2.775  -0.466  0.00  0.00    -0.458 OA
BRANCH  36  37
ATOM     37  C   UNL     1       1.990  -4.168  -0.154  0.00  0.00    +0.173 C 
ATOM     38  C   UNL     1       0.694  -4.851  -0.595  0.00  0.00    +0.052 C 
BRANCH  37  40
ATOM     39  C   UNL     1       4.480  -4.205  -0.355  0.00  0.00    +0.007 C 
ATOM     40  C   UNL     1       3.175  -4.800  -0.887  0.00  0.00    +0.041 C 
ENDBRANCH  37  40
ENDBRANCH  36  37
ENDBRANCH  34  36
ENDBRANCH   1  34
TORSDOF 10
