REMARK  Name = ZINC11073939
REMARK  9 active torsions:
REMARK  status: ('A' for Active; 'I' for Inactive)
REMARK    1  A    between atoms: C_1  and  C_2
REMARK    2  A    between atoms: C_5  and  N_9
REMARK    3  A    between atoms: C_10  and  C_12
REMARK    4  A    between atoms: C_12  and  C_14
REMARK    5  A    between atoms: C_12  and  N_58
REMARK    6  A    between atoms: C_15  and  N_58
REMARK    7  A    between atoms: C_16  and  C_17
REMARK    8  A    between atoms: C_16  and  N_58
REMARK    9  A    between atoms: C_30  and  C_32
REMARK                            x       y       z     vdW  Elec       q    Type
REMARK                         _______ _______ _______ _____ _____    ______ ____
ROOT
ATOM      1  C   UNL     1      -4.796   8.095   0.394  0.00  0.00    +0.020 C 
ENDROOT
BRANCH   1   2
ATOM      2  C   UNL     1      -4.502   9.567   0.252  0.00  0.00    +0.204 C 
ATOM      3  O   UNL     1      -3.356   9.950   0.153  0.00  0.00    -0.277 OA
ATOM      4  N   UNL     1      -5.514  10.457   0.234  0.00  0.00    -0.268 N 
ATOM      5  C   UNL     1      -6.844  10.030   0.341  0.00  0.00    +0.058 A 
ATOM      6  C   UNL     1      -7.466   9.382  -0.707  0.00  0.00    +0.025 A 
ATOM      7  C   UNL     1      -8.789   8.996  -0.592  0.00  0.00    +0.002 A 
ATOM      8  C   UNL     1      -9.493   9.255   0.570  0.00  0.00    +0.002 A 
ATOM      9  C   UNL     1      -8.874   9.890   1.632  0.00  0.00    +0.025 A 
ATOM     10  C   UNL     1      -7.546  10.268   1.528  0.00  0.00    +0.055 A 
ATOM     11  N   UNL     1      -6.886  10.882   2.599  0.00  0.00    -0.284 N 
ATOM     12  C   UNL     1      -6.167  12.010   2.406  0.00  0.00    +0.219 C 
ATOM     13  O   UNL     1      -5.538  12.488   3.327  0.00  0.00    -0.275 OA
ATOM     14  C   UNL     1      -6.139  12.678   1.057  0.00  0.00    +0.118 C 
ATOM     15  C   UNL     1      -5.246  11.889   0.097  0.00  0.00    +0.087 C 
ATOM     16  C   UNL     1      -5.537  12.325  -1.340  0.00  0.00    +0.029 C 
ATOM     17  H   UNL     1      -6.946  10.496   3.487  0.00  0.00    +0.155 HD
ENDBRANCH   1   2
BRANCH   1  19
ATOM     18  C   UNL     1      -2.727   7.653   1.572  0.00  0.00    -0.094 C 
ATOM     19  N   UNL     1      -3.520   7.350   0.362  0.00  0.00    +0.391 N 
ATOM     20  H   UNL     1      -2.986   7.637  -0.467  0.00  0.00    -0.080 HD
BRANCH  19  21
ATOM     21  C   UNL     1      -3.785   5.898   0.283  0.00  0.00    +0.017 C 
ATOM     22  C   UNL     1      -4.514   5.417   1.539  0.00  0.00    -0.004 C 
BRANCH  21  24
ATOM     23  N   UNL     1      -2.456   3.825   0.045  0.00  0.00    -0.286 N 
ATOM     24  C   UNL     1      -2.473   5.168   0.154  0.00  0.00    +0.203 C 
ATOM     25  O   UNL     1      -1.431   5.790   0.147  0.00  0.00    -0.277 OA
ATOM     26  H   UNL     1      -3.290   3.334  -0.030  0.00  0.00    +0.155 HD
BRANCH  23  31
ATOM     27  C   UNL     1       2.488   1.041   0.030  0.00  0.00    +0.044 C 
ATOM     28  C   UNL     1       1.175   1.780   0.034  0.00  0.00    -0.049 A 
ATOM     29  C   UNL     1       1.083   3.022   0.636  0.00  0.00    +0.005 A 
ATOM     30  C   UNL     1      -0.119   3.702   0.642  0.00  0.00    +0.024 A 
ATOM     31  C   UNL     1      -1.237   3.138   0.041  0.00  0.00    +0.047 A 
ATOM     32  C   UNL     1      -1.141   1.893  -0.568  0.00  0.00    +0.039 A 
ATOM     33  C   UNL     1       0.064   1.216  -0.565  0.00  0.00    +0.020 A 
ATOM     34 BR   UNL     1      -2.658   1.124  -1.394  0.00  0.00    -0.048 Br
ENDBRANCH  23  31
ENDBRANCH  21  24
ENDBRANCH  19  21
ENDBRANCH   1  19
TORSDOF 5
