REMARK  Name = ZINC32124017
REMARK  9 active torsions:
REMARK  status: ('A' for Active; 'I' for Inactive)
REMARK    1  A    between atoms: C_1  and  C_2
REMARK    2  A    between atoms: C_3  and  C_29
REMARK    3  A    between atoms: C_4  and  C_28
REMARK    4  A    between atoms: C_8  and  N_12
REMARK    5  A    between atoms: N_12  and  C_13
REMARK    6  A    between atoms: C_22  and  O_26
REMARK    7  A    between atoms: C_23  and  O_24
REMARK    8  A    between atoms: O_24  and  C_25
REMARK    9  A    between atoms: O_26  and  C_27
REMARK                            x       y       z     vdW  Elec       q    Type
REMARK                         _______ _______ _______ _____ _____    ______ ____
ROOT
ATOM      1  C   UNL     1      -0.244   1.379   0.085  0.00  0.00    +0.011 C 
ATOM      2  C   UNL     1      -0.083  -0.140  -0.002  0.00  0.00    -0.026 C 
ATOM      3  C   UNL     1       0.722  -0.513  -1.253  0.00  0.00    +0.036 C 
ATOM      4  C   UNL     1       0.860  -2.040  -1.303  0.00  0.00    -0.026 C 
ATOM      5  C   UNL     1       1.561  -2.513  -0.025  0.00  0.00    -0.066 C 
ATOM      6  N   UNL     1       0.761  -2.135   1.144  0.00  0.00    +0.399 N 
ATOM      7  C   UNL     1       0.659  -0.660   1.234  0.00  0.00    -0.066 C 
ATOM      8  C   UNL     1      -0.571  -2.742   1.066  0.00  0.00    +0.073 C 
ATOM      9  N   UNL     1      -1.273  -2.269  -0.135  0.00  0.00    -0.301 NA
ATOM     10  C   UNL     1      -0.543  -2.659  -1.350  0.00  0.00    +0.089 C 
ATOM     11  C   UNL     1      -1.460  -0.811  -0.069  0.00  0.00    +0.089 C 
ATOM     12  C   UNL     1       1.657  -2.455  -2.541  0.00  0.00    +0.011 C 
ATOM     13  H   UNL     1       1.217  -2.479   1.976  0.00  0.00    -0.077 HD
ENDROOT
BRANCH   3  14
ATOM     14  C   UNL     1       0.001  -0.028  -2.484  0.00  0.00    -0.006 A 
ATOM     15  S   UNL     1      -1.646  -0.421  -3.050  0.00  0.00    -0.101 S 
ATOM     16  C   UNL     1      -1.646   0.572  -4.534  0.00  0.00    +0.045 A 
ATOM     17  C   UNL     1      -0.410   1.128  -4.500  0.00  0.00    +0.008 A 
ATOM     18  C   UNL     1       0.432   0.824  -3.446  0.00  0.00    +0.011 A 
ENDBRANCH   3  14
BRANCH   8  19
ATOM     19  N   UNL     1      -0.438  -4.204   1.008  0.00  0.00    -0.278 NA
ATOM     20  H   UNL     1      -0.066  -4.497   0.117  0.00  0.00    +0.125 HD
BRANCH  19  21
ATOM     21  C   UNL     1      -1.722  -4.861   1.285  0.00  0.00    +0.278 C 
ATOM     22  O   UNL     1      -2.318  -5.306   0.064  0.00  0.00    -0.438 OA
ATOM     23  C   UNL     1      -2.469  -6.641   0.099  0.00  0.00    +0.345 C 
ATOM     24  O   UNL     1      -2.947  -7.311  -0.794  0.00  0.00    -0.245 OA
ATOM     25  C   UNL     1      -1.970  -7.171   1.377  0.00  0.00    +0.112 A 
ATOM     26  C   UNL     1      -1.501  -6.088   2.133  0.00  0.00    +0.025 A 
ATOM     27  C   UNL     1      -0.974  -6.290   3.385  0.00  0.00    +0.013 A 
ATOM     28  C   UNL     1      -0.902  -7.571   3.912  0.00  0.00    +0.050 A 
ATOM     29  C   UNL     1      -1.360  -8.654   3.181  0.00  0.00    +0.162 A 
ATOM     30  C   UNL     1      -1.897  -8.463   1.908  0.00  0.00    +0.176 A 
BRANCH  30  31
ATOM     31  O   UNL     1      -2.348  -9.523   1.190  0.00  0.00    -0.491 OA
ATOM     32  C   UNL     1      -1.406 -10.175   0.335  0.00  0.00    +0.277 C 
ENDBRANCH  30  31
BRANCH  29  33
ATOM     33  O   UNL     1      -1.286  -9.906   3.705  0.00  0.00    -0.491 OA
ATOM     34  C   UNL     1      -0.725 -10.030   5.014  0.00  0.00    +0.277 C 
ENDBRANCH  29  33
ENDBRANCH  19  21
ENDBRANCH   8  19
TORSDOF 5
