REMARK  Name = ZINC02395357
REMARK  6 active torsions:
REMARK  status: ('A' for Active; 'I' for Inactive)
REMARK    1  A    between atoms: C_1  and  O_2
REMARK    2  A    between atoms: O_2  and  C_3
REMARK    3  A    between atoms: C_6  and  C_11
REMARK    4  A    between atoms: C_7  and  O_9
REMARK    5  A    between atoms: O_9  and  C_10
REMARK    6  A    between atoms: C_29  and  C_31
REMARK                            x       y       z     vdW  Elec       q    Type
REMARK                         _______ _______ _______ _____ _____    ______ ____
ROOT
ATOM      1  C   UNL     1       2.684  -2.237  -4.302  0.00  0.00    +0.238 C 
ATOM      2  C   UNL     1       4.107  -2.571  -3.962  0.00  0.00    +0.027 C 
ATOM      3  C   UNL     1       5.103  -1.705  -4.240  0.00  0.00    +0.083 C 
ATOM      4  C   UNL     1       4.733  -0.427  -4.899  0.00  0.00    +0.044 A 
ATOM      5  C   UNL     1       5.607   0.651  -4.933  0.00  0.00    +0.033 A 
ATOM      6  C   UNL     1       5.221   1.823  -5.556  0.00  0.00    +0.042 A 
ATOM      7  C   UNL     1       3.970   1.921  -6.144  0.00  0.00    +0.023 A 
ATOM      8  C   UNL     1       3.095   0.851  -6.115  0.00  0.00    +0.048 A 
ATOM      9  C   UNL     1       3.469  -0.328  -5.495  0.00  0.00    +0.131 A 
ATOM     10  O   UNL     1       2.636  -1.395  -5.456  0.00  0.00    -0.479 OA
ATOM     11 CL   UNL     1       6.307   3.177  -5.604  0.00  0.00    -0.084 Cl
ATOM     12  N   UNL     1       6.393  -1.986  -3.933  0.00  0.00    -0.213 NA
ATOM     13  C   UNL     1       6.793  -3.097  -3.361  0.00  0.00    +0.237 C 
ATOM     14  N   UNL     1       8.019  -3.533  -2.994  0.00  0.00    -0.205 NA
ATOM     15  C   UNL     1       7.936  -4.718  -2.454  0.00  0.00    +0.203 C 
ATOM     16  N   UNL     1       6.636  -5.122  -2.440  0.00  0.00    -0.251 N 
ATOM     17  N   UNL     1       5.895  -4.088  -3.018  0.00  0.00    -0.208 N 
ATOM     18  C   UNL     1       4.469  -3.883  -3.300  0.00  0.00    +0.162 C 
ATOM     19  H   UNL     1       6.292  -5.961  -2.097  0.00  0.00    +0.171 HD
ENDROOT
BRANCH  18  20
ATOM     20  C   UNL     1       3.714  -3.978  -2.000  0.00  0.00    +0.014 A 
ATOM     21  C   UNL     1       4.297  -3.537  -0.827  0.00  0.00    +0.008 A 
ATOM     22  C   UNL     1       3.604  -3.624   0.366  0.00  0.00    +0.001 A 
ATOM     23  C   UNL     1       2.327  -4.153   0.388  0.00  0.00    +0.003 A 
ATOM     24  C   UNL     1       1.742  -4.595  -0.783  0.00  0.00    +0.039 A 
ATOM     25  C   UNL     1       2.433  -4.503  -1.980  0.00  0.00    +0.129 A 
ATOM     26  F   UNL     1       1.859  -4.930  -3.126  0.00  0.00    -0.205 F 
ENDBRANCH  18  20
BRANCH   1  30
ATOM     27  C   UNL     1       0.878  -0.210  -0.997  0.00  0.00    +0.124 A 
ATOM     28  C   UNL     1       2.240  -0.085  -1.232  0.00  0.00    +0.046 A 
ATOM     29  C   UNL     1       2.821  -0.741  -2.300  0.00  0.00    +0.015 A 
ATOM     30  C   UNL     1       2.048  -1.523  -3.137  0.00  0.00    +0.039 A 
ATOM     31  C   UNL     1       0.686  -1.651  -2.906  0.00  0.00    +0.131 A 
ATOM     32  C   UNL     1       0.102  -0.999  -1.831  0.00  0.00    +0.091 A 
BRANCH  27  34
ATOM     33  C   UNL     1       1.168   1.231   0.872  0.00  0.00    +0.277 C 
ATOM     34  O   UNL     1       0.308   0.435   0.054  0.00  0.00    -0.495 OA
ENDBRANCH  27  34
BRANCH  31  35
ATOM     35  O   UNL     1      -0.074  -2.421  -3.729  0.00  0.00    -0.495 OA
ATOM     36  C   UNL     1      -1.485  -2.417  -3.501  0.00  0.00    +0.277 C 
ENDBRANCH  31  35
ENDBRANCH   1  30
TORSDOF 4
