REMARK  Name = ZINC50037922
REMARK  4 active torsions:
REMARK  status: ('A' for Active; 'I' for Inactive)
REMARK    1  A    between atoms: C_1  and  C_2
REMARK    2  A    between atoms: C_2  and  N_8
REMARK    3  A    between atoms: C_9  and  C_11
REMARK    4  A    between atoms: C_16  and  N_17
REMARK                            x       y       z     vdW  Elec       q    Type
REMARK                         _______ _______ _______ _____ _____    ______ ____
ROOT
ATOM      1  N   UNL     1       0.520   0.326  -1.483  0.00  0.00    -0.306 N 
ATOM      2  C   UNL     1       0.018   0.212  -2.729  0.00  0.00    +0.247 C 
ATOM      3  O   UNL     1      -1.085   0.654  -2.982  0.00  0.00    -0.270 OA
ATOM      4  H   UNL     1       1.401  -0.027  -1.281  0.00  0.00    +0.150 HD
ENDROOT
BRANCH   2   5
ATOM      5  C   UNL     1       0.809  -0.451  -3.786  0.00  0.00    +0.070 A 
ATOM      6  C   UNL     1       2.104  -0.012  -4.072  0.00  0.00    +0.056 A 
ATOM      7  C   UNL     1       2.838  -0.636  -5.060  0.00  0.00    +0.159 A 
ATOM      8  C   UNL     1       2.291  -1.697  -5.769  0.00  0.00    +0.161 A 
ATOM      9  C   UNL     1       1.006  -2.134  -5.489  0.00  0.00    +0.074 A 
ATOM     10  C   UNL     1       0.267  -1.522  -4.499  0.00  0.00    +0.141 A 
ATOM     11  F   UNL     1       3.013  -2.304  -6.736  0.00  0.00    -0.202 F 
ATOM     12  F   UNL     1       4.091  -0.213  -5.338  0.00  0.00    -0.202 F 
BRANCH  10  13
ATOM     13  N   UNL     1      -1.103  -1.996  -4.197  0.00  0.00    +0.057 N 
ATOM     14  O   UNL     1      -1.618  -2.839  -4.893  0.00  0.00    -0.126 OA
ATOM     15  O   UNL     1      -1.706  -1.540  -3.253  0.00  0.00    -0.126 OA
ENDBRANCH  10  13
ENDBRANCH   2   5
BRANCH   1  17
ATOM     16  C   UNL     1      -0.560   2.426  -0.848  0.00  0.00    +0.031 C 
ATOM     17  C   UNL     1      -0.264   0.983  -0.435  0.00  0.00    +0.032 C 
ATOM     18  C   UNL     1      -1.581   0.230  -0.235  0.00  0.00    +0.025 C 
ATOM     19  C   UNL     1      -1.285  -1.213   0.178  0.00  0.00    +0.002 C 
ATOM     20  C   UNL     1      -0.492  -1.216   1.487  0.00  0.00    +0.000 C 
ATOM     21  C   UNL     1       0.825  -0.463   1.287  0.00  0.00    +0.002 C 
ATOM     22  C   UNL     1       0.529   0.980   0.873  0.00  0.00    +0.025 C 
ENDBRANCH   1  17
TORSDOF 3
