REMARK  Name = ZINC04517645
REMARK  5 active torsions:
REMARK  status: ('A' for Active; 'I' for Inactive)
REMARK    1  A    between atoms: C_14  and  O_36
REMARK    2  A    between atoms: C_22  and  O_24
REMARK    3  A    between atoms: O_24  and  C_25
REMARK    4  A    between atoms: C_25  and  C_27
REMARK    5  A    between atoms: C_30  and  N_33
REMARK                            x       y       z     vdW  Elec       q    Type
REMARK                         _______ _______ _______ _____ _____    ______ ____
ROOT
ATOM      1  C   UNL     1      -9.596   7.621  -8.745  0.00  0.00    +0.001 A 
ATOM      2  C   UNL     1      -8.396   8.267  -8.520  0.00  0.00    +0.000 A 
ATOM      3  C   UNL     1      -7.992   8.641  -7.241  0.00  0.00    +0.009 A 
ATOM      4  C   UNL     1      -8.845   8.338  -6.204  0.00  0.00    +0.019 A 
ATOM      5  C   UNL     1     -10.072   7.682  -6.423  0.00  0.00    +0.067 A 
ATOM      6  C   UNL     1     -10.466   7.311  -7.712  0.00  0.00    +0.015 A 
ATOM      7  C   UNL     1     -10.735   7.513  -5.131  0.00  0.00    +0.341 C 
ATOM      8  O   UNL     1     -11.816   6.984  -4.967  0.00  0.00    -0.245 OA
ATOM      9  O   UNL     1      -9.972   8.032  -4.148  0.00  0.00    -0.440 OA
ATOM     10  C   UNL     1      -8.750   8.576  -4.730  0.00  0.00    +0.196 C 
ATOM     11  C   UNL     1      -8.667  10.050  -4.439  0.00  0.00    +0.047 A 
ATOM     12  C   UNL     1      -9.808  10.828  -4.545  0.00  0.00    +0.015 A 
ATOM     13  C   UNL     1      -9.754  12.182  -4.281  0.00  0.00    +0.046 A 
ATOM     14  C   UNL     1      -8.553  12.768  -3.907  0.00  0.00    +0.120 A 
ATOM     15  C   UNL     1      -7.410  11.993  -3.801  0.00  0.00    +0.092 A 
ATOM     16  C   UNL     1      -7.465  10.631  -4.067  0.00  0.00    +0.140 A 
ATOM     17  O   UNL     1      -6.336   9.891  -3.958  0.00  0.00    -0.455 OA
ATOM     18  C   UNL     1      -6.415   8.548  -3.801  0.00  0.00    +0.140 A 
ATOM     19  C   UNL     1      -7.560   7.853  -4.159  0.00  0.00    +0.047 A 
ATOM     20  C   UNL     1      -7.617   6.481  -3.991  0.00  0.00    +0.015 A 
ATOM     21  C   UNL     1      -6.535   5.797  -3.473  0.00  0.00    +0.047 A 
ATOM     22  C   UNL     1      -5.388   6.488  -3.108  0.00  0.00    +0.135 A 
ATOM     23  C   UNL     1      -5.327   7.862  -3.275  0.00  0.00    +0.093 A 
ENDROOT
BRANCH  14  24
ATOM     24  O   UNL     1      -8.498  14.101  -3.646  0.00  0.00    -0.507 OA
ATOM     25  H   UNL     1      -8.669  14.328  -2.722  0.00  0.00    +0.292 HD
ENDBRANCH  14  24
BRANCH  22  26
ATOM     26  O   UNL     1      -4.325   5.817  -2.592  0.00  0.00    -0.422 OA
BRANCH  26  27
ATOM     27  C   UNL     1      -4.329   5.592  -1.264  0.00  0.00    +0.344 C 
ATOM     28  O   UNL     1      -5.299   5.896  -0.599  0.00  0.00    -0.245 OA
BRANCH  27  29
ATOM     29  C   UNL     1      -3.156   4.975  -0.617  0.00  0.00    +0.060 A 
ATOM     30  C   UNL     1      -3.159   4.741   0.762  0.00  0.00    +0.017 A 
ATOM     31  C   UNL     1      -2.063   4.165   1.362  0.00  0.00    +0.026 A 
ATOM     32  C   UNL     1      -0.952   3.816   0.599  0.00  0.00    +0.042 A 
ATOM     33  C   UNL     1      -0.944   4.053  -0.773  0.00  0.00    +0.026 A 
ATOM     34  C   UNL     1      -2.039   4.624  -1.381  0.00  0.00    +0.017 A 
BRANCH  32  35
ATOM     35  N   UNL     1       0.156   3.233   1.210  0.00  0.00    -0.328 N 
ATOM     36  C   UNL     1       1.399   3.341   0.627  0.00  0.00    +0.171 C 
ATOM     37  N   UNL     1       2.506   2.841   1.272  0.00  0.00    -0.371 N 
ATOM     38  H   UNL     1       0.051   2.749   2.044  0.00  0.00    +0.169 HD
ATOM     39  H   UNL     1       2.360   4.040  -1.027  0.00  0.00    +0.159 HD
ATOM     40  H   UNL     1       2.417   2.450   2.155  0.00  0.00    +0.159 HD
ATOM     41  H   UNL     1       3.375   2.878   0.843  0.00  0.00    +0.159 HD
ATOM     42  N   UNL     1       1.462   3.936  -0.555  0.00  0.00    -0.371 N 
ATOM     43  H   UNL     1       0.606   4.293  -0.995  0.00  0.00    +0.159 HD
ENDBRANCH  32  35
ENDBRANCH  27  29
ENDBRANCH  26  27
ENDBRANCH  22  26
TORSDOF 5
