REMARK  Name = ZINC13064718
REMARK  11 active torsions:
REMARK  status: ('A' for Active; 'I' for Inactive)
REMARK    1  A    between atoms: C_1  and  C_2
REMARK    2  A    between atoms: C_2  and  C_3
REMARK    3  A    between atoms: C_3  and  C_5
REMARK    4  A    between atoms: C_3  and  N_66
REMARK    5  A    between atoms: N_9  and  C_10
REMARK    6  A    between atoms: C_10  and  C_11
REMARK    7  A    between atoms: C_16  and  C_17
REMARK    8  A    between atoms: C_16  and  N_66
REMARK    9  A    between atoms: C_21  and  C_30
REMARK   10  A    between atoms: C_22  and  C_29
REMARK   11  A    between atoms: C_31  and  N_66
REMARK                            x       y       z     vdW  Elec       q    Type
REMARK                         _______ _______ _______ _____ _____    ______ ____
ROOT
ATOM      1  N   UNL     1      -5.314   4.250  -0.983  0.00  0.00    +0.391 N 
ATOM      2  H   UNL     1      -4.617   4.917  -1.335  0.00  0.00    -0.080 HD
ENDROOT
BRANCH   1   3
ATOM      3  C   UNL     1      -5.325   3.060  -1.860  0.00  0.00    -0.067 C 
ATOM      4  C   UNL     1      -3.873   2.639  -2.165  0.00  0.00    -0.015 C 
ATOM      5  C   UNL     1      -3.913   2.185  -3.647  0.00  0.00    -0.002 C 
ATOM      6  C   UNL     1      -4.894   3.198  -4.288  0.00  0.00    -0.002 C 
ATOM      7  C   UNL     1      -5.974   3.415  -3.209  0.00  0.00    -0.015 C 
ENDBRANCH   1   3
BRANCH   1   8
ATOM      8  C   UNL     1      -6.643   4.897  -0.992  0.00  0.00    +0.003 C 
BRANCH   8   9
ATOM      9  C   UNL     1      -7.699   3.940  -0.501  0.00  0.00    +0.139 A 
ATOM     10  N   UNL     1      -7.534   2.970   0.364  0.00  0.00    -0.115 NA
ATOM     11  N   UNL     1      -8.670   2.382   0.524  0.00  0.00    -0.023 NA
ATOM     12  N   UNL     1      -9.552   2.946  -0.224  0.00  0.00    -0.044 NA
ATOM     13  N   UNL     1      -8.992   3.912  -0.872  0.00  0.00    -0.223 N 
BRANCH  13  14
ATOM     14  C   UNL     1      -9.643   4.809  -1.831  0.00  0.00    +0.221 C 
BRANCH  14  15
ATOM     15  C   UNL     1      -9.544   4.221  -3.215  0.00  0.00    +0.126 A 
ATOM     16  C   UNL     1     -10.436   3.388  -3.781  0.00  0.00    +0.046 A 
ATOM     17  C   UNL     1      -9.953   3.090  -5.076  0.00  0.00    +0.041 A 
ATOM     18  C   UNL     1      -8.790   3.751  -5.220  0.00  0.00    +0.195 A 
ATOM     19  O   UNL     1      -8.548   4.435  -4.090  0.00  0.00    -0.466 OA
ENDBRANCH  14  15
ENDBRANCH  13  14
ENDBRANCH   8   9
BRANCH   8  21
ATOM     20  C   UNL     1      -5.534   7.097  -0.579  0.00  0.00    +0.002 C 
ATOM     21  C   UNL     1      -6.604   6.125  -0.080  0.00  0.00    -0.011 C 
ENDBRANCH   8  21
ENDBRANCH   1   8
BRANCH   1  22
ATOM     22  C   UNL     1      -4.951   3.859   0.395  0.00  0.00    -0.036 C 
BRANCH  22  23
ATOM     23  C   UNL     1      -3.486   3.509   0.430  0.00  0.00    +0.001 A 
ATOM     24  C   UNL     1      -2.556   4.466   0.187  0.00  0.00    +0.017 A 
ATOM     25  C   UNL     1      -1.141   4.093   0.229  0.00  0.00    -0.001 A 
ATOM     26  C   UNL     1      -0.137   5.037  -0.013  0.00  0.00    +0.013 A 
ATOM     27  C   UNL     1       1.175   4.657   0.032  0.00  0.00    -0.047 A 
ATOM     28  C   UNL     1       1.520   3.342   0.318  0.00  0.00    -0.046 A 
ATOM     29  C   UNL     1       0.547   2.396   0.559  0.00  0.00    +0.030 A 
ATOM     30  C   UNL     1      -0.795   2.759   0.512  0.00  0.00    +0.049 A 
ATOM     31  N   UNL     1      -1.788   1.834   0.755  0.00  0.00    -0.322 N 
ATOM     32  H   UNL     1      -1.548   0.916   0.955  0.00  0.00    +0.169 HD
ATOM     33  C   UNL     1      -3.086   2.186   0.715  0.00  0.00    +0.251 A 
ATOM     34  O   UNL     1      -3.937   1.341   0.929  0.00  0.00    -0.268 OA
ATOM     35  C   UNL     1       2.973   2.946   0.363  0.00  0.00    +0.044 C 
ATOM     36  C   UNL     1       2.256   5.673  -0.229  0.00  0.00    +0.044 C 
ENDBRANCH  22  23
ENDBRANCH   1  22
TORSDOF 8
