REMARK  Name = ZINC04088910
REMARK  6 active torsions:
REMARK  status: ('A' for Active; 'I' for Inactive)
REMARK    1  A    between atoms: C_1  and  C_2
REMARK    2  A    between atoms: C_5  and  C_7
REMARK    3  A    between atoms: C_16  and  O_23
REMARK    4  A    between atoms: C_17  and  O_21
REMARK    5  A    between atoms: O_21  and  C_22
REMARK    6  A    between atoms: O_23  and  C_24
REMARK                            x       y       z     vdW  Elec       q    Type
REMARK                         _______ _______ _______ _____ _____    ______ ____
ROOT
ATOM      1  C   UNL     1      -3.727   3.891   0.072  0.00  0.00    +0.105 C 
ATOM      2  C   UNL     1      -4.475   5.181  -0.292  0.00  0.00    +0.125 C 
ATOM      3  N   UNL     1      -3.779   6.300   0.350  0.00  0.00    -0.284 N 
ATOM      4  C   UNL     1      -2.371   6.639   0.040  0.00  0.00    +0.154 C 
ATOM      5  C   UNL     1      -1.932   7.554   1.133  0.00  0.00    -0.005 A 
ATOM      6  C   UNL     1      -0.702   8.077   1.460  0.00  0.00    +0.010 A 
ATOM      7  C   UNL     1      -0.648   8.949   2.545  0.00  0.00    +0.050 A 
ATOM      8  C   UNL     1      -1.776   9.283   3.269  0.00  0.00    +0.162 A 
ATOM      9  C   UNL     1      -3.033   8.756   2.956  0.00  0.00    +0.174 A 
ATOM     10  C   UNL     1      -3.092   7.869   1.873  0.00  0.00    +0.087 A 
ATOM     11  C   UNL     1      -4.222   7.144   1.291  0.00  0.00    +0.251 C 
ATOM     12  O   UNL     1      -5.386   7.286   1.614  0.00  0.00    -0.270 OA
ATOM     13  C   UNL     1      -1.620   5.329   0.042  0.00  0.00    +0.046 A 
ATOM     14  C   UNL     1      -2.238   4.126   0.044  0.00  0.00    -0.005 A 
ATOM     15  C   UNL     1      -1.190   3.122   0.030  0.00  0.00    +0.004 A 
ATOM     16  C   UNL     1      -1.223   1.724   0.017  0.00  0.00    +0.010 A 
ATOM     17  C   UNL     1      -0.013   1.076   0.008  0.00  0.00    +0.001 A 
ATOM     18  C   UNL     1       1.190   1.763   0.000  0.00  0.00    +0.002 A 
ATOM     19  C   UNL     1       1.252   3.146   0.007  0.00  0.00    +0.026 A 
ATOM     20  C   UNL     1       0.038   3.831   0.023  0.00  0.00    +0.047 A 
ATOM     21  N   UNL     1      -0.262   5.162   0.036  0.00  0.00    -0.356 N 
ATOM     22  H   UNL     1       0.389   5.881   0.042  0.00  0.00    +0.166 HD
ENDROOT
BRANCH   1  27
ATOM     23  C   UNL     1      -4.451   3.896   5.064  0.00  0.00    +0.086 C 
ATOM     24  C   UNL     1      -4.451   3.451   3.624  0.00  0.00    +0.102 A 
ATOM     25  C   UNL     1      -4.934   2.284   3.161  0.00  0.00    +0.044 A 
ATOM     26  C   UNL     1      -4.731   2.282   1.762  0.00  0.00    +0.045 A 
ATOM     27  C   UNL     1      -4.136   3.449   1.453  0.00  0.00    +0.114 A 
ATOM     28  O   UNL     1      -3.964   4.150   2.586  0.00  0.00    -0.464 OA
ENDBRANCH   1  27
BRANCH   9  29
ATOM     29  O   UNL     1      -4.141   9.087   3.666  0.00  0.00    -0.491 OA
ATOM     30  C   UNL     1      -4.459   8.269   4.793  0.00  0.00    +0.277 C 
ENDBRANCH   9  29
BRANCH   8  31
ATOM     31  O   UNL     1      -1.662  10.146   4.314  0.00  0.00    -0.491 OA
ATOM     32  C   UNL     1      -0.356  10.657   4.594  0.00  0.00    +0.277 C 
ENDBRANCH   8  31
TORSDOF 3
