REMARK  Name = ZINC41584548
REMARK  11 active torsions:
REMARK  status: ('A' for Active; 'I' for Inactive)
REMARK    1  A    between atoms: C_1  and  C_2
REMARK    2  A    between atoms: C_2  and  C_3
REMARK    3  A    between atoms: C_3  and  N_4
REMARK    4  A    between atoms: N_4  and  C_5
REMARK    5  A    between atoms: N_4  and  C_8
REMARK    6  A    between atoms: C_5  and  C_6
REMARK    7  A    between atoms: C_6  and  C_7
REMARK    8  A    between atoms: C_8  and  C_9
REMARK    9  A    between atoms: C_10  and  O_28
REMARK   10  A    between atoms: C_17  and  O_20
REMARK   11  A    between atoms: O_20  and  C_21
REMARK                            x       y       z     vdW  Elec       q    Type
REMARK                         _______ _______ _______ _____ _____    ______ ____
ROOT
ATOM      1  C   UNL     1       0.749  -4.430   2.488  0.00  0.00    +0.020 A 
ATOM      2  C   UNL     1      -0.364  -5.192   2.806  0.00  0.00    +0.122 A 
ATOM      3  C   UNL     1      -0.379  -6.562   2.558  0.00  0.00    +0.046 A 
ATOM      4  C   UNL     1       0.705  -7.175   1.996  0.00  0.00    +0.019 A 
ATOM      5  C   UNL     1       1.833  -6.422   1.669  0.00  0.00    +0.068 A 
ATOM      6  C   UNL     1       1.856  -5.036   1.912  0.00  0.00    +0.143 A 
ATOM      7  O   UNL     1       2.950  -4.318   1.588  0.00  0.00    -0.459 OA
ATOM      8  C   UNL     1       4.034  -4.873   1.031  0.00  0.00    +0.245 A 
ATOM      9  C   UNL     1       4.117  -6.189   0.751  0.00  0.00    +0.210 A 
ATOM     10  C   UNL     1       3.022  -7.044   1.062  0.00  0.00    +0.235 A 
ATOM     11  O   UNL     1       3.062  -8.239   0.824  0.00  0.00    -0.283 OA
ENDROOT
BRANCH   2  12
ATOM     12  O   UNL     1      -1.448  -4.597   3.366  0.00  0.00    -0.506 OA
ATOM     13  H   UNL     1      -2.095  -4.275   2.723  0.00  0.00    +0.292 HD
ENDBRANCH   2  12
BRANCH   1  14
ATOM     14  C   UNL     1       0.754  -2.948   2.761  0.00  0.00    -0.036 C 
BRANCH  14  15
ATOM     15  N   UNL     1       0.403  -2.223   1.534  0.00  0.00    +0.383 N 
ATOM     16  H   UNL     1       1.034  -2.490   0.793  0.00  0.00    -0.081 HD
BRANCH  15  17
ATOM     17  C   UNL     1      -0.975  -2.553   1.147  0.00  0.00    -0.079 C 
BRANCH  17  19
ATOM     18  C   UNL     1      -2.734  -2.240  -0.600  0.00  0.00    +0.002 C 
ATOM     19  C   UNL     1      -1.299  -1.896  -0.197  0.00  0.00    -0.022 C 
ENDBRANCH  17  19
ENDBRANCH  15  17
BRANCH  15  20
ATOM     20  C   UNL     1       0.512  -0.777   1.771  0.00  0.00    -0.079 C 
BRANCH  20  21
ATOM     21  C   UNL     1       1.975  -0.412   2.031  0.00  0.00    -0.022 C 
ATOM     22  C   UNL     1       2.077   1.077   2.369  0.00  0.00    +0.002 C 
ENDBRANCH  20  21
ENDBRANCH  15  20
ENDBRANCH  14  15
ENDBRANCH   1  14
BRANCH   9  23
ATOM     23  O   UNL     1       5.245  -6.698   0.184  0.00  0.00    -0.448 OA
BRANCH  23  24
ATOM     24  C   UNL     1       5.158  -7.186  -1.081  0.00  0.00    +0.143 A 
ATOM     25  C   UNL     1       3.980  -7.048  -1.801  0.00  0.00    +0.047 A 
ATOM     26  C   UNL     1       3.894  -7.544  -3.087  0.00  0.00    +0.004 A 
ATOM     27  C   UNL     1       4.981  -8.179  -3.658  0.00  0.00    +0.001 A 
ATOM     28  C   UNL     1       6.157  -8.320  -2.944  0.00  0.00    +0.019 A 
ATOM     29  C   UNL     1       6.250  -7.820  -1.659  0.00  0.00    +0.060 A 
ATOM     30 BR   UNL     1       7.861  -8.005  -0.686  0.00  0.00    -0.046 Br
ENDBRANCH  23  24
ENDBRANCH   9  23
TORSDOF 9
