REMARK  Name = ZINC04166108
REMARK  6 active torsions:
REMARK  status: ('A' for Active; 'I' for Inactive)
REMARK    1  A    between atoms: C_1  and  C_2
REMARK    2  A    between atoms: C_5  and  N_9
REMARK    3  A    between atoms: C_7  and  C_8
REMARK    4  A    between atoms: N_16  and  C_19
REMARK    5  A    between atoms: C_19  and  C_20
REMARK    6  A    between atoms: N_22  and  C_23
REMARK                            x       y       z     vdW  Elec       q    Type
REMARK                         _______ _______ _______ _____ _____    ______ ____
ROOT
ATOM      1  N   UNL     1       3.599   2.160  -0.043  0.00  0.00    -0.214 N 
ATOM      2  C   UNL     1       4.748   1.786   0.585  0.00  0.00    +0.170 A 
ATOM      3  C   UNL     1       5.699   2.781   0.306  0.00  0.00    +0.103 A 
ATOM      4  C   UNL     1       5.066   3.750  -0.495  0.00  0.00    +0.150 A 
ATOM      5  N   UNL     1       3.832   3.377  -0.695  0.00  0.00    -0.172 NA
ATOM      6  C   UNL     1       7.043   2.625   0.861  0.00  0.00    +0.265 A 
ATOM      7  O   UNL     1       7.910   3.456   0.660  0.00  0.00    -0.267 OA
ATOM      8  N   UNL     1       7.282   1.530   1.622  0.00  0.00    -0.290 N 
ATOM      9  C   UNL     1       6.300   0.618   1.836  0.00  0.00    +0.204 A 
ATOM     10  N   UNL     1       5.101   0.738   1.345  0.00  0.00    -0.217 NA
ENDROOT
BRANCH   1  15
ATOM     11  C   UNL     1      -1.297  -0.707  -0.003  0.00  0.00    +0.044 C 
ATOM     12  C   UNL     1       0.003   0.054  -0.013  0.00  0.00    -0.047 A 
ATOM     13  C   UNL     1       1.204  -0.631  -0.023  0.00  0.00    +0.006 A 
ATOM     14  C   UNL     1       2.397   0.063  -0.033  0.00  0.00    +0.028 A 
ATOM     15  C   UNL     1       2.391   1.452  -0.032  0.00  0.00    +0.068 A 
ATOM     16  C   UNL     1       1.183   2.138  -0.023  0.00  0.00    +0.031 A 
ATOM     17  C   UNL     1      -0.007   1.437  -0.013  0.00  0.00    -0.046 A 
ATOM     18  C   UNL     1      -1.318   2.180  -0.009  0.00  0.00    +0.044 C 
ENDBRANCH   1  15
BRANCH   8  19
ATOM     19  C   UNL     1       8.608   1.325   2.208  0.00  0.00    +0.222 C 
BRANCH  19  20
ATOM     20  C   UNL     1       9.468   0.547   1.246  0.00  0.00    +0.237 C 
ATOM     21  O   UNL     1       9.017   0.198   0.175  0.00  0.00    -0.274 OA
ATOM     22  N   UNL     1      10.738   0.239   1.574  0.00  0.00    -0.282 N 
ATOM     23  H   UNL     1      11.120   0.572   2.401  0.00  0.00    +0.155 HD
BRANCH  22  24
ATOM     24  C   UNL     1      11.508  -0.564   0.721  0.00  0.00    +0.069 A 
ATOM     25  C   UNL     1      11.347  -0.470  -0.654  0.00  0.00    +0.029 A 
ATOM     26  C   UNL     1      12.106  -1.262  -1.494  0.00  0.00    +0.040 A 
ATOM     27  C   UNL     1      13.027  -2.150  -0.965  0.00  0.00    +0.126 A 
ATOM     28  C   UNL     1      13.191  -2.247   0.407  0.00  0.00    +0.078 A 
ATOM     29  C   UNL     1      12.437  -1.452   1.251  0.00  0.00    +0.147 A 
ATOM     30  F   UNL     1      12.601  -1.541   2.589  0.00  0.00    -0.203 F 
ATOM     31  F   UNL     1      13.768  -2.923  -1.788  0.00  0.00    -0.205 F 
ENDBRANCH  22  24
ENDBRANCH  19  20
ENDBRANCH   8  19
TORSDOF 4
