REMARK  Name = ZINC04714479
REMARK  7 active torsions:
REMARK  status: ('A' for Active; 'I' for Inactive)
REMARK    1  A    between atoms: C_1  and  C_2
REMARK    2  A    between atoms: C_5  and  N_8
REMARK    3  A    between atoms: C_12  and  C_13
REMARK    4  A    between atoms: C_14  and  C_26
REMARK    5  A    between atoms: N_16  and  C_19
REMARK    6  A    between atoms: C_17  and  O_18
REMARK    7  A    between atoms: C_27  and  C_29
REMARK                            x       y       z     vdW  Elec       q    Type
REMARK                         _______ _______ _______ _____ _____    ______ ____
ROOT
ATOM      1  N   UNL     1       3.979   6.939  -4.397  0.00  0.00    -0.156 N 
ATOM      2  C   UNL     1       3.766   6.229  -3.271  0.00  0.00    +0.272 C 
ATOM      3  O   UNL     1       3.128   5.195  -3.165  0.00  0.00    -0.268 OA
ATOM      4  C   UNL     1       4.460   6.952  -2.198  0.00  0.00    +0.062 C 
ATOM      5  C   UNL     1       4.529   6.609  -0.853  0.00  0.00    +0.030 C 
ATOM      6  C   UNL     1       5.060   8.122  -2.855  0.00  0.00    +0.069 C 
ATOM      7  N   UNL     1       4.758   8.061  -4.116  0.00  0.00    -0.177 NA
ATOM      8  C   UNL     1       5.881   9.194  -2.186  0.00  0.00    +0.068 C 
ENDROOT
BRANCH   1  13
ATOM      9  C   UNL     1       1.994   5.563  -9.532  0.00  0.00    +0.044 C 
ATOM     10  C   UNL     1       2.522   5.928  -8.169  0.00  0.00    -0.050 A 
ATOM     11  C   UNL     1       3.287   7.069  -8.008  0.00  0.00    +0.005 A 
ATOM     12  C   UNL     1       3.772   7.406  -6.759  0.00  0.00    +0.026 A 
ATOM     13  C   UNL     1       3.489   6.599  -5.665  0.00  0.00    +0.060 A 
ATOM     14  C   UNL     1       2.725   5.451  -5.831  0.00  0.00    +0.026 A 
ATOM     15  C   UNL     1       2.239   5.122  -7.081  0.00  0.00    +0.005 A 
ENDBRANCH   1  13
BRANCH   5  16
ATOM     16  C   UNL     1       3.883   5.444  -0.389  0.00  0.00    +0.060 A 
ATOM     17  C   UNL     1       4.465   4.385   0.440  0.00  0.00    +0.071 A 
ATOM     18  N   UNL     1       3.535   3.496   0.642  0.00  0.00    -0.168 NA
ATOM     19  N   UNL     1       2.358   3.889   0.001  0.00  0.00    -0.200 N 
ATOM     20  C   UNL     1       2.558   5.063  -0.631  0.00  0.00    +0.223 A 
ATOM     21  C   UNL     1       5.878   4.335   0.961  0.00  0.00    +0.068 C 
BRANCH  19  22
ATOM     22  C   UNL     1       1.155   3.170   0.008  0.00  0.00    +0.069 A 
ATOM     23  C   UNL     1       1.174   1.782   0.000  0.00  0.00    +0.029 A 
ATOM     24  C   UNL     1      -0.013   1.076   0.008  0.00  0.00    +0.022 A 
ATOM     25  C   UNL     1      -1.221   1.751   0.017  0.00  0.00    +0.041 A 
ATOM     26  C   UNL     1      -1.243   3.135   0.031  0.00  0.00    +0.022 A 
ATOM     27  C   UNL     1      -0.059   3.845   0.023  0.00  0.00    +0.029 A 
ATOM     28 CL   UNL     1      -2.711   0.860   0.019  0.00  0.00    -0.084 Cl
ENDBRANCH  19  22
BRANCH  20  29
ATOM     29  O   UNL     1       1.647   5.746  -1.360  0.00  0.00    -0.492 OA
ATOM     30  H   UNL     1       1.127   6.379  -0.847  0.00  0.00    +0.294 HD
ENDBRANCH  20  29
ENDBRANCH   5  16
TORSDOF 4
