REMARK  Name = ZINC09428632
REMARK  7 active torsions:
REMARK  status: ('A' for Active; 'I' for Inactive)
REMARK    1  A    between atoms: C_1  and  C_2
REMARK    2  A    between atoms: C_5  and  S_8
REMARK    3  A    between atoms: S_8  and  N_11
REMARK    4  A    between atoms: N_11  and  C_12
REMARK    5  A    between atoms: C_24  and  S_26
REMARK    6  A    between atoms: S_26  and  C_27
REMARK    7  A    between atoms: N_31  and  N_32
REMARK                            x       y       z     vdW  Elec       q    Type
REMARK                         _______ _______ _______ _____ _____    ______ ____
ROOT
ATOM      1  C   UNL     1       3.034  -3.989   1.402  0.00  0.00    +0.125 C 
ATOM      2  C   UNL     1       2.965  -5.178   2.330  0.00  0.00    -0.019 A 
ATOM      3  C   UNL     1       2.013  -5.693   3.156  0.00  0.00    +0.006 A 
ATOM      4  C   UNL     1       2.274  -6.843   3.903  0.00  0.00    +0.001 A 
ATOM      5  C   UNL     1       3.472  -7.495   3.844  0.00  0.00    +0.008 A 
ATOM      6  C   UNL     1       4.477  -6.991   3.003  0.00  0.00    -0.017 A 
ATOM      7  C   UNL     1       4.191  -5.831   2.260  0.00  0.00    -0.009 A 
ATOM      8  C   UNL     1       5.111  -5.245   1.397  0.00  0.00    -0.024 A 
ATOM      9  C   UNL     1       6.335  -5.829   1.276  0.00  0.00    +0.005 A 
ATOM     10  C   UNL     1       6.641  -6.982   2.004  0.00  0.00    +0.001 A 
ATOM     11  C   UNL     1       5.749  -7.567   2.854  0.00  0.00    +0.008 A 
ATOM     12  C   UNL     1       4.449  -4.031   0.786  0.00  0.00    +0.108 C 
ENDROOT
BRANCH   1  13
ATOM     13  N   UNL     1       2.019  -4.106   0.351  0.00  0.00    -0.181 NA
ATOM     14  H   UNL     1       2.194  -4.649  -0.433  0.00  0.00    +0.149 HD
BRANCH  13  15
ATOM     15  S   UNL     1       0.575  -3.311   0.502  0.00  0.00    +0.059 S 
ATOM     16  O   UNL     1       0.086  -3.600   1.805  0.00  0.00    -0.153 OA
ATOM     17  O   UNL     1      -0.172  -3.597  -0.672  0.00  0.00    -0.153 OA
BRANCH  15  22
ATOM     18  C   UNL     1       1.770   2.602   0.386  0.00  0.00    +0.044 C 
ATOM     19  C   UNL     1       1.471   1.125   0.415  0.00  0.00    -0.050 A 
ATOM     20  C   UNL     1       1.212   0.450  -0.762  0.00  0.00    +0.005 A 
ATOM     21  C   UNL     1       0.938  -0.905  -0.736  0.00  0.00    +0.029 A 
ATOM     22  C   UNL     1       0.925  -1.584   0.469  0.00  0.00    +0.105 A 
ATOM     23  C   UNL     1       1.185  -0.908   1.646  0.00  0.00    +0.029 A 
ATOM     24  C   UNL     1       1.463   0.446   1.619  0.00  0.00    +0.005 A 
ENDBRANCH  15  22
ENDBRANCH  13  15
ENDBRANCH   1  13
BRANCH  12  25
ATOM     25  S   UNL     1       4.346  -4.210  -1.016  0.00  0.00    -0.074 S 
BRANCH  25  26
ATOM     26  C   UNL     1       6.020  -4.091  -1.553  0.00  0.00    +0.212 A 
ATOM     27  N   UNL     1       7.075  -3.919  -0.790  0.00  0.00    -0.121 NA
ATOM     28  N   UNL     1       8.136  -3.877  -1.512  0.00  0.00    -0.135 NA
ATOM     29  C   UNL     1       7.829  -4.019  -2.771  0.00  0.00    +0.249 A 
ATOM     30  N   UNL     1       6.469  -4.166  -2.844  0.00  0.00    -0.195 N 
BRANCH  30  31
ATOM     31  N   UNL     1       5.697  -4.352  -3.999  0.00  0.00    -0.173 NA
ATOM     32  C   UNL     1       5.855  -3.577  -5.005  0.00  0.00    +0.040 C 
ATOM     33  C   UNL     1       6.745  -2.353  -5.064  0.00  0.00    +0.053 C 
ATOM     34  C   UNL     1       6.589  -1.755  -6.478  0.00  0.00    +0.006 C 
ATOM     35  C   UNL     1       5.212  -2.284  -6.952  0.00  0.00    +0.006 C 
ATOM     36  C   UNL     1       5.190  -3.719  -6.363  0.00  0.00    +0.053 C 
ENDBRANCH  30  31
ENDBRANCH  25  26
ENDBRANCH  12  25
TORSDOF 6
