REMARK  Name = ZINC40066829
REMARK  15 active torsions:
REMARK  status: ('A' for Active; 'I' for Inactive)
REMARK    1  A    between atoms: C_1  and  C_2
REMARK    2  A    between atoms: C_2  and  C_3
REMARK    3  A    between atoms: C_3  and  N_4
REMARK    4  A    between atoms: C_5  and  N_26
REMARK    5  A    between atoms: C_6  and  C_14
REMARK    6  A    between atoms: C_7  and  C_13
REMARK    7  A    between atoms: C_8  and  C_11
REMARK    8  A    between atoms: N_18  and  C_22
REMARK    9  A    between atoms: C_22  and  C_23
REMARK   10  A    between atoms: C_23  and  C_24
REMARK   11  A    between atoms: C_23  and  C_25
REMARK   12  A    between atoms: N_26  and  C_27
REMARK   13  A    between atoms: C_27  and  C_28
REMARK   14  A    between atoms: C_31  and  O_34
REMARK   15  A    between atoms: O_34  and  C_35
REMARK                            x       y       z     vdW  Elec       q    Type
REMARK                         _______ _______ _______ _____ _____    ______ ____
ROOT
ATOM      1  N   UNL     1       0.725  -1.890   1.176  0.00  0.00    -0.295 N 
ATOM      2  C   UNL     1      -0.242  -2.536   1.878  0.00  0.00    +0.109 A 
ATOM      3  C   UNL     1      -0.429  -3.920   1.728  0.00  0.00    +0.019 A 
ATOM      4  C   UNL     1       0.393  -4.636   0.842  0.00  0.00    -0.017 A 
ATOM      5  C   UNL     1       1.376  -3.951   0.133  0.00  0.00    +0.120 A 
ATOM      6  C   UNL     1       1.521  -2.553   0.317  0.00  0.00    +0.270 A 
ATOM      7  O   UNL     1       2.377  -1.947  -0.304  0.00  0.00    -0.266 OA
ATOM      8  C   UNL     1       0.213  -6.122   0.662  0.00  0.00    +0.046 C 
ENDROOT
BRANCH   3   9
ATOM      9  C   UNL     1      -1.473  -4.610   2.489  0.00  0.00    +0.032 C 
ATOM     10  C   UNL     1      -2.772  -4.223   2.367  0.00  0.00    +0.077 C 
ATOM     11  C   UNL     1      -3.930  -4.702   3.053  0.00  0.00    +0.258 C 
ATOM     12  O   UNL     1      -3.845  -5.584   3.888  0.00  0.00    -0.269 OA
ATOM     13  N   UNL     1      -5.097  -4.157   2.754  0.00  0.00    -0.255 N 
ATOM     14  C   UNL     1      -5.191  -3.179   1.827  0.00  0.00    +0.121 C 
ATOM     15  S   UNL     1      -6.584  -2.342   1.288  0.00  0.00    -0.027 S 
ATOM     16  S   UNL     1      -3.493  -2.974   1.311  0.00  0.00    -0.061 S 
BRANCH  13  17
ATOM     17  C   UNL     1      -6.306  -4.623   3.437  0.00  0.00    +0.118 C 
BRANCH  17  18
ATOM     18  C   UNL     1      -6.528  -3.793   4.703  0.00  0.00    +0.001 C 
ATOM     19  C   UNL     1      -7.855  -4.194   5.350  0.00  0.00    +0.009 C 
ATOM     20  C   UNL     1      -5.384  -4.047   5.687  0.00  0.00    +0.009 C 
ENDBRANCH  17  18
ENDBRANCH  13  17
ENDBRANCH   3   9
BRANCH   5  21
ATOM     21  C   UNL     1       2.230  -4.653  -0.777  0.00  0.00    +0.105 C 
ATOM     22  N   UNL     1       2.908  -5.209  -1.500  0.00  0.00    -0.191 NA
ENDBRANCH   5  21
BRANCH   2  23
ATOM     23  N   UNL     1      -1.036  -1.834   2.737  0.00  0.00    -0.326 N 
ATOM     24  H   UNL     1      -1.841  -1.403   2.410  0.00  0.00    +0.148 HD
BRANCH  23  25
ATOM     25  C   UNL     1      -0.674  -1.733   4.153  0.00  0.00    +0.138 C 
BRANCH  25  26
ATOM     26  C   UNL     1      -1.716  -0.923   4.881  0.00  0.00    -0.030 A 
ATOM     27  C   UNL     1      -1.579   0.449   4.980  0.00  0.00    +0.009 A 
ATOM     28  C   UNL     1      -2.532   1.193   5.647  0.00  0.00    +0.046 A 
ATOM     29  C   UNL     1      -3.628   0.563   6.218  0.00  0.00    +0.120 A 
ATOM     30  C   UNL     1      -3.764  -0.814   6.117  0.00  0.00    +0.046 A 
ATOM     31  C   UNL     1      -2.810  -1.553   5.444  0.00  0.00    +0.009 A 
BRANCH  29  32
ATOM     32  O   UNL     1      -4.567   1.293   6.876  0.00  0.00    -0.495 OA
ATOM     33  C   UNL     1      -5.669   0.577   7.438  0.00  0.00    +0.277 C 
ENDBRANCH  29  32
ENDBRANCH  25  26
ENDBRANCH  23  25
ENDBRANCH   2  23
BRANCH   1  34
ATOM     34  C   UNL     1       0.900  -0.447   1.351  0.00  0.00    +0.126 C 
BRANCH  34  36
ATOM     35  C   UNL     1       0.025   1.803   0.706  0.00  0.00    +0.005 C 
ATOM     36  C   UNL     1      -0.070   0.300   0.433  0.00  0.00    +0.018 C 
ENDBRANCH  34  36
ENDBRANCH   1  34
TORSDOF 10
