REMARK  Name = ZINC57642392
REMARK  13 active torsions:
REMARK  status: ('A' for Active; 'I' for Inactive)
REMARK    1  A    between atoms: C_1  and  C_2
REMARK    2  A    between atoms: C_2  and  C_3
REMARK    3  A    between atoms: C_3  and  C_5
REMARK    4  A    between atoms: C_3  and  N_17
REMARK    5  A    between atoms: N_9  and  C_10
REMARK    6  A    between atoms: C_10  and  C_11
REMARK    7  A    between atoms: N_17  and  C_18
REMARK    8  A    between atoms: N_17  and  C_26
REMARK    9  A    between atoms: C_18  and  C_19
REMARK   10  A    between atoms: C_22  and  C_25
REMARK   11  A    between atoms: C_26  and  C_27
REMARK   12  A    between atoms: C_30  and  C_40
REMARK   13  A    between atoms: C_33  and  C_39
REMARK                            x       y       z     vdW  Elec       q    Type
REMARK                         _______ _______ _______ _____ _____    ______ ____
ROOT
ATOM      1  N   UNL     1      -1.925   0.504  -1.350  0.00  0.00    -0.284 NA
ENDROOT
BRANCH   1   2
ATOM      2  C   UNL     1      -1.471  -0.851  -1.012  0.00  0.00    +0.127 C 
BRANCH   2   3
ATOM      3  C   UNL     1       0.018  -0.950  -1.223  0.00  0.00    +0.169 A 
ATOM      4  N   UNL     1       0.850   0.047  -1.402  0.00  0.00    -0.112 NA
ATOM      5  N   UNL     1       2.033  -0.444  -1.546  0.00  0.00    -0.023 NA
ATOM      6  N   UNL     1       1.976  -1.728  -1.464  0.00  0.00    -0.044 NA
ATOM      7  N   UNL     1       0.751  -2.078  -1.259  0.00  0.00    -0.223 N 
BRANCH   7   8
ATOM      8  C   UNL     1       0.252  -3.446  -1.100  0.00  0.00    +0.182 C 
BRANCH   8   9
ATOM      9  C   UNL     1      -0.124  -4.003  -2.449  0.00  0.00    -0.026 A 
ATOM     10  C   UNL     1      -1.407  -3.833  -2.934  0.00  0.00    +0.005 A 
ATOM     11  C   UNL     1      -1.752  -4.344  -4.171  0.00  0.00    +0.000 A 
ATOM     12  C   UNL     1      -0.814  -5.026  -4.923  0.00  0.00    +0.000 A 
ATOM     13  C   UNL     1       0.470  -5.196  -4.439  0.00  0.00    +0.000 A 
ATOM     14  C   UNL     1       0.816  -4.680  -3.203  0.00  0.00    +0.005 A 
ENDBRANCH   8   9
ENDBRANCH   7   8
ENDBRANCH   2   3
BRANCH   2  16
ATOM     15  C   UNL     1      -3.310  -1.043   0.669  0.00  0.00    +0.006 C 
ATOM     16  C   UNL     1      -1.799  -1.148   0.453  0.00  0.00    +0.023 C 
ENDBRANCH   2  16
ENDBRANCH   1   2
BRANCH   1  17
ATOM     17  C   UNL     1      -3.353   0.510  -1.696  0.00  0.00    +0.120 C 
BRANCH  17  18
ATOM     18  C   UNL     1      -3.689   1.790  -2.418  0.00  0.00    -0.033 A 
ATOM     19  C   UNL     1      -4.252   2.846  -1.727  0.00  0.00    +0.005 A 
ATOM     20  C   UNL     1      -4.561   4.019  -2.390  0.00  0.00    +0.003 A 
ATOM     21  C   UNL     1      -4.305   4.137  -3.743  0.00  0.00    -0.050 A 
ATOM     22  C   UNL     1      -3.741   3.080  -4.434  0.00  0.00    +0.003 A 
ATOM     23  C   UNL     1      -3.429   1.909  -3.771  0.00  0.00    +0.005 A 
ATOM     24  C   UNL     1      -4.643   5.415  -4.466  0.00  0.00    +0.044 C 
ENDBRANCH  17  18
ENDBRANCH   1  17
BRANCH   1  25
ATOM     25  C   UNL     1      -1.645   1.442  -0.254  0.00  0.00    +0.126 C 
BRANCH  25  26
ATOM     26  C   UNL     1      -0.193   1.841  -0.293  0.00  0.00    +0.032 A 
ATOM     27  C   UNL     1       0.235   2.746  -1.208  0.00  0.00    +0.020 A 
ATOM     28  C   UNL     1       1.652   3.113  -1.220  0.00  0.00    +0.002 A 
ATOM     29  C   UNL     1       2.152   4.040  -2.140  0.00  0.00    -0.041 A 
ATOM     30  C   UNL     1       3.480   4.361  -2.124  0.00  0.00    +0.004 A 
ATOM     31  C   UNL     1       4.337   3.776  -1.203  0.00  0.00    +0.005 A 
ATOM     32  C   UNL     1       3.867   2.859  -0.287  0.00  0.00    -0.026 A 
ATOM     33  C   UNL     1       2.518   2.517  -0.284  0.00  0.00    +0.052 A 
ATOM     34  N   UNL     1       2.021   1.604   0.621  0.00  0.00    -0.322 N 
ATOM     35  H   UNL     1       2.619   1.195   1.266  0.00  0.00    +0.169 HD
ATOM     36  C   UNL     1       0.716   1.277   0.628  0.00  0.00    +0.254 A 
ATOM     37  O   UNL     1       0.310   0.470   1.446  0.00  0.00    -0.268 OA
ATOM     38  C   UNL     1       4.809   2.231   0.706  0.00  0.00    +0.046 C 
ATOM     39  C   UNL     1       1.230   4.681  -3.145  0.00  0.00    +0.044 C 
ENDBRANCH  25  26
ENDBRANCH   1  25
TORSDOF 9
