REMARK  Name = ZINC09882922
REMARK  4 active torsions:
REMARK  status: ('A' for Active; 'I' for Inactive)
REMARK    1  A    between atoms: C_1  and  C_2
REMARK    2  A    between atoms: C_2  and  C_4
REMARK    3  A    between atoms: C_2  and  S_7
REMARK    4  A    between atoms: S_7  and  C_8
REMARK                            x       y       z     vdW  Elec       q    Type
REMARK                         _______ _______ _______ _____ _____    ______ ____
ROOT
ATOM      1  C   UNL     1      -0.136  -0.087   2.816  0.00  0.00    +0.192 A 
ATOM      2  N   UNL     1      -1.259   0.580   2.698  0.00  0.00    -0.201 NA
ATOM      3  C   UNL     1      -1.783   0.816   3.927  0.00  0.00    +0.181 A 
ATOM      4  C   UNL     1      -0.902   0.245   4.864  0.00  0.00    +0.112 A 
ATOM      5  N   UNL     1       0.127  -0.324   4.135  0.00  0.00    -0.219 NA
ATOM      6  C   UNL     1      -1.192   0.337   6.217  0.00  0.00    +0.053 A 
ATOM      7  C   UNL     1      -2.353   0.996   6.596  0.00  0.00    +0.061 A 
ATOM      8  C   UNL     1      -3.177   1.536   5.623  0.00  0.00    +0.133 A 
ATOM      9  N   UNL     1      -2.884   1.437   4.343  0.00  0.00    -0.233 NA
ATOM     10 CL   UNL     1      -2.768   1.142   8.275  0.00  0.00    -0.082 Cl
ENDROOT
BRANCH   1  11
ATOM     11  S   UNL     1       0.879  -0.605   1.472  0.00  0.00    -0.074 S 
BRANCH  11  13
ATOM     12  C   UNL     1      -0.019   1.526   0.010  0.00  0.00    +0.029 C 
ATOM     13  C   UNL     1       0.002  -0.004   0.002  0.00  0.00    +0.137 C 
BRANCH  13  14
ATOM     14  C   UNL     1       0.707  -0.490  -1.238  0.00  0.00    +0.224 C 
ATOM     15  O   UNL     1       1.864  -0.849  -1.176  0.00  0.00    -0.275 OA
ATOM     16  N   UNL     1       0.053  -0.526  -2.415  0.00  0.00    -0.328 N 
ATOM     17  H   UNL     1      -0.873  -0.239  -2.465  0.00  0.00    +0.145 HD
ATOM     18  H   UNL     1       0.507  -0.839  -3.213  0.00  0.00    +0.145 HD
ENDBRANCH  13  14
ENDBRANCH  11  13
ENDBRANCH   1  11
TORSDOF 3
