REMARK  Name = ZINC39694264
REMARK  6 active torsions:
REMARK  status: ('A' for Active; 'I' for Inactive)
REMARK    1  A    between atoms: C_4  and  N_34
REMARK    2  A    between atoms: C_5  and  C_7
REMARK    3  A    between atoms: C_7  and  N_8
REMARK    4  A    between atoms: C_9  and  C_11
REMARK    5  A    between atoms: C_22  and  C_24
REMARK    6  A    between atoms: C_27  and  C_30
REMARK                            x       y       z     vdW  Elec       q    Type
REMARK                         _______ _______ _______ _____ _____    ______ ____
ROOT
ATOM      1  C   UNL     1       2.330  -4.518   2.484  0.00  0.00    +0.100 C 
ATOM      2  C   UNL     1       3.614  -4.112   3.242  0.00  0.00    +0.121 C 
ATOM      3  N   UNL     1       3.970  -5.308   4.042  0.00  0.00    -0.296 N 
ATOM      4  C   UNL     1       3.679  -6.451   3.144  0.00  0.00    +0.115 C 
ATOM      5  C   UNL     1       2.377  -6.053   2.422  0.00  0.00    -0.004 C 
ATOM      6  C   UNL     1       1.170  -6.649   3.142  0.00  0.00    -0.010 C 
ATOM      7  C   UNL     1       1.209  -8.175   3.017  0.00  0.00    -0.082 C 
ATOM      8  N   UNL     1       1.193  -8.552   1.598  0.00  0.00    +0.379 N 
ATOM      9  C   UNL     1       2.403  -8.053   0.933  0.00  0.00    -0.082 C 
ATOM     10  C   UNL     1       2.414  -6.523   0.970  0.00  0.00    -0.010 C 
ATOM     11  C   UNL     1       4.451  -5.347   5.300  0.00  0.00    +0.247 C 
ATOM     12  O   UNL     1       4.517  -4.327   5.957  0.00  0.00    -0.270 OA
ATOM     13  H   UNL     1       1.157  -9.557   1.519  0.00  0.00    -0.086 HD
ATOM     14  H   UNL     1       0.379  -8.153   1.155  0.00  0.00    -0.086 HD
ENDROOT
BRANCH  11  15
ATOM     15  C   UNL     1       4.897  -6.631   5.881  0.00  0.00    +0.037 A 
ATOM     16  C   UNL     1       5.235  -7.698   5.047  0.00  0.00    +0.013 A 
ATOM     17  C   UNL     1       5.652  -8.893   5.596  0.00  0.00    +0.013 A 
ATOM     18  C   UNL     1       5.735  -9.036   6.969  0.00  0.00    +0.055 A 
ATOM     19  C   UNL     1       5.401  -7.982   7.802  0.00  0.00    +0.013 A 
ATOM     20  C   UNL     1       4.989  -6.780   7.266  0.00  0.00    +0.013 A 
BRANCH  18  21
ATOM     21  C   UNL     1       6.191 -10.345   7.562  0.00  0.00    +0.417 C 
ATOM     22  F   UNL     1       7.581 -10.329   7.713  0.00  0.00    -0.166 F 
ATOM     23  F   UNL     1       5.588 -10.526   8.811  0.00  0.00    -0.166 F 
ATOM     24  F   UNL     1       5.826 -11.393   6.711  0.00  0.00    -0.166 F 
ENDBRANCH  18  21
ENDBRANCH  11  15
BRANCH   1  26
ATOM     25  N   UNL     1       1.171  -3.624   0.490  0.00  0.00    -0.311 N 
ATOM     26  C   UNL     1       2.335  -3.935   1.095  0.00  0.00    +0.218 C 
ATOM     27  O   UNL     1       3.386  -3.746   0.520  0.00  0.00    -0.275 OA
ATOM     28  H   UNL     1       0.330  -3.776   0.949  0.00  0.00    +0.149 HD
BRANCH  25  29
ATOM     29  C   UNL     1       1.176  -3.058  -0.861  0.00  0.00    +0.141 C 
BRANCH  29  34
ATOM     30  C   UNL     1      -2.176  -3.464  -2.551  0.00  0.00    +0.000 A 
ATOM     31  C   UNL     1      -2.847  -2.334  -2.119  0.00  0.00    +0.002 A 
ATOM     32  C   UNL     1      -2.219  -1.436  -1.280  0.00  0.00    +0.023 A 
ATOM     33  C   UNL     1      -0.912  -1.667  -0.869  0.00  0.00    +0.035 A 
ATOM     34  C   UNL     1      -0.242  -2.803  -1.304  0.00  0.00    -0.009 A 
ATOM     35  C   UNL     1      -0.876  -3.698  -2.144  0.00  0.00    +0.007 A 
BRANCH  33  36
ATOM     36  N   UNL     1      -0.274  -0.760  -0.020  0.00  0.00    -0.325 N 
ATOM     37  C   UNL     1       0.494   0.372  -0.561  0.00  0.00    +0.133 C 
ATOM     38  C   UNL     1       0.024   1.653   0.136  0.00  0.00    +0.178 C 
ATOM     39  O   UNL     1       0.081   1.467   1.552  0.00  0.00    -0.377 OA
ATOM     40  C   UNL     1      -0.781   0.436   2.042  0.00  0.00    +0.178 C 
ATOM     41  C   UNL     1      -0.356  -0.904   1.442  0.00  0.00    +0.133 C 
ENDBRANCH  33  36
ENDBRANCH  29  34
ENDBRANCH  25  29
ENDBRANCH   1  26
TORSDOF 6
