REMARK  Name = ZINC59170442
REMARK  7 active torsions:
REMARK  status: ('A' for Active; 'I' for Inactive)
REMARK    1  A    between atoms: C_1  and  C_2
REMARK    2  A    between atoms: C_5  and  S_8
REMARK    3  A    between atoms: S_8  and  N_11
REMARK    4  A    between atoms: N_11  and  N_12
REMARK    5  A    between atoms: C_14  and  C_27
REMARK    6  A    between atoms: N_29  and  C_30
REMARK    7  A    between atoms: C_34  and  C_36
REMARK                            x       y       z     vdW  Elec       q    Type
REMARK                         _______ _______ _______ _____ _____    ______ ____
ROOT
ATOM      1  N   UNL     1       3.288  -3.592  -0.160  0.00  0.00    -0.260 N 
ATOM      2  C   UNL     1       4.379  -4.272   0.059  0.00  0.00    +0.225 A 
ATOM      3  C   UNL     1       5.048  -4.248   1.380  0.00  0.00    +0.099 A 
ATOM      4  C   UNL     1       5.827  -5.346   1.713  0.00  0.00    +0.030 A 
ATOM      5  C   UNL     1       5.953  -6.390   0.765  0.00  0.00    +0.026 A 
ATOM      6  C   UNL     1       6.572  -7.663   1.135  0.00  0.00    -0.007 A 
ATOM      7  C   UNL     1       7.075  -7.887   2.420  0.00  0.00    +0.009 A 
ATOM      8  C   UNL     1       7.644  -9.090   2.721  0.00  0.00    +0.001 A 
ATOM      9  C   UNL     1       7.731 -10.099   1.766  0.00  0.00    +0.001 A 
ATOM     10  C   UNL     1       7.250  -9.913   0.505  0.00  0.00    +0.008 A 
ATOM     11  C   UNL     1       6.658  -8.686   0.160  0.00  0.00    -0.017 A 
ATOM     12  C   UNL     1       6.150  -8.458  -1.132  0.00  0.00    +0.012 A 
ATOM     13  C   UNL     1       5.586  -7.266  -1.462  0.00  0.00    +0.047 A 
ATOM     14  C   UNL     1       5.483  -6.222  -0.542  0.00  0.00    +0.138 A 
ATOM     15  O   UNL     1       4.944  -5.038  -0.920  0.00  0.00    -0.437 OA
ATOM     16  H   UNL     1       2.856  -3.121   0.570  0.00  0.00    +0.189 HD
ENDROOT
BRANCH   3  17
ATOM     17  C   UNL     1       4.894  -3.110   2.299  0.00  0.00    +0.253 C 
ATOM     18  O   UNL     1       4.141  -2.197   2.015  0.00  0.00    -0.270 OA
ATOM     19  N   UNL     1       5.586  -3.078   3.455  0.00  0.00    -0.281 N 
ATOM     20  H   UNL     1       6.253  -3.758   3.639  0.00  0.00    +0.155 HD
BRANCH  19  21
ATOM     21  C   UNL     1       5.341  -2.067   4.388  0.00  0.00    +0.034 A 
ATOM     22  C   UNL     1       4.064  -1.537   4.523  0.00  0.00    +0.023 A 
ATOM     23  C   UNL     1       3.826  -0.537   5.445  0.00  0.00    +0.002 A 
ATOM     24  C   UNL     1       4.858  -0.064   6.235  0.00  0.00    +0.003 A 
ATOM     25  C   UNL     1       6.130  -0.588   6.104  0.00  0.00    -0.049 A 
ATOM     26  C   UNL     1       6.374  -1.593   5.187  0.00  0.00    +0.026 A 
ATOM     27  C   UNL     1       7.252  -0.068   6.966  0.00  0.00    +0.044 C 
ENDBRANCH  19  21
ENDBRANCH   3  17
BRANCH   1  28
ATOM     28  N   UNL     1       2.741  -3.541  -1.448  0.00  0.00    -0.157 N 
ATOM     29  H   UNL     1       3.131  -4.070  -2.162  0.00  0.00    +0.194 HD
BRANCH  28  30
ATOM     30  S   UNL     1       1.429  -2.578  -1.753  0.00  0.00    +0.085 S 
ATOM     31  O   UNL     1       0.390  -3.023  -0.893  0.00  0.00    -0.149 OA
ATOM     32  O   UNL     1       1.280  -2.528  -3.165  0.00  0.00    -0.149 OA
BRANCH  30  37
ATOM     33  C   UNL     1       2.862   3.008   0.024  0.00  0.00    +0.044 C 
ATOM     34  C   UNL     1       2.504   1.613  -0.420  0.00  0.00    -0.050 A 
ATOM     35  C   UNL     1       2.865   1.175  -1.680  0.00  0.00    +0.005 A 
ATOM     36  C   UNL     1       2.537  -0.105  -2.087  0.00  0.00    +0.029 A 
ATOM     37  C   UNL     1       1.848  -0.947  -1.234  0.00  0.00    +0.110 A 
ATOM     38  C   UNL     1       1.488  -0.509   0.027  0.00  0.00    +0.029 A 
ATOM     39  C   UNL     1       1.820   0.769   0.436  0.00  0.00    +0.005 A 
ENDBRANCH  30  37
ENDBRANCH  28  30
ENDBRANCH   1  28
TORSDOF 5
