REMARK  Name = ZINC09501720
REMARK  8 active torsions:
REMARK  status: ('A' for Active; 'I' for Inactive)
REMARK    1  A    between atoms: C_4  and  C_7
REMARK    2  A    between atoms: C_7  and  C_8
REMARK    3  A    between atoms: C_14  and  C_16
REMARK    4  A    between atoms: C_16  and  N_69
REMARK    5  A    between atoms: C_17  and  C_18
REMARK    6  A    between atoms: C_17  and  N_69
REMARK    7  A    between atoms: C_30  and  C_31
REMARK    8  A    between atoms: C_30  and  N_69
REMARK                            x       y       z     vdW  Elec       q    Type
REMARK                         _______ _______ _______ _____ _____    ______ ____
ROOT
ATOM      1  N   UNL     1       4.920   1.157  -0.074  0.00  0.00    +0.392 N 
ATOM      2  H   UNL     1       4.726   0.359   0.542  0.00  0.00    -0.080 HD
ENDROOT
BRANCH   1   3
ATOM      3  C   UNL     1       6.073   1.909   0.462  0.00  0.00    +0.019 C 
BRANCH   3  10
ATOM      4  C   UNL     1      10.980   2.319   1.398  0.00  0.00    -0.004 C 
ATOM      5  C   UNL     1      10.678   0.859   1.052  0.00  0.00    +0.023 C 
ATOM      6  C   UNL     1       9.377   0.434   1.741  0.00  0.00    +0.108 C 
ATOM      7  N   UNL     1       8.314   1.376   1.366  0.00  0.00    -0.303 N 
ATOM      8  C   UNL     1       8.540   2.814   1.567  0.00  0.00    +0.108 C 
ATOM      9  C   UNL     1       9.848   3.212   0.885  0.00  0.00    +0.023 C 
ATOM     10  C   UNL     1       7.155   0.930   0.842  0.00  0.00    +0.199 C 
ATOM     11  O   UNL     1       6.982  -0.259   0.676  0.00  0.00    -0.278 OA
BRANCH   4  12
ATOM     12  C   UNL     1      12.296   2.736   0.739  0.00  0.00    +0.038 C 
BRANCH  12  16
ATOM     13  C   UNL     1      13.320   6.693   1.983  0.00  0.00    +0.000 A 
ATOM     14  C   UNL     1      13.761   5.603   2.711  0.00  0.00    +0.000 A 
ATOM     15  C   UNL     1      13.430   4.323   2.308  0.00  0.00    +0.003 A 
ATOM     16  C   UNL     1      12.657   4.132   1.178  0.00  0.00    -0.047 A 
ATOM     17  C   UNL     1      12.220   5.221   0.448  0.00  0.00    +0.003 A 
ATOM     18  C   UNL     1      12.548   6.502   0.853  0.00  0.00    +0.000 A 
ENDBRANCH  12  16
ENDBRANCH   4  12
ENDBRANCH   3  10
ENDBRANCH   1   3
BRANCH   1  19
ATOM     19  C   UNL     1       3.727   2.029  -0.122  0.00  0.00    -0.002 C 
BRANCH  19  20
ATOM     20  C   UNL     1       2.514   1.177  -0.393  0.00  0.00    +0.094 A 
ATOM     21  N   UNL     1       1.301   1.785  -0.459  0.00  0.00    -0.312 N 
ATOM     22  H   UNL     1       1.236   2.744  -0.332  0.00  0.00    +0.170 HD
ATOM     23  C   UNL     1       0.181   1.064  -0.701  0.00  0.00    +0.259 A 
ATOM     24  O   UNL     1      -0.912   1.596  -0.767  0.00  0.00    -0.267 OA
ATOM     25  C   UNL     1       0.336  -0.387  -0.886  0.00  0.00    +0.065 A 
ATOM     26  C   UNL     1      -0.752  -1.218  -1.139  0.00  0.00    +0.015 A 
ATOM     27  C   UNL     1      -0.549  -2.571  -1.305  0.00  0.00    +0.001 A 
ATOM     28  C   UNL     1       0.728  -3.108  -1.221  0.00  0.00    +0.002 A 
ATOM     29  C   UNL     1       1.817  -2.304  -0.971  0.00  0.00    +0.028 A 
ATOM     30  C   UNL     1       1.637  -0.930  -0.800  0.00  0.00    +0.078 A 
ATOM     31  N   UNL     1       2.682  -0.101  -0.552  0.00  0.00    -0.236 NA
ENDBRANCH  19  20
ENDBRANCH   1  19
BRANCH   1  32
ATOM     32  C   UNL     1       5.231   0.654  -1.429  0.00  0.00    -0.046 C 
BRANCH  32  33
ATOM     33  C   UNL     1       5.632   1.807  -2.351  0.00  0.00    +0.102 C 
ATOM     34  C   UNL     1       6.140   1.250  -3.695  0.00  0.00    +0.032 C 
ATOM     35  C   UNL     1       5.198   1.884  -4.748  0.00  0.00    +0.030 C 
ATOM     36  C   UNL     1       4.638   3.111  -3.986  0.00  0.00    +0.160 C 
ATOM     37  O   UNL     1       4.486   2.628  -2.634  0.00  0.00    -0.378 OA
ENDBRANCH  32  33
ENDBRANCH   1  32
TORSDOF 8
