REMARK  Name = ZINC04299559
REMARK  8 active torsions:
REMARK  status: ('A' for Active; 'I' for Inactive)
REMARK    1  A    between atoms: N_9  and  C_10
REMARK    2  A    between atoms: C_10  and  C_11
REMARK    3  A    between atoms: C_11  and  C_13
REMARK    4  A    between atoms: C_11  and  O_28
REMARK    5  A    between atoms: C_13  and  N_58
REMARK    6  A    between atoms: C_16  and  N_60
REMARK    7  A    between atoms: C_19  and  N_60
REMARK    8  A    between atoms: C_25  and  O_27
REMARK                            x       y       z     vdW  Elec       q    Type
REMARK                         _______ _______ _______ _____ _____    ______ ____
ROOT
ATOM      1  C   UNL     1       6.690  -0.451   3.405  0.00  0.00    -0.080 C 
ATOM      2  C   UNL     1       5.200  -0.279   3.708  0.00  0.00    -0.034 C 
ATOM      3  C   UNL     1       4.412  -0.296   2.396  0.00  0.00    -0.075 C 
ATOM      4  C   UNL     1       4.689  -1.609   1.660  0.00  0.00    -0.034 C 
ATOM      5  C   UNL     1       6.194  -1.743   1.416  0.00  0.00    -0.080 C 
ATOM      6  N   UNL     1       6.894  -1.745   2.718  0.00  0.00    +0.381 N 
ATOM      7  H   UNL     1       6.508  -2.496   3.302  0.00  0.00    -0.082 HD
ENDROOT
BRANCH   3   8
ATOM      8  N   UNL     1       2.971  -0.192   2.695  0.00  0.00    +0.384 N 
ATOM      9  H   UNL     1       2.837   0.413   3.513  0.00  0.00    -0.085 HD
ATOM     10  H   UNL     1       2.599  -1.128   2.897  0.00  0.00    -0.085 HD
BRANCH   8  11
ATOM     11  C   UNL     1       2.249   0.380   1.542  0.00  0.00    -0.042 C 
ATOM     12  C   UNL     1       2.309   1.907   1.609  0.00  0.00    -0.013 C 
ATOM     13  C   UNL     1       1.552   2.500   0.419  0.00  0.00    -0.001 C 
ATOM     14  C   UNL     1       0.092   2.044   0.464  0.00  0.00    +0.002 C 
ATOM     15  C   UNL     1       0.032   0.517   0.397  0.00  0.00    +0.030 C 
ATOM     16  C   UNL     1       0.789  -0.076   1.588  0.00  0.00    +0.101 C 
BRANCH  16  17
ATOM     17  O   UNL     1       0.188   0.371   2.805  0.00  0.00    -0.393 OA
ATOM     18  H   UNL     1      -0.740   0.118   2.901  0.00  0.00    +0.210 HD
ENDBRANCH  16  17
ENDBRANCH   8  11
ENDBRANCH   3   8
BRANCH   6  19
ATOM     19  C   UNL     1       8.337  -1.987   2.515  0.00  0.00    -0.045 C 
BRANCH  19  20
ATOM     20  C   UNL     1       8.877  -1.104   1.389  0.00  0.00    +0.118 C 
BRANCH  20  21
ATOM     21  O   UNL     1       8.817   0.267   1.788  0.00  0.00    -0.392 OA
ATOM     22  H   UNL     1       9.333   0.469   2.581  0.00  0.00    +0.210 HD
ENDBRANCH  20  21
BRANCH  20  23
ATOM     23  C   UNL     1      10.329  -1.486   1.093  0.00  0.00    +0.151 C 
BRANCH  23  32
ATOM     24  C   UNL     1      12.451   3.032  -0.545  0.00  0.00    +0.001 A 
ATOM     25  C   UNL     1      12.122   2.676   0.756  0.00  0.00    +0.002 A 
ATOM     26  C   UNL     1      11.567   1.445   1.028  0.00  0.00    +0.026 A 
ATOM     27  C   UNL     1      11.329   0.550  -0.010  0.00  0.00    +0.049 A 
ATOM     28  C   UNL     1      11.670   0.913  -1.326  0.00  0.00    -0.000 A 
ATOM     29  C   UNL     1      12.231   2.167  -1.579  0.00  0.00    +0.010 A 
ATOM     30  C   UNL     1      11.307  -0.229  -2.168  0.00  0.00    +0.027 A 
ATOM     31  C   UNL     1      10.800  -1.170  -1.357  0.00  0.00    +0.087 A 
ATOM     32  N   UNL     1      10.808  -0.724  -0.063  0.00  0.00    -0.344 N 
ENDBRANCH  23  32
ENDBRANCH  20  23
ENDBRANCH  19  20
ENDBRANCH   6  19
TORSDOF 8
