REMARK  Name = ZINC39853585
REMARK  9 active torsions:
REMARK  status: ('A' for Active; 'I' for Inactive)
REMARK    1  A    between atoms: C_1  and  C_2
REMARK    2  A    between atoms: N_4  and  C_5
REMARK    3  A    between atoms: C_6  and  C_14
REMARK    4  A    between atoms: C_14  and  C_16
REMARK    5  A    between atoms: C_14  and  N_24
REMARK    6  A    between atoms: C_21  and  O_22
REMARK    7  A    between atoms: O_22  and  C_23
REMARK    8  A    between atoms: C_27  and  C_30
REMARK    9  A    between atoms: C_30  and  C_31
REMARK                            x       y       z     vdW  Elec       q    Type
REMARK                         _______ _______ _______ _____ _____    ______ ____
ROOT
ATOM      1  C   UNL     1      -3.590  -2.450  -0.203  0.00  0.00    -0.001 C 
ENDROOT
BRANCH   1   3
ATOM      2  C   UNL     1      -1.955  -4.259   0.272  0.00  0.00    +0.074 A 
ATOM      3  C   UNL     1      -2.180  -2.953  -0.032  0.00  0.00    -0.025 A 
ATOM      4  C   UNL     1      -1.102  -2.080  -0.186  0.00  0.00    -0.033 A 
ATOM      5  C   UNL     1       0.139  -2.610  -0.017  0.00  0.00    -0.005 A 
ATOM      6  S   UNL     1      -0.172  -4.313   0.363  0.00  0.00    -0.078 S 
ATOM      7  C   UNL     1       1.452  -1.905  -0.126  0.00  0.00    +0.043 C 
ATOM      8  C   UNL     1       1.220  -0.555  -0.821  0.00  0.00    +0.005 C 
ATOM      9  C   UNL     1       0.021   0.136  -0.165  0.00  0.00    +0.005 C 
ATOM     10  C   UNL     1      -1.269  -0.602  -0.526  0.00  0.00    +0.036 C 
BRANCH   2  14
ATOM     11  C   UNL     1      -3.445  -7.661   0.882  0.00  0.00    +0.109 C 
ATOM     12  C   UNL     1      -2.449  -6.550   0.671  0.00  0.00    +0.214 C 
ATOM     13  O   UNL     1      -1.260  -6.791   0.683  0.00  0.00    -0.276 OA
ATOM     14  N   UNL     1      -2.879  -5.289   0.468  0.00  0.00    -0.280 N 
ATOM     15  H   UNL     1      -3.829  -5.096   0.459  0.00  0.00    +0.155 HD
ENDBRANCH   2  14
ENDBRANCH   1   3
BRANCH   1  16
ATOM     16  N   UNL     1      -3.676  -1.642  -1.427  0.00  0.00    +0.387 N 
ATOM     17  C   UNL     1      -5.075  -1.270  -1.669  0.00  0.00    -0.077 C 
ATOM     18  C   UNL     1      -5.161  -0.361  -2.897  0.00  0.00    -0.015 C 
ATOM     19  C   UNL     1      -4.612  -1.107  -4.116  0.00  0.00    -0.010 C 
ATOM     20  C   UNL     1      -3.177  -1.555  -3.825  0.00  0.00    -0.015 C 
ATOM     21  C   UNL     1      -3.165  -2.420  -2.562  0.00  0.00    -0.077 C 
ATOM     22  H   UNL     1      -3.122  -0.806  -1.317  0.00  0.00    -0.080 HD
BRANCH  19  23
ATOM     23  C   UNL     1      -4.621  -0.178  -5.332  0.00  0.00    +0.038 C 
BRANCH  23  24
ATOM     24  C   UNL     1      -4.197  -0.947  -6.556  0.00  0.00    -0.047 A 
ATOM     25  C   UNL     1      -2.860  -1.015  -6.901  0.00  0.00    +0.003 A 
ATOM     26  C   UNL     1      -2.471  -1.721  -8.024  0.00  0.00    +0.000 A 
ATOM     27  C   UNL     1      -3.418  -2.360  -8.802  0.00  0.00    +0.000 A 
ATOM     28  C   UNL     1      -4.755  -2.292  -8.456  0.00  0.00    +0.000 A 
ATOM     29  C   UNL     1      -5.144  -1.590  -7.331  0.00  0.00    +0.003 A 
ENDBRANCH  23  24
ENDBRANCH  19  23
ENDBRANCH   1  16
BRANCH   1  30
ATOM     30  C   UNL     1      -3.969  -1.603   0.985  0.00  0.00    -0.015 A 
ATOM     31  C   UNL     1      -3.986  -0.226   0.875  0.00  0.00    +0.006 A 
ATOM     32  C   UNL     1      -4.333   0.551   1.965  0.00  0.00    +0.000 A 
ATOM     33  C   UNL     1      -4.664  -0.048   3.167  0.00  0.00    +0.004 A 
ATOM     34  C   UNL     1      -4.649  -1.425   3.281  0.00  0.00    +0.046 A 
ATOM     35  C   UNL     1      -4.306  -2.207   2.187  0.00  0.00    +0.122 A 
BRANCH  35  36
ATOM     36  O   UNL     1      -4.296  -3.561   2.296  0.00  0.00    -0.495 OA
ATOM     37  C   UNL     1      -4.654  -4.113   3.564  0.00  0.00    +0.277 C 
ENDBRANCH  35  36
ENDBRANCH   1  30
TORSDOF 7
