REMARK  Name = ZINC44920981
REMARK  5 active torsions:
REMARK  status: ('A' for Active; 'I' for Inactive)
REMARK    1  A    between atoms: C_9  and  C_23
REMARK    2  A    between atoms: C_10  and  S_12
REMARK    3  A    between atoms: S_12  and  C_13
REMARK    4  A    between atoms: C_13  and  C_14
REMARK    5  A    between atoms: N_16  and  C_17
REMARK                            x       y       z     vdW  Elec       q    Type
REMARK                         _______ _______ _______ _____ _____    ______ ____
ROOT
ATOM      1  C   UNL     1      -0.018   1.462   0.010  0.00  0.00    +0.117 C 
ATOM      2  C   UNL     1       1.143   2.152   0.003  0.00  0.00    +0.180 C 
ATOM      3  C   UNL     1       2.419   1.369   0.062  0.00  0.00    +0.169 C 
ATOM      4  C   UNL     1       2.210   0.022  -0.613  0.00  0.00    +0.069 C 
ATOM      5  N   UNL     1       1.077  -0.655  -0.483  0.00  0.00    -0.179 NA
ATOM      6  C   UNL     1       0.002  -0.004   0.002  0.00  0.00    +0.264 C 
ATOM      7  O   UNL     1      -0.951  -0.632   0.433  0.00  0.00    -0.269 OA
ATOM      8  C   UNL     1       3.260  -0.287  -1.468  0.00  0.00    +0.077 C 
ATOM      9  C   UNL     1       4.126   0.731  -1.891  0.00  0.00    +0.056 C 
ATOM     10  S   UNL     1       3.732   2.106  -0.973  0.00  0.00    -0.100 S 
ATOM     11  O   UNL     1       1.153   3.500  -0.057  0.00  0.00    -0.291 OA
ENDROOT
BRANCH   8  12
ATOM     12  C   UNL     1       3.462  -1.666  -1.922  0.00  0.00    +0.245 C 
ATOM     13  O   UNL     1       4.384  -1.931  -2.671  0.00  0.00    -0.270 OA
ATOM     14  N   UNL     1       2.627  -2.640  -1.510  0.00  0.00    -0.325 N 
ATOM     15  H   UNL     1       1.892  -2.429  -0.913  0.00  0.00    +0.145 HD
ATOM     16  H   UNL     1       2.761  -3.553  -1.811  0.00  0.00    +0.145 HD
ENDBRANCH   8  12
BRANCH   9  17
ATOM     17  S   UNL     1       5.309   0.616  -3.050  0.00  0.00    -0.108 S 
BRANCH  17  18
ATOM     18  C   UNL     1       6.038   2.276  -3.099  0.00  0.00    +0.175 C 
BRANCH  18  19
ATOM     19  C   UNL     1       7.142   2.310  -4.125  0.00  0.00    +0.260 C 
ATOM     20  O   UNL     1       7.830   3.448  -4.336  0.00  0.00    -0.270 OA
ATOM     21  N   UNL     1       7.430   1.238  -4.807  0.00  0.00    -0.175 NA
BRANCH  21  22
ATOM     22  C   UNL     1       8.428   1.269  -5.735  0.00  0.00    +0.249 A 
ATOM     23  H   UNL     1       8.473  -0.668  -6.507  0.00  0.00    +0.192 HD
ATOM     24  N   UNL     1       9.177   2.312  -6.039  0.00  0.00    -0.198 NA
ATOM     25  C   UNL     1      10.049   1.978  -6.988  0.00  0.00    +0.247 A 
ATOM     26  N   UNL     1       9.876   0.723  -7.309  0.00  0.00    -0.159 NA
ATOM     27  N   UNL     1       8.833   0.232  -6.507  0.00  0.00    -0.243 N 
ENDBRANCH  21  22
ENDBRANCH  18  19
ENDBRANCH  17  18
ENDBRANCH   9  17
TORSDOF 5
