REMARK  Name = ZINC20558506
REMARK  5 active torsions:
REMARK  status: ('A' for Active; 'I' for Inactive)
REMARK    1  A    between atoms: C_5  and  C_7
REMARK    2  A    between atoms: C_7  and  N_8
REMARK    3  A    between atoms: C_20  and  C_28
REMARK    4  A    between atoms: C_22  and  C_26
REMARK    5  A    between atoms: C_23  and  N_25
REMARK                            x       y       z     vdW  Elec       q    Type
REMARK                         _______ _______ _______ _____ _____    ______ ____
ROOT
ATOM      1  N   UNL     1       0.097   1.458   0.011  0.00  0.00    -0.198 N 
ATOM      2  C   UNL     1       1.335   2.111  -0.044  0.00  0.00    +0.062 A 
ATOM      3  C   UNL     1       2.443   1.487   0.515  0.00  0.00    +0.025 A 
ATOM      4  C   UNL     1       3.676   2.108   0.485  0.00  0.00    +0.002 A 
ATOM      5  C   UNL     1       3.811   3.354  -0.102  0.00  0.00    +0.001 A 
ATOM      6  C   UNL     1       2.720   3.982  -0.662  0.00  0.00    +0.013 A 
ATOM      7  C   UNL     1       1.464   3.364  -0.644  0.00  0.00    +0.042 A 
ATOM      8  C   UNL     1       0.332   4.078  -1.283  0.00  0.00    +0.162 C 
ATOM      9  C   UNL     1      -0.932   3.748  -1.034  0.00  0.00    +0.141 C 
ATOM     10  S   UNL     1      -1.262   2.417   0.079  0.00  0.00    +0.076 S 
ATOM     11  O   UNL     1      -2.330   1.665  -0.479  0.00  0.00    -0.150 OA
ATOM     12  O   UNL     1      -1.312   2.975   1.385  0.00  0.00    -0.150 OA
ATOM     13  C   UNL     1      -2.081   4.472  -1.678  0.00  0.00    +0.118 C 
ATOM     14  C   UNL     1      -1.618   5.793  -2.229  0.00  0.00    +0.099 C 
ATOM     15  C   UNL     1      -0.296   6.025  -2.427  0.00  0.00    +0.199 C 
ATOM     16  O   UNL     1       0.625   5.091  -2.141  0.00  0.00    -0.439 OA
ENDROOT
BRANCH  13  17
ATOM     17  C   UNL     1      -2.637   3.631  -2.798  0.00  0.00    -0.033 A 
ATOM     18  C   UNL     1      -1.830   3.277  -3.863  0.00  0.00    +0.006 A 
ATOM     19  C   UNL     1      -2.338   2.501  -4.887  0.00  0.00    +0.020 A 
ATOM     20  C   UNL     1      -3.658   2.087  -4.852  0.00  0.00    +0.041 A 
ATOM     21  C   UNL     1      -4.467   2.446  -3.789  0.00  0.00    +0.020 A 
ATOM     22  C   UNL     1      -3.956   3.218  -2.762  0.00  0.00    +0.006 A 
ATOM     23 CL   UNL     1      -4.299   1.118  -6.142  0.00  0.00    -0.084 Cl
ENDBRANCH  13  17
BRANCH  15  24
ATOM     24  N   UNL     1       0.107   7.238  -2.928  0.00  0.00    -0.328 N 
ATOM     25  H   UNL     1       1.177   7.437  -3.092  0.00  0.00    +0.145 HD
ATOM     26  H   UNL     1      -0.639   8.010  -3.166  0.00  0.00    +0.145 HD
ENDBRANCH  15  24
BRANCH  14  27
ATOM     27  C   UNL     1      -2.577   6.809  -2.547  0.00  0.00    +0.101 C 
ATOM     28  N   UNL     1      -3.337   7.614  -2.800  0.00  0.00    -0.191 NA
ENDBRANCH  14  27
BRANCH   1  29
ATOM     29  C   UNL     1       0.002  -0.004   0.002  0.00  0.00    +0.169 C 
BRANCH  29  34
ATOM     30  C   UNL     1      -1.205  -1.294  -3.335  0.00  0.00    +0.000 A 
ATOM     31  C   UNL     1      -0.018  -1.407  -4.035  0.00  0.00    +0.003 A 
ATOM     32  C   UNL     1       1.177  -1.066  -3.429  0.00  0.00    +0.038 A 
ATOM     33  C   UNL     1       1.185  -0.611  -2.121  0.00  0.00    +0.128 A 
ATOM     34  C   UNL     1      -0.005  -0.499  -1.421  0.00  0.00    +0.007 A 
ATOM     35  C   UNL     1      -1.198  -0.846  -2.027  0.00  0.00    +0.008 A 
ATOM     36  F   UNL     1       2.352  -0.278  -1.528  0.00  0.00    -0.205 F 
ENDBRANCH  29  34
ENDBRANCH   1  29
TORSDOF 5
