REMARK  Name = ZINC20503915
REMARK  7 active torsions:
REMARK  status: ('A' for Active; 'I' for Inactive)
REMARK    1  A    between atoms: C_4  and  N_7
REMARK    2  A    between atoms: N_7  and  C_8
REMARK    3  A    between atoms: C_8  and  N_10
REMARK    4  A    between atoms: N_10  and  C_11
REMARK    5  A    between atoms: C_11  and  C_12
REMARK    6  A    between atoms: C_21  and  C_23
REMARK    7  A    between atoms: C_23  and  N_24
REMARK                            x       y       z     vdW  Elec       q    Type
REMARK                         _______ _______ _______ _____ _____    ______ ____
ROOT
ATOM      1  C   UNL     1      -0.689  -8.978  -0.025  0.00  0.00    -0.051 C 
ATOM      2  C   UNL     1       0.694  -9.579   0.240  0.00  0.00    -0.010 C 
ATOM      3  C   UNL     1       1.220  -9.041   1.577  0.00  0.00    -0.012 C 
ATOM      4  C   UNL     1       0.230  -9.427   2.683  0.00  0.00    -0.015 C 
ATOM      5  C   UNL     1      -1.141  -8.830   2.349  0.00  0.00    -0.078 C 
ATOM      6  N   UNL     1      -1.054  -8.087   1.085  0.00  0.00    +0.383 N 
ATOM      7  C   UNL     1      -0.109  -6.967   1.195  0.00  0.00    -0.073 C 
ATOM      8  C   UNL     1       1.291  -7.511   1.495  0.00  0.00    -0.011 C 
ATOM      9  H   UNL     1      -2.048  -7.668   0.870  0.00  0.00    -0.081 HD
ENDROOT
BRANCH   1  10
ATOM     10  C   UNL     1      -0.658  -8.181  -1.331  0.00  0.00    +0.088 C 
BRANCH  10  11
ATOM     11  N   UNL     1      -1.944  -7.506  -1.522  0.00  0.00    -0.328 N 
ATOM     12  H   UNL     1      -2.744  -7.624  -0.775  0.00  0.00    +0.148 HD
BRANCH  11  13
ATOM     13  C   UNL     1      -2.149  -6.741  -2.612  0.00  0.00    +0.134 C 
ATOM     14  S   UNL     1      -0.905  -6.557  -3.774  0.00  0.00    -0.019 S 
BRANCH  13  15
ATOM     15  N   UNL     1      -3.332  -6.120  -2.788  0.00  0.00    -0.297 N 
ATOM     16  H   UNL     1      -4.098  -6.162  -1.999  0.00  0.00    +0.154 HD
BRANCH  15  20
ATOM     17  C   UNL     1      -4.092  -4.043  -6.318  0.00  0.00    +0.000 A 
ATOM     18  C   UNL     1      -3.437  -5.260  -6.361  0.00  0.00    +0.002 A 
ATOM     19  C   UNL     1      -3.183  -5.951  -5.192  0.00  0.00    +0.023 A 
ATOM     20  C   UNL     1      -3.587  -5.423  -3.973  0.00  0.00    +0.033 A 
ATOM     21  C   UNL     1      -4.250  -4.203  -3.934  0.00  0.00    +0.023 A 
ATOM     22  C   UNL     1      -4.495  -3.514  -5.106  0.00  0.00    +0.002 A 
ENDBRANCH  15  20
ENDBRANCH  13  15
ENDBRANCH  11  13
ENDBRANCH  10  11
ENDBRANCH   1  10
BRANCH   8  23
ATOM     23  C   UNL     1       2.251  -7.101   0.377  0.00  0.00    +0.086 C 
BRANCH  23  24
ATOM     24  N   UNL     1       3.606  -7.568   0.699  0.00  0.00    -0.299 NA
ATOM     25  C   UNL     1       4.572  -7.122  -0.315  0.00  0.00    +0.103 C 
ATOM     26  C   UNL     1       5.953  -7.694   0.013  0.00  0.00    +0.122 C 
ATOM     27  N   UNL     1       6.358  -7.249   1.354  0.00  0.00    -0.314 N 
ATOM     28  C   UNL     1       5.393  -7.695   2.368  0.00  0.00    +0.122 C 
ATOM     29  C   UNL     1       4.011  -7.123   2.040  0.00  0.00    +0.103 C 
ATOM     30  C   UNL     1       7.640  -7.691   1.659  0.00  0.00    +0.099 A 
ATOM     31  C   UNL     1       8.206  -7.371   2.889  0.00  0.00    +0.042 A 
ATOM     32  C   UNL     1       9.482  -7.817   3.179  0.00  0.00    +0.005 A 
ATOM     33  C   UNL     1      10.154  -8.571   2.226  0.00  0.00    +0.018 A 
ATOM     34  C   UNL     1       9.532  -8.851   1.026  0.00  0.00    +0.084 A 
ATOM     35  N   UNL     1       8.313  -8.413   0.776  0.00  0.00    -0.350 N 
ATOM     36  H   UNL     1       7.857  -8.660  -0.194  0.00  0.00    +0.166 HD
ENDBRANCH  23  24
ENDBRANCH   8  23
TORSDOF 7
