REMARK  Name = ZINC03222475
REMARK  9 active torsions:
REMARK  status: ('A' for Active; 'I' for Inactive)
REMARK    1  A    between atoms: C_1  and  C_2
REMARK    2  A    between atoms: C_7  and  N_8
REMARK    3  A    between atoms: C_9  and  C_31
REMARK    4  A    between atoms: C_12  and  S_13
REMARK    5  A    between atoms: S_13  and  C_14
REMARK    6  A    between atoms: C_14  and  C_15
REMARK    7  A    between atoms: N_17  and  N_18
REMARK    8  A    between atoms: N_18  and  C_19
REMARK    9  A    between atoms: N_18  and  C_25
REMARK                            x       y       z     vdW  Elec       q    Type
REMARK                         _______ _______ _______ _____ _____    ______ ____
ROOT
ATOM      1  S   UNL     1       2.783  -5.597  -0.246  0.00  0.00    -0.076 S 
ENDROOT
BRANCH   1   6
ATOM      2  N   UNL     1       2.070  -2.933  -0.724  0.00  0.00    -0.270 N 
ATOM      3  C   UNL     1       0.937  -2.269  -1.141  0.00  0.00    +0.171 A 
ATOM      4  N   UNL     1       0.014  -3.178  -1.353  0.00  0.00    -0.128 NA
ATOM      5  N   UNL     1       0.482  -4.348  -1.097  0.00  0.00    -0.122 NA
ATOM      6  C   UNL     1       1.733  -4.258  -0.705  0.00  0.00    +0.197 A 
BRANCH   2  13
ATOM      7  C   UNL     1       4.010  -2.621  -2.783  0.00  0.00    +0.046 C 
ATOM      8  C   UNL     1       4.282  -2.198  -1.362  0.00  0.00    -0.026 A 
ATOM      9  C   UNL     1       5.499  -1.636  -1.029  0.00  0.00    +0.005 A 
ATOM     10  C   UNL     1       5.752  -1.253   0.276  0.00  0.00    +0.000 A 
ATOM     11  C   UNL     1       4.785  -1.426   1.249  0.00  0.00    +0.002 A 
ATOM     12  C   UNL     1       3.564  -1.982   0.921  0.00  0.00    +0.026 A 
ATOM     13  C   UNL     1       3.308  -2.368  -0.388  0.00  0.00    +0.053 A 
ENDBRANCH   2  13
BRANCH   3  14
ATOM     14  C   UNL     1       0.789  -0.809  -1.320  0.00  0.00    +0.038 A 
ATOM     15  C   UNL     1      -0.480  -0.232  -1.449  0.00  0.00    +0.014 A 
ATOM     16  C   UNL     1      -0.563   1.139  -1.616  0.00  0.00    +0.020 A 
ATOM     17  C   UNL     1       0.599   1.889  -1.650  0.00  0.00    +0.111 A 
ATOM     18  N   UNL     1       1.782   1.318  -1.526  0.00  0.00    -0.263 NA
ATOM     19  C   UNL     1       1.913   0.017  -1.365  0.00  0.00    +0.122 A 
ENDBRANCH   3  14
ENDBRANCH   1   6
BRANCH   1  20
ATOM     20  C   UNL     1       1.645  -6.985  -0.484  0.00  0.00    +0.174 C 
BRANCH  20  21
ATOM     21  C   UNL     1       2.346  -8.274  -0.142  0.00  0.00    +0.240 C 
ATOM     22  O   UNL     1       3.501  -8.257   0.227  0.00  0.00    -0.273 OA
ATOM     23  N   UNL     1       1.689  -9.446  -0.245  0.00  0.00    -0.229 N 
ATOM     24  H   UNL     1       0.765  -9.460  -0.540  0.00  0.00    +0.173 HD
BRANCH  23  25
ATOM     25  N   UNL     1       2.341 -10.645   0.073  0.00  0.00    -0.220 N 
BRANCH  25  26
ATOM     26  C   UNL     1       2.051 -11.301   1.272  0.00  0.00    +0.053 A 
ATOM     27  C   UNL     1       0.731 -11.558   1.623  0.00  0.00    +0.025 A 
ATOM     28  C   UNL     1       0.448 -12.211   2.806  0.00  0.00    +0.002 A 
ATOM     29  C   UNL     1       1.475 -12.600   3.647  0.00  0.00    +0.000 A 
ATOM     30  C   UNL     1       2.790 -12.341   3.302  0.00  0.00    +0.002 A 
ATOM     31  C   UNL     1       3.080 -11.693   2.118  0.00  0.00    +0.025 A 
ENDBRANCH  25  26
BRANCH  25  32
ATOM     32  C   UNL     1       3.281 -11.184  -0.808  0.00  0.00    +0.053 A 
ATOM     33  C   UNL     1       3.815 -12.445  -0.572  0.00  0.00    +0.025 A 
ATOM     34  C   UNL     1       4.740 -12.977  -1.448  0.00  0.00    +0.002 A 
ATOM     35  C   UNL     1       5.145 -12.251  -2.554  0.00  0.00    +0.000 A 
ATOM     36  C   UNL     1       4.620 -10.994  -2.789  0.00  0.00    +0.002 A 
ATOM     37  C   UNL     1       3.689 -10.458  -1.920  0.00  0.00    +0.025 A 
ENDBRANCH  25  32
ENDBRANCH  23  25
ENDBRANCH  20  21
ENDBRANCH   1  20
TORSDOF 8
