REMARK  Name = ZINC22472529
REMARK  9 active torsions:
REMARK  status: ('A' for Active; 'I' for Inactive)
REMARK    1  A    between atoms: C_1  and  C_2
REMARK    2  A    between atoms: C_5  and  O_9
REMARK    3  A    between atoms: C_7  and  C_8
REMARK    4  A    between atoms: O_9  and  C_10
REMARK    5  A    between atoms: C_10  and  C_11
REMARK    6  A    between atoms: N_16  and  C_19
REMARK    7  A    between atoms: C_19  and  C_20
REMARK    8  A    between atoms: C_20  and  N_21
REMARK    9  A    between atoms: C_24  and  O_25
REMARK                            x       y       z     vdW  Elec       q    Type
REMARK                         _______ _______ _______ _____ _____    ______ ____
ROOT
ATOM      1  C   UNL     1      -4.816   3.913   0.068  0.00  0.00    +0.253 C 
ATOM      2  O   UNL     1      -4.672   5.117   0.072  0.00  0.00    -0.272 OA
ATOM      3  N   UNL     1      -6.056   3.382   0.077  0.00  0.00    -0.296 N 
ATOM      4  C   UNL     1      -6.253   1.925   0.066  0.00  0.00    +0.123 C 
ATOM      5  C   UNL     1      -7.210   1.560   1.212  0.00  0.00    +0.103 C 
ATOM      6  N   UNL     1      -8.440   2.353   1.088  0.00  0.00    -0.298 NA
ATOM      7  C   UNL     1      -8.164   3.789   1.232  0.00  0.00    +0.103 C 
ATOM      8  C   UNL     1      -7.246   4.246   0.093  0.00  0.00    +0.123 C 
ENDROOT
BRANCH   1   9
ATOM      9  C   UNL     1      -3.610   3.009   0.052  0.00  0.00    +0.324 C 
BRANCH   9  10
ATOM     10  O   UNL     1      -2.421   3.802   0.045  0.00  0.00    -0.483 OA
BRANCH  10  15
ATOM     11  C   UNL     1       2.490   1.045  -0.016  0.00  0.00    +0.044 C 
ATOM     12  C   UNL     1       1.176   1.783   0.000  0.00  0.00    -0.047 A 
ATOM     13  C   UNL     1      -0.013   1.076   0.008  0.00  0.00    +0.007 A 
ATOM     14  C   UNL     1      -1.218   1.750   0.017  0.00  0.00    +0.046 A 
ATOM     15  C   UNL     1      -1.236   3.137   0.030  0.00  0.00    +0.121 A 
ATOM     16  C   UNL     1      -0.043   3.844   0.022  0.00  0.00    +0.049 A 
ATOM     17  C   UNL     1       1.161   3.165   0.007  0.00  0.00    -0.044 A 
ATOM     18  C   UNL     1       2.457   3.933  -0.002  0.00  0.00    +0.044 C 
ENDBRANCH  10  15
ENDBRANCH   9  10
ENDBRANCH   1   9
BRANCH   6  19
ATOM     19  C   UNL     1      -9.451   1.912   2.058  0.00  0.00    +0.105 C 
BRANCH  19  20
ATOM     20  C   UNL     1      -9.532   0.384   2.051  0.00  0.00    +0.128 C 
BRANCH  20  21
ATOM     21  N   UNL     1     -10.540  -0.056   3.018  0.00  0.00    -0.382 N 
ATOM     22  C   UNL     1     -10.791  -1.399   3.189  0.00  0.00    +0.053 A 
ATOM     23  C   UNL     1     -10.108  -2.343   2.465  0.00  0.00    +0.113 A 
ATOM     24  C   UNL     1     -10.385  -3.702   2.661  0.00  0.00    +0.286 A 
ATOM     25  O   UNL     1     -11.307  -4.118   3.544  0.00  0.00    -0.425 OA
ATOM     26  C   UNL     1     -12.019  -3.247   4.292  0.00  0.00    +0.141 A 
ATOM     27  C   UNL     1     -11.795  -1.867   4.159  0.00  0.00    +0.041 A 
ATOM     28  C   UNL     1     -12.523  -0.963   4.934  0.00  0.00    +0.013 A 
ATOM     29  C   UNL     1     -13.456  -1.434   5.833  0.00  0.00    +0.001 A 
ATOM     30  C   UNL     1     -13.671  -2.797   5.968  0.00  0.00    +0.004 A 
ATOM     31  C   UNL     1     -12.967  -3.700   5.199  0.00  0.00    +0.047 A 
ATOM     32  H   UNL     1     -11.098   0.687   3.608  0.00  0.00    +0.160 HD
BRANCH  24  33
ATOM     33  O   UNL     1      -9.771  -4.531   2.011  0.00  0.00    -0.480 OA
ATOM     34  H   UNL     1      -9.976  -5.602   2.153  0.00  0.00    +0.295 HD
ENDBRANCH  24  33
ENDBRANCH  20  21
ENDBRANCH  19  20
ENDBRANCH   6  19
TORSDOF 7
