REMARK  Name = ZINC08855062
REMARK  9 active torsions:
REMARK  status: ('A' for Active; 'I' for Inactive)
REMARK    1  A    between atoms: C_1  and  C_2
REMARK    2  A    between atoms: C_2  and  O_3
REMARK    3  A    between atoms: O_3  and  C_4
REMARK    4  A    between atoms: C_4  and  C_6
REMARK    5  A    between atoms: C_7  and  C_29
REMARK    6  A    between atoms: N_8  and  C_23
REMARK    7  A    between atoms: C_11  and  C_17
REMARK    8  A    between atoms: C_12  and  O_16
REMARK    9  A    between atoms: C_17  and  N_57
REMARK                            x       y       z     vdW  Elec       q    Type
REMARK                         _______ _______ _______ _____ _____    ______ ____
ROOT
ATOM      1  C   UNL     1       0.884  -4.217  -0.922  0.00  0.00    +0.088 A 
ATOM      2  C   UNL     1       0.468  -2.942  -1.177  0.00  0.00    +0.036 A 
ATOM      3  N   UNL     1       0.937  -2.106  -0.218  0.00  0.00    -0.312 N 
ATOM      4  C   UNL     1       1.689  -2.808   0.707  0.00  0.00    +0.056 A 
ATOM      5  C   UNL     1       1.686  -4.156   0.315  0.00  0.00    +0.019 A 
ATOM      6  C   UNL     1       2.369  -5.106   1.070  0.00  0.00    -0.011 A 
ATOM      7  C   UNL     1       3.055  -4.712   2.204  0.00  0.00    +0.133 A 
ATOM      8  C   UNL     1       3.055  -3.376   2.594  0.00  0.00    +0.061 A 
ATOM      9  C   UNL     1       2.378  -2.430   1.853  0.00  0.00    +0.045 A 
ATOM     10 BR   UNL     1       3.990  -2.854   4.152  0.00  0.00    -0.046 Br
ATOM     11  C   UNL     1      -0.384  -2.526  -2.349  0.00  0.00    +0.065 C 
ENDROOT
BRANCH   3  12
ATOM     12  C   UNL     1       0.698  -0.727  -0.173  0.00  0.00    +0.047 A 
ATOM     13  C   UNL     1      -0.592  -0.249   0.014  0.00  0.00    +0.026 A 
ATOM     14  C   UNL     1      -0.824   1.111   0.058  0.00  0.00    +0.002 A 
ATOM     15  C   UNL     1       0.227   1.998  -0.084  0.00  0.00    +0.000 A 
ATOM     16  C   UNL     1       1.514   1.526  -0.271  0.00  0.00    +0.002 A 
ATOM     17  C   UNL     1       1.752   0.166  -0.316  0.00  0.00    +0.026 A 
ENDBRANCH   3  12
BRANCH   1  18
ATOM     18  C   UNL     1       0.590  -5.412  -1.720  0.00  0.00    +0.342 C 
ATOM     19  O   UNL     1       1.391  -5.803  -2.547  0.00  0.00    -0.245 OA
BRANCH  18  20
ATOM     20  O   UNL     1      -0.568  -6.078  -1.536  0.00  0.00    -0.461 OA
BRANCH  20  22
ATOM     21  C   UNL     1      -2.147  -7.869  -2.012  0.00  0.00    +0.048 C 
ATOM     22  C   UNL     1      -0.791  -7.252  -2.361  0.00  0.00    +0.229 C 
ENDBRANCH  20  22
ENDBRANCH  18  20
ENDBRANCH   1  18
BRANCH   7  23
ATOM     23  O   UNL     1       3.727  -5.634   2.943  0.00  0.00    -0.505 OA
ATOM     24  H   UNL     1       3.196  -6.043   3.640  0.00  0.00    +0.292 HD
ENDBRANCH   7  23
BRANCH   6  25
ATOM     25  C   UNL     1       2.372  -6.552   0.646  0.00  0.00    -0.039 C 
BRANCH  25  31
ATOM     26  C   UNL     1       1.136  -7.249   2.608  0.00  0.00    -0.078 C 
ATOM     27  C   UNL     1      -0.206  -7.806   3.088  0.00  0.00    -0.019 C 
ATOM     28  C   UNL     1      -0.403  -9.213   2.517  0.00  0.00    -0.004 C 
ATOM     29  C   UNL     1      -0.332  -9.151   0.989  0.00  0.00    -0.019 C 
ATOM     30  C   UNL     1       1.014  -8.555   0.570  0.00  0.00    -0.078 C 
ATOM     31  N   UNL     1       1.131  -7.192   1.130  0.00  0.00    +0.382 N 
ATOM     32  H   UNL     1       0.326  -6.635   0.822  0.00  0.00    -0.081 HD
ENDBRANCH  25  31
ENDBRANCH   6  25
TORSDOF 7
