REMARK  Name = ZINC11709216
REMARK  8 active torsions:
REMARK  status: ('A' for Active; 'I' for Inactive)
REMARK    1  A    between atoms: C_4  and  C_7
REMARK    2  A    between atoms: C_8  and  C_9
REMARK    3  A    between atoms: C_9  and  N_59
REMARK    4  A    between atoms: C_15  and  C_17
REMARK    5  A    between atoms: C_17  and  C_18
REMARK    6  A    between atoms: N_20  and  C_21
REMARK    7  A    between atoms: C_21  and  C_22
REMARK    8  A    between atoms: C_22  and  C_23
REMARK                            x       y       z     vdW  Elec       q    Type
REMARK                         _______ _______ _______ _____ _____    ______ ____
ROOT
ATOM      1  C   UNL     1       0.939   3.117  -0.483  0.00  0.00    -0.058 C 
ATOM      2  C   UNL     1       1.242   1.722   0.064  0.00  0.00    +0.085 C 
ATOM      3  N   UNL     1       0.005   0.958   0.201  0.00  0.00    -0.318 N 
ATOM      4  C   UNL     1      -1.203   1.530   0.221  0.00  0.00    +0.200 C 
ATOM      5  O   UNL     1      -2.178   0.823   0.364  0.00  0.00    -0.278 OA
ATOM      6  C   UNL     1      -1.404   3.012   0.078  0.00  0.00    +0.028 C 
ATOM      7  H   UNL     1       0.063  -0.007   0.277  0.00  0.00    +0.149 HD
ATOM      8  N   UNL     1      -0.132   3.710   0.343  0.00  0.00    +0.391 N 
ATOM      9  H   UNL     1       0.110   3.601   1.334  0.00  0.00    -0.080 HD
ENDROOT
BRANCH   8  10
ATOM     10  C   UNL     1      -0.272   5.152   0.036  0.00  0.00    -0.050 C 
BRANCH  10  12
ATOM     11  C   UNL     1       1.645   6.679  -0.100  0.00  0.00    +0.002 C 
ATOM     12  C   UNL     1       0.884   5.896   0.652  0.00  0.00    -0.045 C 
BRANCH  11  16
ATOM     13  C   UNL     1       4.903   8.777   1.638  0.00  0.00    +0.000 A 
ATOM     14  C   UNL     1       4.638   8.913   0.287  0.00  0.00    +0.001 A 
ATOM     15  C   UNL     1       3.581   8.235  -0.283  0.00  0.00    +0.008 A 
ATOM     16  C   UNL     1       2.779   7.409   0.505  0.00  0.00    -0.025 A 
ATOM     17  C   UNL     1       3.048   7.281   1.868  0.00  0.00    +0.008 A 
ATOM     18  C   UNL     1       4.112   7.960   2.426  0.00  0.00    +0.001 A 
ENDBRANCH  11  16
ENDBRANCH  10  12
ENDBRANCH   8  10
BRANCH   6  19
ATOM     19  C   UNL     1      -2.451   3.485   1.087  0.00  0.00    +0.089 C 
BRANCH  19  20
ATOM     20  C   UNL     1      -1.949   3.236   2.486  0.00  0.00    +0.212 C 
ATOM     21  O   UNL     1      -0.820   2.831   2.662  0.00  0.00    -0.276 OA
ATOM     22  N   UNL     1      -2.755   3.464   3.542  0.00  0.00    -0.315 N 
ATOM     23  H   UNL     1      -3.658   3.788   3.402  0.00  0.00    +0.149 HD
BRANCH  22  24
ATOM     24  C   UNL     1      -2.267   3.222   4.902  0.00  0.00    +0.109 C 
BRANCH  24  25
ATOM     25  C   UNL     1      -3.370   3.557   5.907  0.00  0.00    +0.056 C 
BRANCH  25  26
ATOM     26  C   UNL     1      -2.868   3.308   7.306  0.00  0.00    -0.021 A 
ATOM     27  C   UNL     1      -3.046   2.192   8.031  0.00  0.00    +0.087 A 
ATOM     28  N   UNL     1      -2.445   2.329   9.253  0.00  0.00    -0.360 N 
ATOM     29  H   UNL     1      -2.436   1.654   9.949  0.00  0.00    +0.165 HD
ATOM     30  C   UNL     1      -1.860   3.572   9.350  0.00  0.00    +0.047 A 
ATOM     31  C   UNL     1      -2.099   4.239   8.135  0.00  0.00    +0.003 A 
ATOM     32  C   UNL     1      -1.617   5.535   7.945  0.00  0.00    +0.010 A 
ATOM     33  C   UNL     1      -0.913   6.150   8.942  0.00  0.00    +0.001 A 
ATOM     34  C   UNL     1      -0.674   5.496  10.143  0.00  0.00    +0.002 A 
ATOM     35  C   UNL     1      -1.141   4.217  10.351  0.00  0.00    +0.026 A 
ENDBRANCH  25  26
ENDBRANCH  24  25
ENDBRANCH  22  24
ENDBRANCH  19  20
ENDBRANCH   6  19
TORSDOF 8
