REMARK  Name = ZINC23535944
REMARK  7 active torsions:
REMARK  status: ('A' for Active; 'I' for Inactive)
REMARK    1  A    between atoms: C_1  and  C_2
REMARK    2  A    between atoms: C_2  and  C_3
REMARK    3  A    between atoms: C_2  and  C_4
REMARK    4  A    between atoms: C_4  and  C_6
REMARK    5  A    between atoms: C_4  and  N_22
REMARK    6  A    between atoms: C_14  and  C_16
REMARK    7  A    between atoms: C_23  and  C_25
REMARK                            x       y       z     vdW  Elec       q    Type
REMARK                         _______ _______ _______ _____ _____    ______ ____
ROOT
ATOM      1  C   UNL     1      -2.796   8.505  -0.950  0.00  0.00    +0.162 C 
ENDROOT
BRANCH   1   2
ATOM      2  C   UNL     1      -3.062   8.845  -2.394  0.00  0.00    +0.236 C 
ATOM      3  O   UNL     1      -4.106   8.509  -2.913  0.00  0.00    -0.274 OA
ATOM      4  N   UNL     1      -2.142   9.523  -3.108  0.00  0.00    -0.297 N 
ATOM      5  C   UNL     1      -0.838   9.859  -2.519  0.00  0.00    +0.127 C 
ATOM      6  C   UNL     1       0.266   9.307  -3.438  0.00  0.00    +0.127 C 
ATOM      7  N   UNL     1      -0.018   9.728  -4.817  0.00  0.00    -0.295 N 
ATOM      8  C   UNL     1      -1.324   9.397  -5.403  0.00  0.00    +0.127 C 
ATOM      9  C   UNL     1      -2.426   9.944  -4.487  0.00  0.00    +0.127 C 
ATOM     10  C   UNL     1       0.902  10.406  -5.530  0.00  0.00    +0.247 C 
ATOM     11  O   UNL     1       0.701  10.654  -6.703  0.00  0.00    -0.270 OA
BRANCH  10  12
ATOM     12  C   UNL     1       2.158  10.849  -4.887  0.00  0.00    +0.037 A 
ATOM     13  C   UNL     1       2.601  12.163  -5.045  0.00  0.00    +0.013 A 
ATOM     14  C   UNL     1       3.770  12.571  -4.437  0.00  0.00    +0.001 A 
ATOM     15  C   UNL     1       4.509  11.678  -3.682  0.00  0.00    +0.000 A 
ATOM     16  C   UNL     1       4.079  10.372  -3.526  0.00  0.00    +0.001 A 
ATOM     17  C   UNL     1       2.908   9.953  -4.123  0.00  0.00    +0.013 A 
ENDBRANCH  10  12
ENDBRANCH   1   2
BRANCH   1  18
ATOM     18  N   UNL     1      -3.487   7.260  -0.606  0.00  0.00    -0.303 N 
ATOM     19  C   UNL     1      -3.032   6.494   0.405  0.00  0.00    +0.220 C 
ATOM     20  O   UNL     1      -2.050   6.835   1.030  0.00  0.00    -0.275 OA
ATOM     21  H   UNL     1      -4.377   6.951  -1.173  0.00  0.00    +0.149 HD
BRANCH  19  22
ATOM     22  C   UNL     1      -3.743   5.213   0.759  0.00  0.00    +0.048 C 
ATOM     23  C   UNL     1      -3.735   4.275  -0.449  0.00  0.00    +0.019 C 
ATOM     24  C   UNL     1      -4.457   2.974  -0.089  0.00  0.00    -0.009 C 
ATOM     25  C   UNL     1      -3.741   2.302   1.084  0.00  0.00    +0.007 C 
ATOM     26  C   UNL     1      -3.750   3.241   2.292  0.00  0.00    -0.009 C 
ATOM     27  C   UNL     1      -3.028   4.541   1.933  0.00  0.00    +0.019 C 
ATOM     28  C   UNL     1      -5.195   3.552   2.686  0.00  0.00    +0.007 C 
ATOM     29  C   UNL     1      -5.910   4.225   1.513  0.00  0.00    -0.009 C 
ATOM     30  C   UNL     1      -5.902   3.286   0.305  0.00  0.00    +0.007 C 
ATOM     31  C   UNL     1      -5.188   5.525   1.153  0.00  0.00    +0.019 C 
ENDBRANCH  19  22
ENDBRANCH   1  18
BRANCH   1  33
ATOM     32  C   UNL     1      -3.040   9.290   1.409  0.00  0.00    +0.009 C 
ATOM     33  C   UNL     1      -3.308   9.637  -0.057  0.00  0.00    +0.012 C 
ATOM     34  C   UNL     1      -2.583  10.936  -0.414  0.00  0.00    +0.009 C 
ENDBRANCH   1  33
TORSDOF 5
