REMARK  Name = ZINC38966564
REMARK  6 active torsions:
REMARK  status: ('A' for Active; 'I' for Inactive)
REMARK    1  A    between atoms: C_1  and  O_2
REMARK    2  A    between atoms: O_2  and  C_3
REMARK    3  A    between atoms: C_6  and  S_9
REMARK    4  A    between atoms: S_9  and  N_12
REMARK    5  A    between atoms: C_14  and  N_24
REMARK    6  A    between atoms: N_24  and  C_25
REMARK                            x       y       z     vdW  Elec       q    Type
REMARK                         _______ _______ _______ _____ _____    ______ ____
ROOT
ATOM      1  N   UNL     1       4.011  -3.006  -3.765  0.00  0.00    -0.110 NA
ATOM      2  C   UNL     1       4.795  -3.356  -4.742  0.00  0.00    +0.192 C 
ATOM      3  C   UNL     1       6.290  -3.444  -4.532  0.00  0.00    +0.237 C 
ATOM      4  N   UNL     1       7.122  -3.846  -5.678  0.00  0.00    -0.359 N 
ATOM      5  C   UNL     1       6.534  -4.106  -6.812  0.00  0.00    +0.063 A 
ATOM      6  C   UNL     1       7.320  -4.512  -7.987  0.00  0.00    +0.027 A 
ATOM      7  C   UNL     1       6.676  -4.774  -9.145  0.00  0.00    +0.002 A 
ATOM      8  C   UNL     1       5.279  -4.668  -9.254  0.00  0.00    +0.002 A 
ATOM      9  C   UNL     1       4.492  -4.301  -8.220  0.00  0.00    +0.030 A 
ATOM     10  C   UNL     1       5.061  -4.002  -6.956  0.00  0.00    +0.089 A 
ATOM     11  N   UNL     1       4.288  -3.650  -5.950  0.00  0.00    -0.226 NA
ATOM     12  H   UNL     1       8.085  -3.916  -5.591  0.00  0.00    +0.162 HD
ENDROOT
BRANCH   1  13
ATOM     13  S   UNL     1       2.375  -2.920  -4.006  0.00  0.00    +0.100 S 
ATOM     14  O   UNL     1       1.931  -4.247  -4.252  0.00  0.00    -0.146 OA
ATOM     15  O   UNL     1       2.155  -1.860  -4.927  0.00  0.00    -0.146 OA
BRANCH  13  19
ATOM     16  C   UNL     1       0.509  -1.636  -0.085  0.00  0.00    +0.120 A 
ATOM     17  C   UNL     1       0.904  -0.682  -1.012  0.00  0.00    +0.047 A 
ATOM     18  C   UNL     1       1.473  -1.076  -2.207  0.00  0.00    +0.032 A 
ATOM     19  C   UNL     1       1.649  -2.420  -2.480  0.00  0.00    +0.113 A 
ATOM     20  C   UNL     1       1.257  -3.373  -1.558  0.00  0.00    +0.032 A 
ATOM     21  C   UNL     1       0.693  -2.983  -0.359  0.00  0.00    +0.047 A 
BRANCH  16  23
ATOM     22  C   UNL     1      -0.208   0.154   1.306  0.00  0.00    +0.277 C 
ATOM     23  O   UNL     1      -0.050  -1.250   1.092  0.00  0.00    -0.495 OA
ENDBRANCH  16  23
ENDBRANCH  13  19
ENDBRANCH   1  13
BRANCH   3  24
ATOM     24  N   UNL     1       6.534  -4.397  -3.447  0.00  0.00    -0.318 N 
ATOM     25  H   UNL     1       6.045  -5.234  -3.418  0.00  0.00    +0.148 HD
BRANCH  24  26
ATOM     26  C   UNL     1       7.470  -4.100  -2.454  0.00  0.00    +0.032 A 
ATOM     27  C   UNL     1       8.278  -2.976  -2.573  0.00  0.00    +0.043 A 
ATOM     28  C   UNL     1       9.203  -2.684  -1.589  0.00  0.00    +0.044 A 
ATOM     29  C   UNL     1       9.326  -3.511  -0.486  0.00  0.00    +0.040 A 
ATOM     30  C   UNL     1       8.524  -4.632  -0.365  0.00  0.00    +0.044 A 
ATOM     31  C   UNL     1       7.593  -4.925  -1.344  0.00  0.00    +0.043 A 
ATOM     32 CL   UNL     1       8.682  -5.667   1.019  0.00  0.00    -0.083 Cl
ATOM     33 CL   UNL     1      10.213  -1.280  -1.737  0.00  0.00    -0.083 Cl
ENDBRANCH  24  26
ENDBRANCH   3  24
TORSDOF 5
