REMARK  Name = ZINC21246876
REMARK  8 active torsions:
REMARK  status: ('A' for Active; 'I' for Inactive)
REMARK    1  A    between atoms: C_1  and  C_2
REMARK    2  A    between atoms: C_9  and  C_16
REMARK    3  A    between atoms: C_11  and  O_12
REMARK    4  A    between atoms: C_16  and  S_17
REMARK    5  A    between atoms: S_17  and  C_18
REMARK    6  A    between atoms: C_21  and  C_30
REMARK    7  A    between atoms: N_22  and  C_23
REMARK    8  A    between atoms: C_23  and  C_24
REMARK                            x       y       z     vdW  Elec       q    Type
REMARK                         _______ _______ _______ _____ _____    ______ ____
ROOT
ATOM      1  C   UNL     1      -2.193   1.470   0.609  0.00  0.00    +0.109 C 
ATOM      2  C   UNL     1      -2.168  -0.036   0.609  0.00  0.00    +0.214 C 
ATOM      3  O   UNL     1      -3.058  -0.658   1.150  0.00  0.00    -0.276 OA
ATOM      4  N   UNL     1      -1.156  -0.694   0.009  0.00  0.00    -0.286 N 
ATOM      5  C   UNL     1      -1.081  -2.085   0.091  0.00  0.00    +0.037 A 
ATOM      6  C   UNL     1       0.164  -2.708   0.166  0.00  0.00    +0.024 A 
ATOM      7  C   UNL     1       0.253  -4.066   0.253  0.00  0.00    +0.013 A 
ATOM      8  C   UNL     1      -0.913  -4.841   0.254  0.00  0.00    +0.022 A 
ATOM      9  C   UNL     1      -0.848  -6.301   0.341  0.00  0.00    -0.020 A 
ATOM     10  C   UNL     1      -2.014  -6.998   0.339  0.00  0.00    +0.092 A 
ATOM     11  C   UNL     1      -3.242  -6.309   0.254  0.00  0.00    +0.285 A 
ATOM     12  O   UNL     1      -3.295  -4.971   0.176  0.00  0.00    -0.425 OA
ATOM     13  C   UNL     1      -2.173  -4.219   0.173  0.00  0.00    +0.141 A 
ATOM     14  C   UNL     1      -2.246  -2.837   0.092  0.00  0.00    +0.070 A 
ATOM     15  H   UNL     1      -0.388  -0.134  -0.545  0.00  0.00    +0.155 HD
ENDROOT
BRANCH  11  16
ATOM     16  O   UNL     1      -4.280  -6.946   0.253  0.00  0.00    -0.480 OA
ATOM     17  H   UNL     1      -5.246  -6.423   0.188  0.00  0.00    +0.295 HD
ENDBRANCH  11  16
BRANCH   9  18
ATOM     18  C   UNL     1       0.478  -7.013   0.429  0.00  0.00    +0.113 C 
BRANCH  18  19
ATOM     19  S   UNL     1       1.070  -7.395  -1.238  0.00  0.00    -0.081 S 
BRANCH  19  20
ATOM     20  C   UNL     1       2.589  -8.198  -0.846  0.00  0.00    +0.192 A 
ATOM     21  N   UNL     1       3.074  -8.408   0.355  0.00  0.00    -0.122 NA
ATOM     22  N   UNL     1       4.200  -9.023   0.271  0.00  0.00    -0.133 NA
ATOM     23  C   UNL     1       4.501  -9.233  -0.979  0.00  0.00    +0.137 A 
ATOM     24  N   UNL     1       3.486  -8.716  -1.736  0.00  0.00    -0.301 N 
BRANCH  23  25
ATOM     25  C   UNL     1       5.740  -9.920  -1.495  0.00  0.00    +0.057 C 
ATOM     26  C   UNL     1       6.647 -10.604  -0.471  0.00  0.00    +0.012 C 
ATOM     27  C   UNL     1       7.092  -9.300  -1.138  0.00  0.00    +0.012 C 
ENDBRANCH  23  25
BRANCH  24  28
ATOM     28  C   UNL     1       3.384  -8.716  -3.197  0.00  0.00    +0.160 C 
BRANCH  28  29
ATOM     29  C   UNL     1       4.021  -7.466  -3.746  0.00  0.00    -0.028 A 
ATOM     30  C   UNL     1       3.261  -6.326  -3.930  0.00  0.00    +0.005 A 
ATOM     31  C   UNL     1       3.846  -5.178  -4.429  0.00  0.00    +0.000 A 
ATOM     32  C   UNL     1       5.190  -5.172  -4.754  0.00  0.00    +0.000 A 
ATOM     33  C   UNL     1       5.949  -6.314  -4.576  0.00  0.00    +0.000 A 
ATOM     34  C   UNL     1       5.364  -7.461  -4.072  0.00  0.00    +0.005 A 
ENDBRANCH  28  29
ENDBRANCH  24  28
ENDBRANCH  19  20
ENDBRANCH  18  19
ENDBRANCH   9  18
TORSDOF 7
