REMARK  Name = ZINC35070278
REMARK  11 active torsions:
REMARK  status: ('A' for Active; 'I' for Inactive)
REMARK    1  A    between atoms: C_1  and  C_2
REMARK    2  A    between atoms: C_5  and  N_9
REMARK    3  A    between atoms: C_6  and  C_8
REMARK    4  A    between atoms: C_19  and  C_20
REMARK    5  A    between atoms: C_20  and  C_22
REMARK    6  A    between atoms: C_20  and  N_23
REMARK    7  A    between atoms: N_23  and  C_24
REMARK    8  A    between atoms: C_24  and  C_25
REMARK    9  A    between atoms: C_25  and  C_26
REMARK   10  A    between atoms: C_25  and  C_27
REMARK   11  A    between atoms: N_30  and  C_31
REMARK                            x       y       z     vdW  Elec       q    Type
REMARK                         _______ _______ _______ _____ _____    ______ ____
ROOT
ATOM      1  N   UNL     1       0.531  -4.894  -1.371  0.00  0.00    -0.263 N 
ATOM      2  C   UNL     1      -0.579  -5.635  -1.597  0.00  0.00    +0.266 A 
ATOM      3  O   UNL     1      -1.244  -5.485  -2.605  0.00  0.00    -0.267 OA
ATOM      4  C   UNL     1      -0.950  -6.627  -0.578  0.00  0.00    +0.065 A 
ATOM      5  C   UNL     1      -2.074  -7.439  -0.715  0.00  0.00    +0.015 A 
ATOM      6  C   UNL     1      -2.375  -8.353   0.271  0.00  0.00    +0.001 A 
ATOM      7  C   UNL     1      -1.570  -8.469   1.396  0.00  0.00    +0.002 A 
ATOM      8  C   UNL     1      -0.456  -7.676   1.551  0.00  0.00    +0.028 A 
ATOM      9  C   UNL     1      -0.128  -6.743   0.565  0.00  0.00    +0.078 A 
ATOM     10  N   UNL     1       0.961  -5.942   0.677  0.00  0.00    -0.231 NA
ATOM     11  C   UNL     1       1.268  -5.078  -0.242  0.00  0.00    +0.138 A 
ENDROOT
BRANCH   1  16
ATOM     12  C   UNL     1       2.142  -1.008  -5.179  0.00  0.00    +0.044 C 
ATOM     13  C   UNL     1       1.714  -2.040  -4.168  0.00  0.00    -0.050 A 
ATOM     14  C   UNL     1       2.249  -3.314  -4.214  0.00  0.00    +0.005 A 
ATOM     15  C   UNL     1       1.859  -4.263  -3.289  0.00  0.00    +0.027 A 
ATOM     16  C   UNL     1       0.929  -3.935  -2.311  0.00  0.00    +0.054 A 
ATOM     17  C   UNL     1       0.394  -2.654  -2.267  0.00  0.00    -0.026 A 
ATOM     18  C   UNL     1       0.792  -1.709  -3.192  0.00  0.00    +0.008 A 
ATOM     19  C   UNL     1      -0.615  -2.295  -1.207  0.00  0.00    +0.046 C 
ENDBRANCH   1  16
BRANCH  11  20
ATOM     20  C   UNL     1       2.498  -4.231  -0.045  0.00  0.00    +0.141 C 
ATOM     21  C   UNL     1       2.422  -3.527   1.312  0.00  0.00    +0.036 C 
BRANCH  20  22
ATOM     22  N   UNL     1       3.689  -5.082  -0.087  0.00  0.00    -0.275 N 
ATOM     23  C   UNL     1       4.694  -4.795  -0.938  0.00  0.00    +0.307 C 
ATOM     24  O   UNL     1       4.612  -3.828  -1.671  0.00  0.00    -0.252 OA
ATOM     25  N   UNL     1       5.790  -5.579  -0.976  0.00  0.00    -0.267 N 
ATOM     26  H   UNL     1       5.831  -6.381  -0.434  0.00  0.00    +0.156 HD
BRANCH  25  27
ATOM     27  C   UNL     1       6.870  -5.233  -1.801  0.00  0.00    +0.070 A 
ATOM     28  C   UNL     1       6.660  -4.459  -2.933  0.00  0.00    +0.029 A 
ATOM     29  C   UNL     1       7.726  -4.119  -3.744  0.00  0.00    +0.040 A 
ATOM     30  C   UNL     1       9.003  -4.551  -3.429  0.00  0.00    +0.126 A 
ATOM     31  C   UNL     1       9.216  -5.324  -2.301  0.00  0.00    +0.078 A 
ATOM     32  C   UNL     1       8.154  -5.661  -1.482  0.00  0.00    +0.147 A 
ATOM     33  F   UNL     1       8.362  -6.410  -0.378  0.00  0.00    -0.203 F 
ATOM     34  F   UNL     1      10.043  -4.217  -4.224  0.00  0.00    -0.205 F 
ENDBRANCH  25  27
BRANCH  22  35
ATOM     35  C   UNL     1       3.789  -6.247   0.796  0.00  0.00    +0.113 C 
BRANCH  35  36
ATOM     36  C   UNL     1       3.244  -7.482   0.075  0.00  0.00    +0.000 C 
ATOM     37  C   UNL     1       4.143  -7.814  -1.117  0.00  0.00    +0.009 C 
ATOM     38  C   UNL     1       3.219  -8.667   1.042  0.00  0.00    +0.009 C 
ENDBRANCH  35  36
ENDBRANCH  22  35
ENDBRANCH  20  22
ENDBRANCH  11  20
TORSDOF 6
