REMARK  Name = ZINC06193726
REMARK  10 active torsions:
REMARK  status: ('A' for Active; 'I' for Inactive)
REMARK    1  A    between atoms: C_1  and  C_2
REMARK    2  A    between atoms: C_2  and  N_69
REMARK    3  A    between atoms: C_3  and  C_4
REMARK    4  A    between atoms: C_3  and  N_69
REMARK    5  A    between atoms: C_10  and  C_12
REMARK    6  A    between atoms: C_10  and  C_26
REMARK    7  A    between atoms: C_10  and  N_69
REMARK    8  A    between atoms: C_16  and  C_25
REMARK    9  A    between atoms: C_18  and  C_24
REMARK   10  A    between atoms: N_30  and  C_31
REMARK                            x       y       z     vdW  Elec       q    Type
REMARK                         _______ _______ _______ _____ _____    ______ ____
ROOT
ATOM      1  C   UNL     1      -1.194   1.967  -0.001  0.00  0.00    +0.039 C 
ENDROOT
BRANCH   1   2
ATOM      2  C   UNL     1      -0.102   0.930  -0.058  0.00  0.00    +0.011 A 
ATOM      3  C   UNL     1       1.198   1.317  -0.058  0.00  0.00    +0.017 A 
ATOM      4  C   UNL     1       2.234   0.286  -0.121  0.00  0.00    -0.001 A 
ATOM      5  C   UNL     1       3.592   0.623  -0.125  0.00  0.00    +0.013 A 
ATOM      6  C   UNL     1       4.535  -0.363  -0.185  0.00  0.00    -0.050 A 
ATOM      7  C   UNL     1       4.158  -1.698  -0.242  0.00  0.00    +0.008 A 
ATOM      8  C   UNL     1       2.827  -2.054  -0.237  0.00  0.00    -0.026 A 
ATOM      9  C   UNL     1       1.849  -1.067  -0.177  0.00  0.00    +0.052 A 
ATOM     10  N   UNL     1       0.509  -1.394  -0.173  0.00  0.00    -0.322 N 
ATOM     11  H   UNL     1       0.237  -2.356  -0.214  0.00  0.00    +0.169 HD
ATOM     12  C   UNL     1      -0.436  -0.440  -0.116  0.00  0.00    +0.251 A 
ATOM     13  O   UNL     1      -1.610  -0.766  -0.114  0.00  0.00    -0.268 OA
ATOM     14  C   UNL     1       2.432  -3.507  -0.298  0.00  0.00    +0.046 C 
ATOM     15  C   UNL     1       5.997   0.001  -0.190  0.00  0.00    +0.044 C 
ENDBRANCH   1   2
BRANCH   1  16
ATOM     16  C   UNL     1      -1.930   1.851   1.309  0.00  0.00    +0.143 A 
ATOM     17  N   UNL     1      -2.797   0.925   1.640  0.00  0.00    -0.115 NA
ATOM     18  N   UNL     1      -3.202   1.170   2.839  0.00  0.00    -0.023 NA
ATOM     19  N   UNL     1      -2.616   2.227   3.281  0.00  0.00    -0.044 NA
ATOM     20  N   UNL     1      -1.820   2.674   2.369  0.00  0.00    -0.227 N 
BRANCH  20  21
ATOM     21  C   UNL     1      -0.960   3.856   2.467  0.00  0.00    +0.111 C 
ATOM     22  C   UNL     1       0.023   3.677   3.626  0.00  0.00    +0.027 C 
ATOM     23  C   UNL     1       0.921   4.911   3.728  0.00  0.00    +0.002 C 
ATOM     24  C   UNL     1       0.058   6.150   3.978  0.00  0.00    +0.000 C 
ATOM     25  C   UNL     1      -0.925   6.329   2.819  0.00  0.00    +0.002 C 
ATOM     26  C   UNL     1      -1.823   5.094   2.717  0.00  0.00    +0.027 C 
ENDBRANCH  20  21
ENDBRANCH   1  16
BRANCH   1  27
ATOM     27  N   UNL     1      -2.142   1.724  -1.109  0.00  0.00    +0.392 N 
ATOM     28  H   UNL     1      -2.468   0.752  -1.062  0.00  0.00    -0.080 HD
BRANCH  27  30
ATOM     29  C   UNL     1      -4.401   2.152  -1.942  0.00  0.00    -0.017 C 
ATOM     30  C   UNL     1      -3.305   2.628  -0.986  0.00  0.00    -0.080 C 
ENDBRANCH  27  30
BRANCH  27  31
ATOM     31  C   UNL     1      -1.468   1.942  -2.406  0.00  0.00    -0.042 C 
BRANCH  31  32
ATOM     32  C   UNL     1      -1.062   3.386  -2.555  0.00  0.00    -0.064 A 
ATOM     33  C   UNL     1      -1.931   4.292  -3.133  0.00  0.00    +0.002 A 
ATOM     34  C   UNL     1      -1.561   5.618  -3.265  0.00  0.00    +0.000 A 
ATOM     35  C   UNL     1      -0.318   6.034  -2.828  0.00  0.00    +0.000 A 
ATOM     36  C   UNL     1       0.554   5.127  -2.255  0.00  0.00    +0.000 A 
ATOM     37  C   UNL     1       0.181   3.803  -2.118  0.00  0.00    +0.002 A 
ENDBRANCH  31  32
ENDBRANCH  27  31
ENDBRANCH   1  27
TORSDOF 7
