REMARK  Name = ZINC10611094
REMARK  14 active torsions:
REMARK  status: ('A' for Active; 'I' for Inactive)
REMARK    1  A    between atoms: C_1  and  C_2
REMARK    2  A    between atoms: C_2  and  O_3
REMARK    3  A    between atoms: O_3  and  C_4
REMARK    4  A    between atoms: C_4  and  C_6
REMARK    5  A    between atoms: C_10  and  N_11
REMARK    6  A    between atoms: C_12  and  C_14
REMARK    7  A    between atoms: C_14  and  C_16
REMARK    8  A    between atoms: C_14  and  S_17
REMARK    9  A    between atoms: S_17  and  C_18
REMARK   10  A    between atoms: C_21  and  C_27
REMARK   11  A    between atoms: N_22  and  C_23
REMARK   12  A    between atoms: C_23  and  C_24
REMARK   13  A    between atoms: C_24  and  O_25
REMARK   14  A    between atoms: O_25  and  C_26
REMARK                            x       y       z     vdW  Elec       q    Type
REMARK                         _______ _______ _______ _____ _____    ______ ____
ROOT
ATOM      1  N   UNL     1      -1.012   6.448  -0.567  0.00  0.00    -0.278 N 
ATOM      2  C   UNL     1      -1.413   5.259  -0.074  0.00  0.00    +0.231 C 
ATOM      3  O   UNL     1      -2.564   5.105   0.276  0.00  0.00    -0.274 OA
ATOM      4  H   UNL     1      -0.091   6.571  -0.846  0.00  0.00    +0.155 HD
ENDROOT
BRANCH   1   9
ATOM      5  C   UNL     1      -1.692   8.780  -1.145  0.00  0.00    +0.091 A 
ATOM      6  C   UNL     1      -2.822   9.700  -1.161  0.00  0.00    -0.021 A 
ATOM      7  C   UNL     1      -3.978   9.189  -0.688  0.00  0.00    -0.004 A 
ATOM      8  S   UNL     1      -3.591   7.518  -0.244  0.00  0.00    -0.077 S 
ATOM      9  C   UNL     1      -1.914   7.494  -0.673  0.00  0.00    +0.086 A 
ATOM     10  C   UNL     1      -5.297   9.883  -0.552  0.00  0.00    +0.043 C 
ATOM     11  C   UNL     1      -5.631  10.599  -1.868  0.00  0.00    +0.005 C 
ATOM     12  C   UNL     1      -5.049  12.008  -1.812  0.00  0.00    +0.001 C 
ATOM     13  C   UNL     1      -3.754  12.010  -1.002  0.00  0.00    +0.005 C 
ATOM     14  C   UNL     1      -2.706  11.130  -1.674  0.00  0.00    +0.037 C 
BRANCH   5  15
ATOM     15  C   UNL     1      -0.369   9.196  -1.613  0.00  0.00    +0.342 C 
ATOM     16  O   UNL     1      -0.065   9.055  -2.783  0.00  0.00    -0.245 OA
BRANCH  15  17
ATOM     17  O   UNL     1       0.514   9.737  -0.749  0.00  0.00    -0.461 OA
BRANCH  17  19
ATOM     18  C   UNL     1       2.666  10.716  -0.162  0.00  0.00    +0.048 C 
ATOM     19  C   UNL     1       1.806  10.127  -1.283  0.00  0.00    +0.229 C 
ENDBRANCH  17  19
ENDBRANCH  15  17
ENDBRANCH   5  15
ENDBRANCH   1   9
BRANCH   2  20
ATOM     20  C   UNL     1      -0.432   4.121   0.042  0.00  0.00    +0.137 C 
ATOM     21  C   UNL     1       0.336   4.242   1.360  0.00  0.00    +0.029 C 
BRANCH  20  22
ATOM     22  S   UNL     1      -1.326   2.548   0.007  0.00  0.00    -0.074 S 
BRANCH  22  23
ATOM     23  C   UNL     1       0.032   1.425   0.003  0.00  0.00    +0.193 A 
ATOM     24  N   UNL     1       1.307   1.743   0.017  0.00  0.00    -0.122 NA
ATOM     25  N   UNL     1       2.027   0.679   0.004  0.00  0.00    -0.128 NA
ATOM     26  C   UNL     1       1.257  -0.384  -0.019  0.00  0.00    +0.166 A 
ATOM     27  N   UNL     1      -0.045   0.061  -0.019  0.00  0.00    -0.300 N 
BRANCH  26  28
ATOM     28  C   UNL     1       1.704  -1.793  -0.039  0.00  0.00    +0.037 A 
ATOM     29  C   UNL     1       0.834  -2.809  -0.454  0.00  0.00    +0.014 A 
ATOM     30  C   UNL     1       1.301  -4.112  -0.455  0.00  0.00    +0.020 A 
ATOM     31  C   UNL     1       2.600  -4.366  -0.050  0.00  0.00    +0.111 A 
ATOM     32  N   UNL     1       3.397  -3.388   0.335  0.00  0.00    -0.263 NA
ATOM     33  C   UNL     1       3.001  -2.132   0.348  0.00  0.00    +0.122 A 
ENDBRANCH  26  28
BRANCH  27  34
ATOM     34  C   UNL     1      -1.260  -0.757  -0.040  0.00  0.00    +0.154 C 
BRANCH  34  35
ATOM     35  C   UNL     1      -1.739  -0.923  -1.484  0.00  0.00    +0.181 C 
BRANCH  35  36
ATOM     36  O   UNL     1      -2.924  -1.721  -1.504  0.00  0.00    -0.381 OA
ATOM     37  C   UNL     1      -3.456  -1.938  -2.812  0.00  0.00    +0.194 C 
ENDBRANCH  35  36
ENDBRANCH  34  35
ENDBRANCH  27  34
ENDBRANCH  22  23
ENDBRANCH  20  22
ENDBRANCH   2  20
TORSDOF 11
