REMARK  Name = ZINC15861759
REMARK  4 active torsions:
REMARK  status: ('A' for Active; 'I' for Inactive)
REMARK    1  A    between atoms: C_3  and  C_31
REMARK    2  A    between atoms: C_5  and  N_7
REMARK    3  A    between atoms: N_9  and  C_10
REMARK    4  A    between atoms: C_16  and  N_26
REMARK                            x       y       z     vdW  Elec       q    Type
REMARK                         _______ _______ _______ _____ _____    ______ ____
ROOT
ATOM      1  N   UNL     1       1.482  -2.258  -0.172  0.00  0.00    -0.254 N 
ATOM      2  C   UNL     1       0.317  -2.764   0.343  0.00  0.00    +0.098 C 
ATOM      3  N   UNL     1      -0.838  -2.185   0.301  0.00  0.00    -0.372 N 
ATOM      4  C   UNL     1       0.605  -4.112   0.968  0.00  0.00    +0.131 C 
ATOM      5  C   UNL     1       2.112  -4.305   0.735  0.00  0.00    +0.038 C 
ATOM      6  C   UNL     1       2.542  -3.061  -0.002  0.00  0.00    +0.069 C 
ATOM      7  S   UNL     1       4.029  -2.747  -0.498  0.00  0.00    -0.039 S 
ATOM      8  C   UNL     1       2.358  -5.542  -0.123  0.00  0.00    +0.015 C 
ATOM      9  C   UNL     1       1.873  -6.787   0.624  0.00  0.00    +0.001 C 
ATOM     10  C   UNL     1       2.624  -6.909   1.951  0.00  0.00    +0.000 C 
ATOM     11  C   UNL     1       2.354  -5.671   2.809  0.00  0.00    +0.001 C 
ATOM     12  C   UNL     1       2.841  -4.422   2.069  0.00  0.00    +0.015 C 
ATOM     13  H   UNL     1      -0.898  -1.235   0.114  0.00  0.00    +0.161 HD
ENDROOT
BRANCH   1  18
ATOM     14  C   UNL     1       1.373   1.371  -0.763  0.00  0.00    +0.002 A 
ATOM     15  C   UNL     1       1.706   1.428  -2.104  0.00  0.00    +0.012 A 
ATOM     16  C   UNL     1       1.965   0.265  -2.805  0.00  0.00    +0.057 A 
ATOM     17  C   UNL     1       1.892  -0.959  -2.167  0.00  0.00    +0.036 A 
ATOM     18  C   UNL     1       1.558  -1.019  -0.821  0.00  0.00    +0.041 A 
ATOM     19  C   UNL     1       1.298   0.151  -0.120  0.00  0.00    +0.024 A 
BRANCH  16  20
ATOM     20  C   UNL     1       2.327   0.331  -4.266  0.00  0.00    +0.417 C 
ATOM     21  F   UNL     1       2.336   1.666  -4.684  0.00  0.00    -0.166 F 
ATOM     22  F   UNL     1       3.595  -0.226  -4.458  0.00  0.00    -0.166 F 
ATOM     23  F   UNL     1       1.385  -0.384  -5.013  0.00  0.00    -0.166 F 
ENDBRANCH  16  20
ENDBRANCH   1  18
BRANCH   3  24
ATOM     24  C   UNL     1      -2.056  -2.964   0.537  0.00  0.00    +0.080 C 
ATOM     25  C   UNL     1      -2.587  -3.497  -0.795  0.00  0.00    +0.024 C 
ATOM     26  C   UNL     1      -3.859  -4.310  -0.549  0.00  0.00    +0.002 C 
ATOM     27  C   UNL     1      -4.918  -3.416   0.101  0.00  0.00    +0.000 C 
ATOM     28  C   UNL     1      -4.387  -2.883   1.433  0.00  0.00    +0.002 C 
ATOM     29  C   UNL     1      -3.115  -2.070   1.187  0.00  0.00    +0.024 C 
ENDBRANCH   3  24
BRANCH   4  30
ATOM     30  N   UNL     1       0.300  -4.092   2.405  0.00  0.00    -0.292 NA
ATOM     31  C   UNL     1       1.445  -3.553   3.184  0.00  0.00    +0.085 C 
ATOM     32  C   UNL     1       0.791  -3.117   4.519  0.00  0.00    +0.017 C 
ATOM     33  C   UNL     1      -0.576  -2.554   4.067  0.00  0.00    +0.017 C 
ATOM     34  C   UNL     1      -0.840  -3.195   2.692  0.00  0.00    +0.085 C 
ENDBRANCH   4  30
TORSDOF 4
