REMARK  Name = ZINC59322648
REMARK  7 active torsions:
REMARK  status: ('A' for Active; 'I' for Inactive)
REMARK    1  A    between atoms: C_1  and  C_2
REMARK    2  A    between atoms: C_2  and  C_4
REMARK    3  A    between atoms: C_2  and  N_15
REMARK    4  A    between atoms: C_7  and  N_10
REMARK    5  A    between atoms: N_15  and  C_16
REMARK    6  A    between atoms: N_19  and  C_20
REMARK    7  A    between atoms: C_20  and  C_21
REMARK                            x       y       z     vdW  Elec       q    Type
REMARK                         _______ _______ _______ _____ _____    ______ ____
ROOT
ATOM      1  C   UNL     1      -0.474   1.353   0.115  0.00  0.00    +0.033 C 
ATOM      2  C   UNL     1      -0.059  -0.119   0.061  0.00  0.00    +0.104 C 
ENDROOT
BRANCH   2   3
ATOM      3  C   UNL     1      -1.285  -0.990   0.154  0.00  0.00    -0.027 A 
ATOM      4  C   UNL     1      -1.638  -1.800  -0.909  0.00  0.00    +0.007 A 
ATOM      5  C   UNL     1      -2.761  -2.600  -0.827  0.00  0.00    +0.028 A 
ATOM      6  C   UNL     1      -3.536  -2.590   0.325  0.00  0.00    +0.067 A 
ATOM      7  C   UNL     1      -3.179  -1.775   1.391  0.00  0.00    +0.028 A 
ATOM      8  C   UNL     1      -2.052  -0.982   1.305  0.00  0.00    +0.007 A 
BRANCH   6   9
ATOM      9  N   UNL     1      -4.677  -3.400   0.411  0.00  0.00    -0.220 N 
ATOM     10  C   UNL     1      -5.524  -3.493   1.454  0.00  0.00    +0.225 A 
ATOM     11  N   UNL     1      -6.458  -4.355   1.142  0.00  0.00    -0.222 NA
ATOM     12  C   UNL     1      -6.242  -4.832  -0.084  0.00  0.00    +0.245 A 
ATOM     13  N   UNL     1      -5.167  -4.272  -0.574  0.00  0.00    -0.154 NA
ENDBRANCH   6   9
ENDBRANCH   2   3
BRANCH   2  14
ATOM     14  N   UNL     1       0.837  -0.415   1.182  0.00  0.00    -0.282 N 
ATOM     15  C   UNL     1       0.424  -0.101   2.552  0.00  0.00    +0.134 C 
ATOM     16  C   UNL     1       2.040  -0.977   0.953  0.00  0.00    +0.303 C 
ATOM     17  O   UNL     1       2.383  -1.237  -0.185  0.00  0.00    -0.253 OA
ATOM     18  N   UNL     1       2.864  -1.249   1.984  0.00  0.00    -0.295 N 
ATOM     19  H   UNL     1       2.591  -1.041   2.891  0.00  0.00    +0.151 HD
BRANCH  18  20
ATOM     20  C   UNL     1       4.173  -1.859   1.734  0.00  0.00    +0.148 C 
BRANCH  20  21
ATOM     21  C   UNL     1       4.891  -2.059   3.044  0.00  0.00    +0.008 A 
ATOM     22  C   UNL     1       4.874  -3.131   3.873  0.00  0.00    +0.028 A 
ATOM     23  C   UNL     1       5.620  -3.092   5.036  0.00  0.00    +0.025 A 
ATOM     24  C   UNL     1       6.348  -1.982   5.313  0.00  0.00    +0.060 A 
ATOM     25  S   UNL     1       5.994  -0.947   3.902  0.00  0.00    -0.099 S 
ATOM     26 BR   UNL     1       5.626  -4.564   6.223  0.00  0.00    -0.050 Br
ENDBRANCH  20  21
ENDBRANCH  18  20
ENDBRANCH   2  14
TORSDOF 5
