REMARK  Name = ZINC36303444
REMARK  19 active torsions:
REMARK  status: ('A' for Active; 'I' for Inactive)
REMARK    1  A    between atoms: C_1  and  C_2
REMARK    2  A    between atoms: C_2  and  C_3
REMARK    3  A    between atoms: C_4  and  C_22
REMARK    4  A    between atoms: C_5  and  O_15
REMARK    5  A    between atoms: N_6  and  C_8
REMARK    6  A    between atoms: O_15  and  C_16
REMARK    7  A    between atoms: C_22  and  N_23
REMARK    8  A    between atoms: N_23  and  C_24
REMARK    9  A    between atoms: N_23  and  C_34
REMARK   10  A    between atoms: C_24  and  C_25
REMARK   11  A    between atoms: C_25  and  C_27
REMARK   12  A    between atoms: C_25  and  O_33
REMARK   13  A    between atoms: C_27  and  O_28
REMARK   14  A    between atoms: O_28  and  C_29
REMARK   15  A    between atoms: C_29  and  C_30
REMARK   16  A    between atoms: C_30  and  C_31
REMARK   17  A    between atoms: C_30  and  C_32
REMARK   18  A    between atoms: C_34  and  C_35
REMARK   19  A    between atoms: C_34  and  C_36
REMARK                            x       y       z     vdW  Elec       q    Type
REMARK                         _______ _______ _______ _____ _____    ______ ____
ROOT
ATOM      1  C   UNL     1       1.772  -0.584  -1.986  0.00  0.00    +0.068 A 
ATOM      2  C   UNL     1       0.477  -0.725  -2.492  0.00  0.00    +0.021 A 
ATOM      3  C   UNL     1       0.562  -1.371  -3.685  0.00  0.00    +0.225 A 
ATOM      4  N   UNL     1       1.877  -1.628  -3.917  0.00  0.00    -0.200 N 
ATOM      5  N   UNL     1       2.610  -1.118  -2.838  0.00  0.00    -0.168 NA
ENDROOT
BRANCH   4   6
ATOM      6  C   UNL     1       2.406  -2.282  -5.040  0.00  0.00    +0.069 A 
ATOM      7  C   UNL     1       1.785  -3.419  -5.538  0.00  0.00    +0.031 A 
ATOM      8  C   UNL     1       2.307  -4.062  -6.644  0.00  0.00    +0.040 A 
ATOM      9  C   UNL     1       3.450  -3.573  -7.254  0.00  0.00    +0.124 A 
ATOM     10  C   UNL     1       4.071  -2.439  -6.758  0.00  0.00    +0.040 A 
ATOM     11  C   UNL     1       3.548  -1.790  -5.656  0.00  0.00    +0.031 A 
ATOM     12  F   UNL     1       3.960  -4.203  -8.335  0.00  0.00    -0.205 F 
ENDBRANCH   4   6
BRANCH   1  14
ATOM     13  C   UNL     1       2.386   1.568  -0.917  0.00  0.00    +0.010 C 
ATOM     14  C   UNL     1       2.142   0.076  -0.682  0.00  0.00    +0.054 C 
ENDBRANCH   1  14
BRANCH   3  15
ATOM     15  O   UNL     1      -0.475  -1.701  -4.496  0.00  0.00    -0.438 OA
BRANCH  15  16
ATOM     16  C   UNL     1      -1.145  -2.854  -4.237  0.00  0.00    +0.130 A 
ATOM     17  C   UNL     1      -0.851  -3.589  -3.098  0.00  0.00    +0.046 A 
ATOM     18  C   UNL     1      -1.534  -4.761  -2.837  0.00  0.00    +0.004 A 
ATOM     19  C   UNL     1      -2.510  -5.203  -3.712  0.00  0.00    +0.000 A 
ATOM     20  C   UNL     1      -2.805  -4.473  -4.848  0.00  0.00    +0.004 A 
ATOM     21  C   UNL     1      -2.130  -3.297  -5.110  0.00  0.00    +0.046 A 
ENDBRANCH  15  16
ENDBRANCH   3  15
BRANCH   2  22
ATOM     22  C   UNL     1      -0.790  -0.244  -1.833  0.00  0.00    -0.035 C 
BRANCH  22  23
ATOM     23  N   UNL     1      -1.016   1.167  -2.175  0.00  0.00    +0.386 N 
ATOM     24  H   UNL     1      -0.196   1.706  -1.938  0.00  0.00    -0.081 HD
BRANCH  23  25
ATOM     25  C   UNL     1      -2.171   1.675  -1.423  0.00  0.00    -0.074 C 
ATOM     26  C   UNL     1      -3.416   0.868  -1.795  0.00  0.00    -0.014 C 
ATOM     27  C   UNL     1      -1.903   1.537   0.077  0.00  0.00    -0.014 C 
ENDBRANCH  23  25
BRANCH  23  28
ATOM     28  C   UNL     1      -1.280   1.284  -3.616  0.00  0.00    -0.044 C 
BRANCH  28  29
ATOM     29  C   UNL     1      -1.353   2.763  -4.002  0.00  0.00    +0.124 C 
BRANCH  29  30
ATOM     30  O   UNL     1      -2.514   3.352  -3.413  0.00  0.00    -0.391 OA
ATOM     31  H   UNL     1      -3.343   2.916  -3.655  0.00  0.00    +0.210 HD
ENDBRANCH  29  30
BRANCH  29  32
ATOM     32  C   UNL     1      -1.434   2.890  -5.524  0.00  0.00    +0.189 C 
BRANCH  32  33
ATOM     33  O   UNL     1      -1.385   4.270  -5.891  0.00  0.00    -0.377 OA
BRANCH  33  34
ATOM     34  C   UNL     1      -1.454   4.500  -7.299  0.00  0.00    +0.163 C 
BRANCH  34  35
ATOM     35  C   UNL     1      -1.394   6.004  -7.574  0.00  0.00    +0.009 C 
ATOM     36  C   UNL     1      -0.030   6.547  -7.141  0.00  0.00    +0.009 C 
ATOM     37  C   UNL     1      -1.592   6.258  -9.070  0.00  0.00    +0.009 C 
ENDBRANCH  34  35
ENDBRANCH  33  34
ENDBRANCH  32  33
ENDBRANCH  29  32
ENDBRANCH  28  29
ENDBRANCH  23  28
ENDBRANCH  22  23
ENDBRANCH   2  22
TORSDOF 14
