REMARK  Name = ZINC01799161
REMARK  7 active torsions:
REMARK  status: ('A' for Active; 'I' for Inactive)
REMARK    1  A    between atoms: C_1  and  C_2
REMARK    2  A    between atoms: C_2  and  C_34
REMARK    3  A    between atoms: C_7  and  C_33
REMARK    4  A    between atoms: C_10  and  C_11
REMARK    5  A    between atoms: C_10  and  N_64
REMARK    6  A    between atoms: C_12  and  O_32
REMARK    7  A    between atoms: C_20  and  C_22
REMARK                            x       y       z     vdW  Elec       q    Type
REMARK                         _______ _______ _______ _____ _____    ______ ____
ROOT
ATOM      1  C   UNL     1       6.033  -1.124  -0.048  0.00  0.00    +0.020 A 
ATOM      2  C   UNL     1       7.241  -0.455  -0.159  0.00  0.00    +0.122 A 
ATOM      3  C   UNL     1       7.273   0.935  -0.259  0.00  0.00    +0.046 A 
ATOM      4  C   UNL     1       6.114   1.654  -0.249  0.00  0.00    +0.015 A 
ATOM      5  C   UNL     1       4.881   0.995  -0.138  0.00  0.00    +0.019 A 
ATOM      6  C   UNL     1       4.844  -0.409  -0.037  0.00  0.00    +0.144 A 
ATOM      7  O   UNL     1       3.667  -1.063   0.072  0.00  0.00    -0.421 OA
ATOM      8  C   UNL     1       2.498  -0.401   0.093  0.00  0.00    +0.347 A 
ATOM      9  O   UNL     1       1.453  -1.017   0.197  0.00  0.00    -0.244 OA
ATOM     10  C   UNL     1       2.477   1.060  -0.015  0.00  0.00    +0.085 A 
ATOM     11  C   UNL     1       3.674   1.738  -0.127  0.00  0.00    +0.028 A 
ENDROOT
BRANCH  10  12
ATOM     12  C   UNL     1       1.194   1.797   0.000  0.00  0.00    +0.079 A 
ATOM     13  C   UNL     1       1.209   3.202   0.018  0.00  0.00    +0.029 A 
ATOM     14  C   UNL     1       0.034   3.892   0.037  0.00  0.00    +0.012 A 
ATOM     15  C   UNL     1      -1.171   3.161   0.029  0.00  0.00    +0.000 A 
ATOM     16  C   UNL     1      -2.416   3.809   0.043  0.00  0.00    +0.010 A 
ATOM     17  C   UNL     1      -3.560   3.071   0.039  0.00  0.00    +0.001 A 
ATOM     18  C   UNL     1      -3.513   1.679   0.021  0.00  0.00    +0.002 A 
ATOM     19  C   UNL     1      -2.324   1.017   0.007  0.00  0.00    +0.028 A 
ATOM     20  C   UNL     1      -1.120   1.745   0.011  0.00  0.00    +0.072 A 
ATOM     21  N   UNL     1       0.060   1.119  -0.003  0.00  0.00    -0.246 NA
ENDBRANCH  10  12
BRANCH   2  22
ATOM     22  O   UNL     1       8.402  -1.157  -0.170  0.00  0.00    -0.506 OA
ATOM     23  H   UNL     1       8.692  -1.424  -1.053  0.00  0.00    +0.292 HD
ENDBRANCH   2  22
BRANCH   1  24
ATOM     24  C   UNL     1       6.011  -2.627   0.060  0.00  0.00    -0.035 C 
BRANCH  24  35
ATOM     25  C   UNL     1       3.107  -4.576   0.547  0.00  0.00    +0.011 C 
ATOM     26  C   UNL     1       3.787  -5.412  -0.555  0.00  0.00    -0.036 C 
ATOM     27  C   UNL     1       5.282  -5.410  -0.325  0.00  0.00    -0.009 C 
ATOM     28  C   UNL     1       6.133  -4.665  -1.337  0.00  0.00    -0.067 C 
ATOM     29  C   UNL     1       5.599  -5.019  -2.755  0.00  0.00    -0.011 C 
ATOM     30  C   UNL     1       4.289  -4.184  -2.747  0.00  0.00    -0.048 C 
ATOM     31  C   UNL     1       3.274  -4.953  -1.904  0.00  0.00    +0.011 C 
ATOM     32  C   UNL     1       4.683  -2.898  -1.982  0.00  0.00    -0.071 C 
ATOM     33  C   UNL     1       3.779  -3.884  -4.165  0.00  0.00    +0.009 C 
ATOM     34  C   UNL     1       3.295  -6.868  -0.351  0.00  0.00    +0.011 C 
ATOM     35  N   UNL     1       5.957  -3.195  -1.329  0.00  0.00    +0.385 N 
ATOM     36  H   UNL     1       6.716  -2.770  -1.875  0.00  0.00    -0.081 HD
ENDBRANCH  24  35
ENDBRANCH   1  24
TORSDOF 4
