REMARK  Name = ZINC20150636
REMARK  12 active torsions:
REMARK  status: ('A' for Active; 'I' for Inactive)
REMARK    1  A    between atoms: C_1  and  N_2
REMARK    2  A    between atoms: N_2  and  C_3
REMARK    3  A    between atoms: N_2  and  C_4
REMARK    4  A    between atoms: C_7  and  C_10
REMARK    5  A    between atoms: N_18  and  C_21
REMARK    6  A    between atoms: C_27  and  C_29
REMARK    7  A    between atoms: C_27  and  C_33
REMARK    8  A    between atoms: C_29  and  C_30
REMARK    9  A    between atoms: C_30  and  S_31
REMARK   10  A    between atoms: S_31  and  C_32
REMARK   11  A    between atoms: C_33  and  O_35
REMARK   12  A    between atoms: O_35  and  C_36
REMARK                            x       y       z     vdW  Elec       q    Type
REMARK                         _______ _______ _______ _____ _____    ______ ____
ROOT
ATOM      1  C   UNL     1      -0.006  -2.813  -4.924  0.00  0.00    +0.097 C 
ATOM      2  C   UNL     1       1.383  -2.801  -5.554  0.00  0.00    +0.111 C 
ATOM      3  C   UNL     1       0.939  -3.182  -7.016  0.00  0.00    +0.120 C 
ATOM      4  C   UNL     1       2.185  -3.607  -7.607  0.00  0.00    +0.232 C 
ATOM      5  O   UNL     1       2.540  -3.475  -8.758  0.00  0.00    -0.274 OA
ATOM      6  N   UNL     1       2.882  -4.193  -6.579  0.00  0.00    -0.210 N 
ATOM      7  C   UNL     1       2.338  -3.932  -5.339  0.00  0.00    +0.232 C 
ATOM      8  O   UNL     1       2.574  -4.498  -4.293  0.00  0.00    -0.274 OA
ATOM      9  C   UNL     1      -0.180  -2.269  -7.283  0.00  0.00    +0.130 C 
ATOM     10  N   UNL     1      -0.849  -2.100  -5.939  0.00  0.00    -0.293 NA
ATOM     11  H   UNL     1      -1.791  -2.462  -5.945  0.00  0.00    +0.124 HD
ENDROOT
BRANCH   1  15
ATOM     12  C   UNL     1       0.000  -0.696  -1.211  0.00  0.00    +0.029 A 
ATOM     13  C   UNL     1       0.013  -2.085  -1.221  0.00  0.00    +0.023 A 
ATOM     14  C   UNL     1       0.010  -2.766  -2.422  0.00  0.00    +0.007 A 
ATOM     15  C   UNL     1      -0.005  -2.066  -3.615  0.00  0.00    -0.030 A 
ATOM     16  C   UNL     1      -0.018  -0.684  -3.609  0.00  0.00    +0.007 A 
ATOM     17  C   UNL     1      -0.021   0.004  -2.411  0.00  0.00    +0.023 A 
BRANCH  12  19
ATOM     18  C   UNL     1      -0.018   1.461   0.010  0.00  0.00    +0.129 C 
ATOM     19  N   UNL     1       0.002  -0.004   0.002  0.00  0.00    -0.336 N 
ATOM     20  C   UNL     1       0.024  -0.743   1.267  0.00  0.00    +0.129 C 
ENDBRANCH  12  19
ENDBRANCH   1  15
BRANCH   6  21
ATOM     21  C   UNL     1       4.035  -4.969  -6.767  0.00  0.00    +0.044 A 
ATOM     22  C   UNL     1       4.535  -5.175  -8.046  0.00  0.00    +0.024 A 
ATOM     23  C   UNL     1       5.670  -5.939  -8.227  0.00  0.00    +0.002 A 
ATOM     24  C   UNL     1       6.310  -6.499  -7.137  0.00  0.00    +0.000 A 
ATOM     25  C   UNL     1       5.815  -6.296  -5.862  0.00  0.00    +0.002 A 
ATOM     26  C   UNL     1       4.683  -5.528  -5.673  0.00  0.00    +0.024 A 
ENDBRANCH   6  21
BRANCH   9  27
ATOM     27  C   UNL     1      -1.145  -2.892  -8.259  0.00  0.00    +0.328 C 
ATOM     28  O   UNL     1      -0.761  -3.738  -9.031  0.00  0.00    -0.249 OA
BRANCH  27  29
ATOM     29  O   UNL     1      -2.430  -2.506  -8.271  0.00  0.00    -0.467 OA
ATOM     30  C   UNL     1      -3.289  -3.138  -9.222  0.00  0.00    +0.280 C 
ENDBRANCH  27  29
ENDBRANCH   9  27
BRANCH   9  31
ATOM     31  C   UNL     1       0.338  -0.934  -7.822  0.00  0.00    +0.045 C 
BRANCH  31  32
ATOM     32  C   UNL     1      -0.830   0.042  -7.974  0.00  0.00    +0.071 C 
BRANCH  32  33
ATOM     33  S   UNL     1      -0.216   1.625  -8.612  0.00  0.00    -0.164 S 
ATOM     34  C   UNL     1      -1.704   2.656  -8.734  0.00  0.00    +0.084 C 
ENDBRANCH  32  33
ENDBRANCH  31  32
ENDBRANCH   9  31
TORSDOF 8
