REMARK  Name = ZINC13388777
REMARK  5 active torsions:
REMARK  status: ('A' for Active; 'I' for Inactive)
REMARK    1  A    between atoms: C_6  and  C_7
REMARK    2  A    between atoms: C_10  and  C_12
REMARK    3  A    between atoms: N_22  and  C_25
REMARK    4  A    between atoms: C_25  and  C_26
REMARK    5  A    between atoms: C_26  and  C_27
REMARK                            x       y       z     vdW  Elec       q    Type
REMARK                         _______ _______ _______ _____ _____    ______ ____
ROOT
ATOM      1  C   UNL     1      -0.157   6.134   7.789  0.00  0.00    +0.066 C 
ATOM      2  C   UNL     1      -0.132   5.137   6.856  0.00  0.00    +0.082 C 
ATOM      3  C   UNL     1       0.386   3.757   6.960  0.00  0.00    +0.276 C 
ATOM      4  O   UNL     1       0.890   3.335   7.989  0.00  0.00    -0.267 OA
ATOM      5  N   UNL     1       0.275   3.008   5.884  0.00  0.00    -0.154 NA
ATOM      6  C   UNL     1      -0.269   3.453   4.763  0.00  0.00    +0.154 C 
ATOM      7  S   UNL     1      -0.710   5.137   5.164  0.00  0.00    -0.051 S 
ATOM      8  N   UNL     1      -0.447   2.786   3.579  0.00  0.00    -0.309 N 
ATOM      9  C   UNL     1      -0.011   1.389   3.427  0.00  0.00    +0.122 C 
ATOM     10  C   UNL     1       0.850   1.282   2.164  0.00  0.00    +0.103 C 
ATOM     11  N   UNL     1       0.107   1.828   1.021  0.00  0.00    -0.298 NA
ATOM     12  C   UNL     1      -0.174   3.259   1.203  0.00  0.00    +0.103 C 
ATOM     13  C   UNL     1      -1.077   3.447   2.426  0.00  0.00    +0.122 C 
ENDROOT
BRANCH   1  17
ATOM     14  C   UNL     1       0.616   4.727  10.971  0.00  0.00    +0.136 A 
ATOM     15  C   UNL     1       0.553   6.057  11.321  0.00  0.00    +0.050 A 
ATOM     16  C   UNL     1       0.255   6.772  10.159  0.00  0.00    +0.050 A 
ATOM     17  C   UNL     1       0.139   5.846   9.138  0.00  0.00    +0.130 A 
ATOM     18  O   UNL     1       0.365   4.619   9.653  0.00  0.00    -0.455 OA
BRANCH  14  24
ATOM     19  C   UNL     1       1.163   3.856  13.238  0.00  0.00    +0.012 A 
ATOM     20  C   UNL     1       1.433   2.805  14.089  0.00  0.00    +0.016 A 
ATOM     21  C   UNL     1       1.467   1.508  13.604  0.00  0.00    +0.018 A 
ATOM     22  C   UNL     1       1.224   1.257  12.264  0.00  0.00    +0.016 A 
ATOM     23  C   UNL     1       0.947   2.298  11.403  0.00  0.00    +0.012 A 
ATOM     24  C   UNL     1       0.912   3.608  11.886  0.00  0.00    +0.017 A 
ATOM     25 BR   UNL     1       1.845   0.074  14.777  0.00  0.00    -0.050 Br
ENDBRANCH  14  24
ENDBRANCH   1  17
BRANCH  11  26
ATOM     26  C   UNL     1       0.826   1.589  -0.237  0.00  0.00    +0.099 C 
BRANCH  26  27
ATOM     27  C   UNL     1      -0.080   1.942  -1.418  0.00  0.00    +0.134 C 
BRANCH  27  28
ATOM     28  C   UNL     1       0.641   1.702  -2.679  0.00  0.00    +0.064 C 
ATOM     29  N   UNL     1       1.197   1.517  -3.652  0.00  0.00    -0.197 NA
ENDBRANCH  27  28
ENDBRANCH  26  27
ENDBRANCH  11  26
TORSDOF 5
