REMARK  Name = ZINC13330607
REMARK  13 active torsions:
REMARK  status: ('A' for Active; 'I' for Inactive)
REMARK    1  A    between atoms: C_1  and  C_2
REMARK    2  A    between atoms: C_3  and  N_15
REMARK    3  A    between atoms: N_6  and  C_9
REMARK    4  A    between atoms: N_7  and  C_8
REMARK    5  A    between atoms: C_16  and  C_18
REMARK    6  A    between atoms: C_18  and  S_19
REMARK    7  A    between atoms: S_19  and  C_20
REMARK    8  A    between atoms: C_23  and  C_26
REMARK    9  A    between atoms: N_24  and  C_25
REMARK   10  A    between atoms: C_29  and  C_32
REMARK   11  A    between atoms: C_32  and  C_33
REMARK   12  A    between atoms: C_32  and  C_34
REMARK   13  A    between atoms: C_32  and  C_35
REMARK                            x       y       z     vdW  Elec       q    Type
REMARK                         _______ _______ _______ _____ _____    ______ ____
ROOT
ATOM      1  N   UNL     1      -1.224  -0.891   3.402  0.00  0.00    -0.279 N 
ATOM      2  C   UNL     1      -1.240  -1.405   4.648  0.00  0.00    +0.228 C 
ATOM      3  O   UNL     1      -1.321  -0.667   5.607  0.00  0.00    -0.275 OA
ATOM      4  H   UNL     1      -1.223  -1.483   2.633  0.00  0.00    +0.155 HD
ENDROOT
BRANCH   1   7
ATOM      5  C   UNL     1       0.921   0.637   1.827  0.00  0.00    +0.067 C 
ATOM      6  C   UNL     1      -0.282   1.212   2.530  0.00  0.00    +0.059 A 
ATOM      7  C   UNL     1      -1.208   0.505   3.216  0.00  0.00    +0.121 A 
ATOM      8  C   UNL     1      -2.190   1.461   3.730  0.00  0.00    +0.293 A 
ATOM      9  O   UNL     1      -3.175   1.200   4.397  0.00  0.00    -0.264 OA
ATOM     10  N   UNL     1      -1.796   2.686   3.323  0.00  0.00    -0.216 N 
ATOM     11  N   UNL     1      -0.616   2.540   2.586  0.00  0.00    -0.282 N 
ATOM     12  C   UNL     1       0.141   3.632   1.969  0.00  0.00    +0.171 C 
BRANCH  10  13
ATOM     13  C   UNL     1      -2.451   3.891   3.595  0.00  0.00    +0.067 A 
ATOM     14  C   UNL     1      -2.871   4.178   4.888  0.00  0.00    +0.028 A 
ATOM     15  C   UNL     1      -3.511   5.372   5.154  0.00  0.00    +0.002 A 
ATOM     16  C   UNL     1      -3.745   6.276   4.134  0.00  0.00    +0.000 A 
ATOM     17  C   UNL     1      -3.333   5.991   2.845  0.00  0.00    +0.002 A 
ATOM     18  C   UNL     1      -2.687   4.801   2.573  0.00  0.00    +0.028 A 
ENDBRANCH  10  13
ENDBRANCH   1   7
BRANCH   2  19
ATOM     19  C   UNL     1      -1.157  -2.896   4.849  0.00  0.00    +0.173 C 
BRANCH  19  20
ATOM     20  S   UNL     1      -1.202  -3.270   6.619  0.00  0.00    -0.077 S 
BRANCH  20  21
ATOM     21  C   UNL     1      -1.093  -5.027   6.564  0.00  0.00    +0.192 A 
ATOM     22  N   UNL     1      -1.013  -5.770   5.483  0.00  0.00    -0.122 NA
ATOM     23  N   UNL     1      -0.944  -7.012   5.805  0.00  0.00    -0.128 NA
ATOM     24  C   UNL     1      -0.986  -7.140   7.111  0.00  0.00    +0.165 A 
ATOM     25  N   UNL     1      -1.083  -5.872   7.637  0.00  0.00    -0.305 N 
ATOM     26  C   UNL     1      -1.159  -5.506   9.053  0.00  0.00    +0.153 C 
BRANCH  24  27
ATOM     27  C   UNL     1      -0.939  -8.406   7.872  0.00  0.00    +0.019 A 
ATOM     28  C   UNL     1      -0.451  -9.568   7.270  0.00  0.00    +0.012 A 
ATOM     29  C   UNL     1      -0.404 -10.745   7.988  0.00  0.00    +0.005 A 
ATOM     30  C   UNL     1      -0.850 -10.779   9.297  0.00  0.00    -0.042 A 
ATOM     31  C   UNL     1      -1.340  -9.633   9.897  0.00  0.00    +0.005 A 
ATOM     32  C   UNL     1      -1.387  -8.447   9.193  0.00  0.00    +0.012 A 
BRANCH  30  33
ATOM     33  C   UNL     1      -0.802 -12.070  10.073  0.00  0.00    -0.013 C 
ATOM     34  C   UNL     1      -2.217 -12.455  10.510  0.00  0.00    +0.015 C 
ATOM     35  C   UNL     1      -0.223 -13.175   9.188  0.00  0.00    +0.015 C 
ATOM     36  C   UNL     1       0.082 -11.890  11.309  0.00  0.00    +0.015 C 
ENDBRANCH  30  33
ENDBRANCH  24  27
ENDBRANCH  20  21
ENDBRANCH  19  20
ENDBRANCH   2  19
TORSDOF 7
