REMARK  Name = ZINC09724211
REMARK  9 active torsions:
REMARK  status: ('A' for Active; 'I' for Inactive)
REMARK    1  A    between atoms: C_1  and  C_2
REMARK    2  A    between atoms: C_5  and  C_8
REMARK    3  A    between atoms: C_10  and  C_18
REMARK    4  A    between atoms: C_21  and  S_26
REMARK    5  A    between atoms: N_22  and  C_23
REMARK    6  A    between atoms: C_23  and  C_24
REMARK    7  A    between atoms: S_26  and  C_27
REMARK    8  A    between atoms: C_27  and  C_29
REMARK    9  A    between atoms: C_27  and  C_30
REMARK                            x       y       z     vdW  Elec       q    Type
REMARK                         _______ _______ _______ _____ _____    ______ ____
ROOT
ATOM      1  C   UNL     1      -3.801   3.199  -0.069  0.00  0.00    +0.166 A 
ATOM      2  N   UNL     1      -3.993   1.899  -0.114  0.00  0.00    -0.128 NA
ATOM      3  N   UNL     1      -5.236   1.633   0.075  0.00  0.00    -0.122 NA
ATOM      4  C   UNL     1      -5.915   2.748   0.252  0.00  0.00    +0.193 A 
ATOM      5  N   UNL     1      -5.027   3.780   0.173  0.00  0.00    -0.298 N 
ENDROOT
BRANCH   1   8
ATOM      6  C   UNL     1      -0.879   5.526   0.454  0.00  0.00    +0.072 A 
ATOM      7  C   UNL     1      -2.106   4.886   0.654  0.00  0.00    +0.040 A 
ATOM      8  C   UNL     1      -2.517   3.902  -0.239  0.00  0.00    +0.030 A 
ATOM      9  C   UNL     1      -1.621   3.591  -1.356  0.00  0.00    +0.011 A 
ATOM     10  C   UNL     1      -1.949   2.622  -2.308  0.00  0.00    +0.011 A 
ATOM     11  C   UNL     1      -1.083   2.361  -3.329  0.00  0.00    +0.001 A 
ATOM     12  C   UNL     1       0.118   3.055  -3.441  0.00  0.00    +0.002 A 
ATOM     13  C   UNL     1       0.465   4.009  -2.533  0.00  0.00    +0.028 A 
ATOM     14  C   UNL     1      -0.400   4.301  -1.464  0.00  0.00    +0.072 A 
ATOM     15  N   UNL     1      -0.087   5.232  -0.558  0.00  0.00    -0.247 NA
BRANCH   6  20
ATOM     16  C   UNL     1       0.773   9.591   4.184  0.00  0.00    +0.044 C 
ATOM     17  C   UNL     1       0.341   8.527   3.208  0.00  0.00    -0.050 A 
ATOM     18  C   UNL     1       1.155   8.202   2.138  0.00  0.00    +0.004 A 
ATOM     19  C   UNL     1       0.764   7.228   1.241  0.00  0.00    +0.010 A 
ATOM     20  C   UNL     1      -0.454   6.573   1.415  0.00  0.00    +0.000 A 
ATOM     21  C   UNL     1      -1.273   6.909   2.491  0.00  0.00    +0.010 A 
ATOM     22  C   UNL     1      -0.869   7.880   3.385  0.00  0.00    +0.004 A 
ENDBRANCH   6  20
ENDBRANCH   1   8
BRANCH   5  23
ATOM     23  C   UNL     1      -5.316   5.209   0.312  0.00  0.00    +0.152 C 
BRANCH  23  24
ATOM     24  C   UNL     1      -5.611   5.797  -1.044  0.00  0.00    -0.013 C 
ATOM     25  C   UNL     1      -6.733   6.442  -1.248  0.00  0.00    +0.005 C 
ENDBRANCH  23  24
ENDBRANCH   5  23
BRANCH   4  26
ATOM     26  S   UNL     1      -7.647   2.880   0.546  0.00  0.00    -0.073 S 
BRANCH  26  27
ATOM     27  C   UNL     1      -8.106   1.129   0.518  0.00  0.00    +0.137 C 
ATOM     28  C   UNL     1      -7.441   0.410   1.693  0.00  0.00    +0.029 C 
BRANCH  27  29
ATOM     29  C   UNL     1      -9.603   1.000   0.631  0.00  0.00    +0.236 C 
ATOM     30  O   UNL     1     -10.258   1.918   1.077  0.00  0.00    -0.274 OA
ATOM     31  N   UNL     1     -10.213  -0.135   0.237  0.00  0.00    -0.224 N 
ATOM     32  C   UNL     1     -11.660  -0.390   0.300  0.00  0.00    +0.136 C 
ATOM     33  C   UNL     1     -11.809  -1.815  -0.269  0.00  0.00    +0.125 C 
ATOM     34  N   UNL     1     -10.429  -2.214  -0.584  0.00  0.00    -0.297 N 
ATOM     35  C   UNL     1      -9.598  -1.212  -0.268  0.00  0.00    +0.309 C 
ATOM     36  O   UNL     1      -8.394  -1.274  -0.427  0.00  0.00    -0.252 OA
ATOM     37  H   UNL     1     -10.162  -3.067  -0.960  0.00  0.00    +0.150 HD
ENDBRANCH  27  29
ENDBRANCH  26  27
ENDBRANCH   4  26
TORSDOF 7
