REMARK  Name = ZINC18708470
REMARK  12 active torsions:
REMARK  status: ('A' for Active; 'I' for Inactive)
REMARK    1  A    between atoms: C_1  and  C_2
REMARK    2  A    between atoms: C_2  and  O_3
REMARK    3  A    between atoms: O_3  and  C_4
REMARK    4  A    between atoms: C_4  and  C_6
REMARK    5  A    between atoms: C_10  and  N_11
REMARK    6  A    between atoms: C_12  and  C_14
REMARK    7  A    between atoms: C_14  and  N_15
REMARK    8  A    between atoms: N_18  and  C_21
REMARK    9  A    between atoms: C_27  and  C_33
REMARK   10  A    between atoms: C_27  and  C_34
REMARK   11  A    between atoms: C_29  and  C_31
REMARK   12  A    between atoms: C_29  and  C_32
REMARK                            x       y       z     vdW  Elec       q    Type
REMARK                         _______ _______ _______ _____ _____    ______ ____
ROOT
ATOM      1  C   UNL     1      -2.883  -2.433  -0.001  0.00  0.00    +0.091 A 
ATOM      2  C   UNL     1      -3.603  -2.741  -1.217  0.00  0.00    -0.024 A 
ATOM      3  C   UNL     1      -4.830  -3.277  -1.025  0.00  0.00    -0.016 A 
ATOM      4  S   UNL     1      -4.999  -3.373   0.732  0.00  0.00    -0.079 S 
ATOM      5  C   UNL     1      -3.522  -2.722   1.199  0.00  0.00    +0.086 A 
ATOM      6  C   UNL     1      -5.798  -3.676  -2.088  0.00  0.00    -0.041 C 
ATOM      7  N   UNL     1      -5.212  -3.609  -3.426  0.00  0.00    +0.389 N 
ATOM      8  C   UNL     1      -3.757  -3.628  -3.502  0.00  0.00    -0.069 C 
ATOM      9  C   UNL     1      -3.120  -2.529  -2.643  0.00  0.00    +0.024 C 
ATOM     10  C   UNL     1      -3.199  -4.990  -3.084  0.00  0.00    -0.010 C 
ATOM     11  C   UNL     1      -3.346  -3.379  -4.966  0.00  0.00    -0.010 C 
ATOM     12  C   UNL     1      -6.315  -5.093  -1.805  0.00  0.00    -0.005 C 
ATOM     13  C   UNL     1      -7.002  -2.714  -2.030  0.00  0.00    -0.005 C 
ATOM     14  H   UNL     1      -5.576  -4.387  -3.980  0.00  0.00    -0.084 HD
ATOM     15  H   UNL     1      -5.550  -2.762  -3.887  0.00  0.00    -0.084 HD
ENDROOT
BRANCH   5  16
ATOM     16  N   UNL     1      -3.048  -2.518   2.485  0.00  0.00    -0.278 N 
ATOM     17  C   UNL     1      -3.807  -2.860   3.545  0.00  0.00    +0.232 C 
ATOM     18  O   UNL     1      -4.905  -3.345   3.373  0.00  0.00    -0.274 OA
ATOM     19  H   UNL     1      -2.170  -2.130   2.623  0.00  0.00    +0.155 HD
BRANCH  17  20
ATOM     20  C   UNL     1      -3.292  -2.639   4.944  0.00  0.00    +0.181 C 
BRANCH  20  21
ATOM     21  N   UNL     1      -4.299  -3.089   5.914  0.00  0.00    -0.291 NA
ATOM     22  C   UNL     1      -5.507  -2.257   5.843  0.00  0.00    +0.104 C 
ATOM     23  C   UNL     1      -6.595  -2.866   6.735  0.00  0.00    +0.120 C 
ATOM     24  N   UNL     1      -6.044  -3.049   8.086  0.00  0.00    -0.327 N 
ATOM     25  C   UNL     1      -4.761  -3.755   8.225  0.00  0.00    +0.120 C 
ATOM     26  C   UNL     1      -3.746  -3.112   7.275  0.00  0.00    +0.104 C 
BRANCH  24  27
ATOM     27  C   UNL     1      -6.720  -2.563   9.208  0.00  0.00    +0.030 A 
ATOM     28  C   UNL     1      -7.871  -1.801   9.051  0.00  0.00    +0.023 A 
ATOM     29  C   UNL     1      -8.537  -1.324  10.162  0.00  0.00    +0.002 A 
ATOM     30  C   UNL     1      -8.060  -1.603  11.430  0.00  0.00    +0.000 A 
ATOM     31  C   UNL     1      -6.915  -2.361  11.589  0.00  0.00    +0.002 A 
ATOM     32  C   UNL     1      -6.247  -2.847  10.482  0.00  0.00    +0.023 A 
ENDBRANCH  24  27
ENDBRANCH  20  21
ENDBRANCH  17  20
ENDBRANCH   5  16
BRANCH   1  33
ATOM     33  C   UNL     1      -1.543  -1.842  -0.020  0.00  0.00    +0.342 C 
ATOM     34  O   UNL     1      -0.562  -2.560  -0.033  0.00  0.00    -0.245 OA
BRANCH  33  35
ATOM     35  O   UNL     1      -1.398  -0.501  -0.023  0.00  0.00    -0.461 OA
BRANCH  35  37
ATOM     36  C   UNL     1      -0.098   1.537  -0.042  0.00  0.00    +0.048 C 
ATOM     37  C   UNL     1      -0.062   0.007  -0.042  0.00  0.00    +0.229 C 
ENDBRANCH  35  37
ENDBRANCH  33  35
ENDBRANCH   1  33
TORSDOF 7
