REMARK  Name = ZINC39697092
REMARK  7 active torsions:
REMARK  status: ('A' for Active; 'I' for Inactive)
REMARK    1  A    between atoms: C_1  and  C_2
REMARK    2  A    between atoms: C_5  and  C_8
REMARK    3  A    between atoms: C_8  and  N_9
REMARK    4  A    between atoms: C_10  and  C_12
REMARK    5  A    between atoms: C_23  and  C_25
REMARK    6  A    between atoms: C_30  and  S_31
REMARK    7  A    between atoms: S_31  and  C_32
REMARK                            x       y       z     vdW  Elec       q    Type
REMARK                         _______ _______ _______ _____ _____    ______ ____
ROOT
ATOM      1  C   UNL     1      -3.293  -6.692  -0.827  0.00  0.00    +0.100 C 
ATOM      2  C   UNL     1      -3.902  -6.263   0.526  0.00  0.00    +0.121 C 
ATOM      3  N   UNL     1      -4.686  -7.438   0.974  0.00  0.00    -0.296 N 
ATOM      4  C   UNL     1      -3.851  -8.603   0.599  0.00  0.00    +0.115 C 
ATOM      5  C   UNL     1      -3.260  -8.229  -0.775  0.00  0.00    -0.004 C 
ATOM      6  C   UNL     1      -1.824  -8.731  -0.886  0.00  0.00    -0.010 C 
ATOM      7  C   UNL     1      -1.822 -10.262  -0.891  0.00  0.00    -0.082 C 
ATOM      8  N   UNL     1      -2.621 -10.751  -2.022  0.00  0.00    +0.379 N 
ATOM      9  C   UNL     1      -4.021 -10.341  -1.859  0.00  0.00    -0.082 C 
ATOM     10  C   UNL     1      -4.116  -8.814  -1.895  0.00  0.00    -0.010 C 
ATOM     11  C   UNL     1      -5.888  -7.445   1.584  0.00  0.00    +0.249 C 
ATOM     12  O   UNL     1      -6.364  -8.492   1.978  0.00  0.00    -0.270 OA
ATOM     13  H   UNL     1      -2.257 -10.366  -2.881  0.00  0.00    -0.086 HD
ATOM     14  H   UNL     1      -2.568 -11.758  -2.059  0.00  0.00    -0.086 HD
ENDROOT
BRANCH  11  15
ATOM     15  C   UNL     1      -6.626  -6.183   1.773  0.00  0.00    +0.069 A 
ATOM     16  C   UNL     1      -5.943  -4.991   2.042  0.00  0.00    +0.017 A 
ATOM     17  C   UNL     1      -6.682  -3.834   2.211  0.00  0.00    +0.020 A 
ATOM     18  C   UNL     1      -8.062  -3.885   2.111  0.00  0.00    +0.112 A 
ATOM     19  N   UNL     1      -8.687  -5.017   1.857  0.00  0.00    -0.248 NA
ATOM     20  C   UNL     1      -8.029  -6.153   1.681  0.00  0.00    +0.114 A 
BRANCH  20  21
ATOM     21  S   UNL     1      -8.916  -7.636   1.337  0.00  0.00    -0.069 S 
BRANCH  21  22
ATOM     22  C   UNL     1     -10.608  -7.162   1.475  0.00  0.00    +0.014 A 
ATOM     23  C   UNL     1     -11.321  -6.790   0.343  0.00  0.00    +0.015 A 
ATOM     24  C   UNL     1     -12.647  -6.419   0.454  0.00  0.00    +0.001 A 
ATOM     25  C   UNL     1     -13.264  -6.419   1.692  0.00  0.00    +0.000 A 
ATOM     26  C   UNL     1     -12.557  -6.789   2.821  0.00  0.00    +0.001 A 
ATOM     27  C   UNL     1     -11.233  -7.167   2.716  0.00  0.00    +0.015 A 
ENDBRANCH  21  22
ENDBRANCH  20  21
ENDBRANCH  11  15
BRANCH   1  29
ATOM     28  N   UNL     1      -1.402  -5.878  -2.198  0.00  0.00    -0.309 N 
ATOM     29  C   UNL     1      -1.898  -6.142  -0.973  0.00  0.00    +0.219 C 
ATOM     30  O   UNL     1      -1.220  -5.938   0.012  0.00  0.00    -0.275 OA
ATOM     31  H   UNL     1      -1.944  -6.042  -2.986  0.00  0.00    +0.149 HD
BRANCH  28  32
ATOM     32  C   UNL     1      -0.045  -5.343  -2.340  0.00  0.00    +0.161 C 
BRANCH  32  37
ATOM     33  C   UNL     1       1.104  -4.515  -7.848  0.00  0.00    +0.067 C 
ATOM     34  C   UNL     1       0.795  -4.721  -6.388  0.00  0.00    +0.056 A 
ATOM     35  C   UNL     1       0.990  -5.962  -5.808  0.00  0.00    +0.134 A 
ATOM     36  N   UNL     1       0.720  -6.143  -4.527  0.00  0.00    -0.255 NA
ATOM     37  C   UNL     1       0.264  -5.138  -3.800  0.00  0.00    +0.076 A 
ATOM     38  C   UNL     1       0.069  -3.897  -4.380  0.00  0.00    +0.136 A 
ATOM     39  N   UNL     1       0.344  -3.715  -5.660  0.00  0.00    -0.257 NA
ENDBRANCH  32  37
ENDBRANCH  28  32
ENDBRANCH   1  29
TORSDOF 6
