REMARK  Name = ZINC39697079
REMARK  7 active torsions:
REMARK  status: ('A' for Active; 'I' for Inactive)
REMARK    1  A    between atoms: C_1  and  C_2
REMARK    2  A    between atoms: C_5  and  C_8
REMARK    3  A    between atoms: C_8  and  N_9
REMARK    4  A    between atoms: C_10  and  C_12
REMARK    5  A    between atoms: C_23  and  C_25
REMARK    6  A    between atoms: C_27  and  O_32
REMARK    7  A    between atoms: O_32  and  C_33
REMARK                            x       y       z     vdW  Elec       q    Type
REMARK                         _______ _______ _______ _____ _____    ______ ____
ROOT
ATOM      1  C   UNL     1      -2.310  -6.688  -0.410  0.00  0.00    +0.100 C 
ATOM      2  C   UNL     1      -3.149  -6.056  -1.543  0.00  0.00    +0.121 C 
ATOM      3  N   UNL     1      -3.184  -7.090  -2.604  0.00  0.00    -0.296 N 
ATOM      4  C   UNL     1      -3.332  -8.369  -1.869  0.00  0.00    +0.115 C 
ATOM      5  C   UNL     1      -2.436  -8.206  -0.625  0.00  0.00    -0.004 C 
ATOM      6  C   UNL     1      -3.092  -8.859   0.588  0.00  0.00    -0.010 C 
ATOM      7  C   UNL     1      -3.153 -10.374   0.376  0.00  0.00    -0.082 C 
ATOM      8  N   UNL     1      -1.795 -10.899   0.187  0.00  0.00    +0.379 N 
ATOM      9  C   UNL     1      -1.205 -10.336  -1.033  0.00  0.00    -0.082 C 
ATOM     10  C   UNL     1      -1.062  -8.819  -0.881  0.00  0.00    -0.010 C 
ATOM     11  C   UNL     1      -3.100  -6.909  -3.937  0.00  0.00    +0.248 C 
ATOM     12  O   UNL     1      -3.241  -7.853  -4.689  0.00  0.00    -0.270 OA
ATOM     13  H   UNL     1      -1.225 -10.647   0.981  0.00  0.00    -0.086 HD
ATOM     14  H   UNL     1      -1.832 -11.904   0.109  0.00  0.00    -0.086 HD
ENDROOT
BRANCH  11  15
ATOM     15  C   UNL     1      -2.836  -5.561  -4.485  0.00  0.00    +0.054 A 
ATOM     16  C   UNL     1      -3.377  -4.435  -3.863  0.00  0.00    +0.059 A 
ATOM     17  C   UNL     1      -3.126  -3.176  -4.381  0.00  0.00    +0.121 A 
ATOM     18  C   UNL     1      -2.337  -3.036  -5.516  0.00  0.00    +0.047 A 
ATOM     19  C   UNL     1      -1.801  -4.150  -6.133  0.00  0.00    +0.019 A 
ATOM     20  C   UNL     1      -2.040  -5.410  -5.622  0.00  0.00    +0.030 A 
ATOM     21 BR   UNL     1      -1.298  -6.931  -6.466  0.00  0.00    -0.050 Br
BRANCH  17  22
ATOM     22  O   UNL     1      -3.651  -2.077  -3.779  0.00  0.00    -0.495 OA
ATOM     23  C   UNL     1      -3.351  -0.809  -4.367  0.00  0.00    +0.277 C 
ENDBRANCH  17  22
ENDBRANCH  11  15
BRANCH   1  25
ATOM     24  N   UNL     1      -0.094  -6.210   0.580  0.00  0.00    -0.309 N 
ATOM     25  C   UNL     1      -0.870  -6.260  -0.521  0.00  0.00    +0.219 C 
ATOM     26  O   UNL     1      -0.408  -5.961  -1.602  0.00  0.00    -0.275 OA
ATOM     27  H   UNL     1      -0.464  -6.449   1.444  0.00  0.00    +0.149 HD
BRANCH  24  28
ATOM     28  C   UNL     1       1.306  -5.793   0.471  0.00  0.00    +0.161 C 
BRANCH  28  33
ATOM     29  C   UNL     1       3.739  -5.953   5.610  0.00  0.00    +0.067 C 
ATOM     30  C   UNL     1       3.099  -5.924   4.246  0.00  0.00    +0.056 A 
ATOM     31  C   UNL     1       2.392  -4.807   3.837  0.00  0.00    +0.134 A 
ATOM     32  N   UNL     1       1.831  -4.781   2.641  0.00  0.00    -0.255 NA
ATOM     33  C   UNL     1       1.946  -5.822   1.835  0.00  0.00    +0.076 A 
ATOM     34  C   UNL     1       2.653  -6.939   2.244  0.00  0.00    +0.136 A 
ATOM     35  N   UNL     1       3.219  -6.962   3.438  0.00  0.00    -0.257 NA
ENDBRANCH  28  33
ENDBRANCH  24  28
ENDBRANCH   1  25
TORSDOF 5
