REMARK  Name = ZINC42190810
REMARK  3 active torsions:
REMARK  status: ('A' for Active; 'I' for Inactive)
REMARK    1  A    between atoms: C_8  and  O_23
REMARK    2  A    between atoms: C_10  and  N_12
REMARK    3  A    between atoms: C_13  and  C_15
REMARK                            x       y       z     vdW  Elec       q    Type
REMARK                         _______ _______ _______ _____ _____    ______ ____
ROOT
ATOM      1  N   UNL     1       4.147  -1.058   1.302  0.00  0.00    -0.301 N 
ATOM      2  C   UNL     1       5.090  -0.183   1.704  0.00  0.00    +0.262 C 
ATOM      3  O   UNL     1       5.457   0.703   0.955  0.00  0.00    -0.269 OA
ATOM      4  H   UNL     1       3.854  -1.764   1.899  0.00  0.00    +0.150 HD
ENDROOT
BRANCH   1  13
ATOM      5  C   UNL     1      -0.017   1.377   0.010  0.00  0.00    +0.000 A 
ATOM      6  C   UNL     1       1.172   2.083   0.002  0.00  0.00    +0.000 A 
ATOM      7  C   UNL     1       2.376   1.406  -0.013  0.00  0.00    +0.006 A 
ATOM      8  C   UNL     1       2.396   0.021  -0.021  0.00  0.00    -0.021 A 
ATOM      9  C   UNL     1       1.208  -0.685  -0.013  0.00  0.00    -0.040 A 
ATOM     10  C   UNL     1       0.002  -0.004   0.002  0.00  0.00    +0.004 A 
ATOM     11  C   UNL     1       1.496  -2.171  -0.025  0.00  0.00    +0.069 C 
ATOM     12  C   UNL     1       2.966  -2.294  -0.480  0.00  0.00    +0.143 C 
ATOM     13  C   UNL     1       3.564  -0.942  -0.037  0.00  0.00    +0.133 C 
BRANCH  12  14
ATOM     14  O   UNL     1       3.613  -3.382   0.184  0.00  0.00    -0.389 OA
ATOM     15  H   UNL     1       3.217  -4.245   0.002  0.00  0.00    +0.210 HD
ENDBRANCH  12  14
ENDBRANCH   1  13
BRANCH   2  16
ATOM     16  C   UNL     1       5.673  -0.299   3.045  0.00  0.00    +0.122 A 
ATOM     17  C   UNL     1       5.367  -1.231   3.974  0.00  0.00    +0.118 A 
ATOM     18  N   UNL     1       6.134  -0.987   5.083  0.00  0.00    -0.312 N 
ATOM     19  H   UNL     1       6.121  -1.503   5.904  0.00  0.00    +0.170 HD
ATOM     20  C   UNL     1       6.910   0.087   4.843  0.00  0.00    +0.325 A 
ATOM     21  O   UNL     1       7.710   0.574   5.621  0.00  0.00    -0.247 OA
ATOM     22  N   UNL     1       6.654   0.531   3.597  0.00  0.00    -0.303 N 
ATOM     23  H   UNL     1       7.073   1.290   3.162  0.00  0.00    +0.171 HD
ENDBRANCH   2  16
TORSDOF 3
