REMARK  Name = ZINC35790585
REMARK  8 active torsions:
REMARK  status: ('A' for Active; 'I' for Inactive)
REMARK    1  A    between atoms: C_1  and  C_2
REMARK    2  A    between atoms: C_2  and  O_3
REMARK    3  A    between atoms: O_3  and  C_4
REMARK    4  A    between atoms: C_7  and  C_10
REMARK    5  A    between atoms: N_20  and  C_21
REMARK    6  A    between atoms: C_21  and  C_22
REMARK    7  A    between atoms: C_26  and  O_28
REMARK    8  A    between atoms: O_28  and  C_29
REMARK                            x       y       z     vdW  Elec       q    Type
REMARK                         _______ _______ _______ _____ _____    ______ ____
ROOT
ATOM      1  C   UNL     1      -2.128  -6.273  -0.151  0.00  0.00    +0.011 C 
ATOM      2  C   UNL     1      -2.661  -6.754  -1.479  0.00  0.00    +0.009 A 
ATOM      3  C   UNL     1      -2.410  -6.205  -2.683  0.00  0.00    +0.021 A 
ATOM      4  C   UNL     1      -3.091  -6.975  -3.648  0.00  0.00    +0.019 A 
ATOM      5  C   UNL     1      -3.735  -7.964  -2.995  0.00  0.00    +0.086 A 
ATOM      6  N   UNL     1      -3.483  -7.829  -1.663  0.00  0.00    -0.352 N 
ATOM      7  C   UNL     1      -4.008  -8.677  -0.587  0.00  0.00    +0.119 C 
ATOM      8  C   UNL     1      -2.864  -9.037   0.365  0.00  0.00    +0.003 C 
ATOM      9  C   UNL     1      -2.735  -7.967   1.442  0.00  0.00    -0.075 C 
ATOM     10  N   UNL     1      -3.070  -6.643   0.913  0.00  0.00    +0.391 N 
ATOM     11  H   UNL     1      -4.008  -6.660   0.540  0.00  0.00    -0.080 HD
ENDROOT
BRANCH   1  15
ATOM     12  C   UNL     1      -1.683  -2.023  -0.248  0.00  0.00    +0.121 A 
ATOM     13  C   UNL     1      -2.937  -2.595  -0.413  0.00  0.00    +0.046 A 
ATOM     14  C   UNL     1      -3.078  -3.969  -0.381  0.00  0.00    +0.006 A 
ATOM     15  C   UNL     1      -1.971  -4.774  -0.186  0.00  0.00    -0.055 A 
ATOM     16  C   UNL     1      -0.721  -4.207  -0.021  0.00  0.00    +0.006 A 
ATOM     17  C   UNL     1      -0.574  -2.834  -0.058  0.00  0.00    +0.046 A 
BRANCH  12  18
ATOM     18  O   UNL     1      -1.542  -0.672  -0.279  0.00  0.00    -0.492 OA
BRANCH  18  20
ATOM     19  C   UNL     1      -2.373   1.588  -0.484  0.00  0.00    +0.048 C 
ATOM     20  C   UNL     1      -2.728   0.100  -0.479  0.00  0.00    +0.225 C 
ENDBRANCH  18  20
ENDBRANCH  12  18
ENDBRANCH   1  15
BRANCH  10  21
ATOM     21  C   UNL     1      -2.997  -5.652   1.996  0.00  0.00    -0.042 C 
BRANCH  21  22
ATOM     22  C   UNL     1      -4.045  -5.963   3.033  0.00  0.00    -0.060 A 
ATOM     23  C   UNL     1      -5.310  -5.415   2.922  0.00  0.00    +0.002 A 
ATOM     24  C   UNL     1      -6.274  -5.698   3.872  0.00  0.00    +0.004 A 
ATOM     25  C   UNL     1      -5.976  -6.529   4.934  0.00  0.00    +0.046 A 
ATOM     26  C   UNL     1      -4.708  -7.080   5.048  0.00  0.00    +0.129 A 
ATOM     27  C   UNL     1      -3.743  -6.799   4.090  0.00  0.00    +0.048 A 
BRANCH  26  28
ATOM     28  O   UNL     1      -4.412  -7.898   6.092  0.00  0.00    -0.456 OA
BRANCH  28  29
ATOM     29  C   UNL     1      -3.688  -7.383   7.120  0.00  0.00    +0.128 A 
ATOM     30  C   UNL     1      -3.210  -6.082   7.051  0.00  0.00    +0.046 A 
ATOM     31  C   UNL     1      -2.475  -5.561   8.098  0.00  0.00    +0.004 A 
ATOM     32  C   UNL     1      -2.215  -6.334   9.214  0.00  0.00    +0.000 A 
ATOM     33  C   UNL     1      -2.690  -7.631   9.286  0.00  0.00    +0.004 A 
ATOM     34  C   UNL     1      -3.431  -8.155   8.244  0.00  0.00    +0.046 A 
ENDBRANCH  28  29
ENDBRANCH  26  28
ENDBRANCH  21  22
ENDBRANCH  10  21
TORSDOF 7
