REMARK  Name = ZINC64215426
REMARK  7 active torsions:
REMARK  status: ('A' for Active; 'I' for Inactive)
REMARK    1  A    between atoms: C_1  and  S_2
REMARK    2  A    between atoms: S_2  and  C_3
REMARK    3  A    between atoms: C_3  and  C_4
REMARK    4  A    between atoms: C_4  and  C_5
REMARK    5  A    between atoms: C_5  and  C_7
REMARK    6  A    between atoms: C_5  and  N_24
REMARK    7  A    between atoms: C_12  and  C_15
REMARK                            x       y       z     vdW  Elec       q    Type
REMARK                         _______ _______ _______ _____ _____    ______ ____
ROOT
ATOM      1  C   UNL     1      -3.482  -3.878  -0.109  0.00  0.00    +0.240 C 
ATOM      2  O   UNL     1      -4.027  -4.519   0.764  0.00  0.00    -0.273 OA
ATOM      3  N   UNL     1      -2.989  -4.503  -1.197  0.00  0.00    -0.263 N 
ATOM      4  C   UNL     1      -3.105  -5.880  -1.317  0.00  0.00    +0.165 A 
ATOM      5  N   UNL     1      -2.688  -6.662  -2.289  0.00  0.00    -0.225 NA
ATOM      6  C   UNL     1      -2.912  -7.979  -2.193  0.00  0.00    +0.079 A 
ATOM      7  C   UNL     1      -3.575  -8.452  -1.068  0.00  0.00    +0.076 A 
ATOM      8  S   UNL     1      -3.852  -7.043  -0.190  0.00  0.00    -0.060 S 
ATOM      9  H   UNL     1      -2.554  -3.990  -1.895  0.00  0.00    +0.157 HD
ENDROOT
BRANCH   6  10
ATOM     10  C   UNL     1      -2.485  -8.862  -3.207  0.00  0.00    +0.007 C 
ATOM     11  C   UNL     1      -1.809  -8.534  -4.379  0.00  0.00    +0.005 A 
ATOM     12  C   UNL     1      -1.357  -7.304  -4.907  0.00  0.00    +0.010 A 
ATOM     13  C   UNL     1      -0.711  -7.281  -6.101  0.00  0.00    +0.001 A 
ATOM     14  C   UNL     1      -0.477  -8.450  -6.829  0.00  0.00    +0.002 A 
ATOM     15  C   UNL     1      -0.883  -9.664  -6.383  0.00  0.00    +0.026 A 
ATOM     16  C   UNL     1      -1.565  -9.769  -5.143  0.00  0.00    +0.043 A 
ATOM     17  N   UNL     1      -2.053 -10.812  -4.502  0.00  0.00    -0.380 N 
ATOM     18  C   UNL     1      -2.661 -10.364  -3.245  0.00  0.00    +0.151 C 
ATOM     19  H   UNL     1      -2.012 -11.731  -4.810  0.00  0.00    +0.160 HD
ENDBRANCH   6  10
BRANCH   1  20
ATOM     20  C   UNL     1      -3.356  -2.382   0.021  0.00  0.00    +0.171 C 
BRANCH  20  21
ATOM     21  N   UNL     1      -3.966  -1.949   1.281  0.00  0.00    -0.222 N 
ATOM     22  C   UNL     1      -3.565  -2.355   2.500  0.00  0.00    +0.254 C 
ATOM     23  O   UNL     1      -2.656  -3.128   2.726  0.00  0.00    -0.270 OA
ATOM     24  C   UNL     1      -4.417  -1.704   3.517  0.00  0.00    +0.049 A 
ATOM     25  C   UNL     1      -4.471  -1.741   4.901  0.00  0.00    +0.014 A 
ATOM     26  C   UNL     1      -5.421  -0.987   5.572  0.00  0.00    +0.001 A 
ATOM     27  C   UNL     1      -6.314  -0.199   4.869  0.00  0.00    +0.001 A 
ATOM     28  C   UNL     1      -6.272  -0.153   3.485  0.00  0.00    +0.014 A 
ATOM     29  C   UNL     1      -5.328  -0.901   2.801  0.00  0.00    +0.049 A 
ATOM     30  C   UNL     1      -4.995  -1.088   1.373  0.00  0.00    +0.254 C 
ATOM     31  O   UNL     1      -5.558  -0.555   0.438  0.00  0.00    -0.270 OA
ENDBRANCH  20  21
BRANCH  20  32
ATOM     32  C   UNL     1      -1.877  -1.992   0.009  0.00  0.00    +0.043 C 
BRANCH  32  33
ATOM     33  C   UNL     1      -1.752  -0.467   0.016  0.00  0.00    +0.071 C 
BRANCH  33  35
ATOM     34  C   UNL     1      -0.022   1.810   0.012  0.00  0.00    +0.084 C 
ATOM     35  S   UNL     1       0.002  -0.004   0.002  0.00  0.00    -0.164 S 
ENDBRANCH  33  35
ENDBRANCH  32  33
ENDBRANCH  20  32
ENDBRANCH   1  20
TORSDOF 6
