REMARK  Name = ZINC17247536
REMARK  4 active torsions:
REMARK  status: ('A' for Active; 'I' for Inactive)
REMARK    1  A    between atoms: C_1  and  C_2
REMARK    2  A    between atoms: C_2  and  C_28
REMARK    3  A    between atoms: C_6  and  C_20
REMARK    4  A    between atoms: N_11  and  N_16
REMARK                            x       y       z     vdW  Elec       q    Type
REMARK                         _______ _______ _______ _____ _____    ______ ____
ROOT
ATOM      1  C   UNL     1      -4.912   1.418  -0.934  0.00  0.00    +0.012 C 
ATOM      2  C   UNL     1      -4.773   1.648   0.572  0.00  0.00    -0.021 C 
ATOM      3  C   UNL     1      -3.438   2.335   0.866  0.00  0.00    +0.081 C 
ATOM      4  C   UNL     1      -2.301   1.452   0.407  0.00  0.00    +0.115 C 
ATOM      5  C   UNL     1      -2.421   0.112   0.433  0.00  0.00    +0.046 C 
ATOM      6  C   UNL     1      -1.279  -0.769  -0.011  0.00  0.00    +0.101 C 
ATOM      7  C   UNL     1       0.004   0.010  -0.023  0.00  0.00    +0.068 A 
ATOM      8  C   UNL     1       1.247  -0.664  -0.030  0.00  0.00    +0.133 A 
ATOM      9  N   UNL     1       1.302  -1.980  -0.027  0.00  0.00    -0.383 N 
ATOM     10  N   UNL     1       2.401   0.095  -0.041  0.00  0.00    -0.231 N 
ATOM     11  C   UNL     1       2.306   1.449  -0.039  0.00  0.00    +0.224 A 
ATOM     12  N   UNL     1       1.152   2.052  -0.031  0.00  0.00    -0.201 NA
ATOM     13  C   UNL     1      -0.009   1.372  -0.026  0.00  0.00    +0.229 A 
ATOM     14  O   UNL     1      -1.176   2.048  -0.028  0.00  0.00    -0.441 OA
ATOM     15  C   UNL     1      -3.607  -0.509   0.870  0.00  0.00    +0.164 C 
ATOM     16  O   UNL     1      -3.670  -1.722   0.896  0.00  0.00    -0.292 OA
ATOM     17  C   UNL     1      -4.798   0.302   1.303  0.00  0.00    +0.086 C 
ATOM     18  C   UNL     1      -5.926   2.523   1.067  0.00  0.00    +0.012 C 
ATOM     19  H   UNL     1       2.277  -2.489  -0.033  0.00  0.00    +0.157 HD
ATOM     20  H   UNL     1       0.374  -2.569  -0.018  0.00  0.00    +0.157 HD
ENDROOT
BRANCH  10  21
ATOM     21  N   UNL     1       3.656  -0.526  -0.053  0.00  0.00    -0.204 N 
ATOM     22  C   UNL     1       4.735   0.123   0.429  0.00  0.00    +0.315 C 
ATOM     23  O   UNL     1       4.602   1.206   0.967  0.00  0.00    -0.251 OA
ATOM     24  N   UNL     1       5.960  -0.427   0.315  0.00  0.00    -0.312 N 
ATOM     25  H   UNL     1       3.762  -1.544  -0.455  0.00  0.00    +0.177 HD
ATOM     26  H   UNL     1       6.840   0.103   0.708  0.00  0.00    +0.147 HD
ATOM     27  H   UNL     1       6.080  -1.406  -0.172  0.00  0.00    +0.147 HD
ENDBRANCH  10  21
BRANCH   6  28
ATOM     28  C   UNL     1      -1.560  -1.289  -1.398  0.00  0.00    +0.002 A 
ATOM     29  C   UNL     1      -1.692  -2.571  -1.818  0.00  0.00    +0.012 A 
ATOM     30  C   UNL     1      -1.956  -2.814  -3.153  0.00  0.00    +0.008 A 
ATOM     31  C   UNL     1      -2.064  -1.764  -4.004  0.00  0.00    +0.045 A 
ATOM     32  S   UNL     1      -1.798  -0.376  -2.913  0.00  0.00    -0.101 S 
ENDBRANCH   6  28
TORSDOF 2
