REMARK  Name = ZINC44031648
REMARK  12 active torsions:
REMARK  status: ('A' for Active; 'I' for Inactive)
REMARK    1  A    between atoms: C_1  and  C_2
REMARK    2  A    between atoms: C_2  and  C_3
REMARK    3  A    between atoms: C_2  and  C_4
REMARK    4  A    between atoms: C_4  and  C_5
REMARK    5  A    between atoms: N_7  and  C_8
REMARK    6  A    between atoms: C_11  and  N_14
REMARK    7  A    between atoms: N_17  and  C_18
REMARK    8  A    between atoms: C_18  and  C_19
REMARK    9  A    between atoms: C_19  and  C_21
REMARK   10  A    between atoms: C_19  and  N_26
REMARK   11  A    between atoms: N_26  and  C_27
REMARK   12  A    between atoms: N_26  and  C_28
REMARK                            x       y       z     vdW  Elec       q    Type
REMARK                         _______ _______ _______ _____ _____    ______ ____
ROOT
ATOM      1  N   UNL     1       8.438   0.965  -2.351  0.00  0.00    -0.269 N 
ATOM      2  C   UNL     1       9.109   0.844  -3.513  0.00  0.00    +0.304 C 
ATOM      3  O   UNL     1       8.583   0.302  -4.466  0.00  0.00    -0.253 OA
ATOM      4  N   UNL     1      10.364   1.324  -3.619  0.00  0.00    -0.300 N 
ATOM      5  H   UNL     1       8.880   1.335  -1.571  0.00  0.00    +0.156 HD
ATOM      6  H   UNL     1      10.784   1.756  -2.859  0.00  0.00    +0.150 HD
ENDROOT
BRANCH   1  10
ATOM      7  C   UNL     1       4.457  -0.253  -2.108  0.00  0.00    +0.033 A 
ATOM      8  C   UNL     1       4.889   0.853  -1.389  0.00  0.00    +0.025 A 
ATOM      9  C   UNL     1       6.207   1.256  -1.469  0.00  0.00    +0.025 A 
ATOM     10  C   UNL     1       7.100   0.555  -2.269  0.00  0.00    +0.035 A 
ATOM     11  C   UNL     1       6.667  -0.550  -2.989  0.00  0.00    +0.025 A 
ATOM     12  C   UNL     1       5.351  -0.957  -2.903  0.00  0.00    +0.025 A 
BRANCH   7  15
ATOM     13  C   UNL     1       2.139   0.256  -1.910  0.00  0.00    +0.217 C 
ATOM     14  O   UNL     1       2.420   1.430  -1.790  0.00  0.00    -0.275 OA
ATOM     15  N   UNL     1       3.119  -0.662  -2.027  0.00  0.00    -0.285 N 
ATOM     16  H   UNL     1       2.898  -1.606  -2.054  0.00  0.00    +0.155 HD
BRANCH  13  17
ATOM     17  C   UNL     1       0.696  -0.175  -1.930  0.00  0.00    +0.099 C 
BRANCH  17  19
ATOM     18  C   UNL     1      -0.037   1.959  -3.003  0.00  0.00    +0.008 C 
ATOM     19  C   UNL     1      -0.205   1.052  -1.782  0.00  0.00    -0.008 C 
ATOM     20  C   UNL     1      -1.665   0.604  -1.677  0.00  0.00    +0.008 C 
ENDBRANCH  17  19
ENDBRANCH  13  17
ENDBRANCH   7  15
ENDBRANCH   1  10
BRANCH   4  21
ATOM     21  C   UNL     1      11.094   1.193  -4.882  0.00  0.00    +0.095 C 
BRANCH  21  22
ATOM     22  C   UNL     1      12.526   1.702  -4.699  0.00  0.00    -0.014 C 
BRANCH  22  23
ATOM     23  C   UNL     1      13.254   0.811  -3.725  0.00  0.00    -0.022 A 
ATOM     24  C   UNL     1      13.498   1.008  -2.407  0.00  0.00    +0.009 A 
ATOM     25  C   UNL     1      14.194   0.044  -1.702  0.00  0.00    +0.008 A 
ATOM     26  C   UNL     1      14.612  -1.071  -2.351  0.00  0.00    +0.045 A 
ATOM     27  S   UNL     1      14.013  -0.780  -4.008  0.00  0.00    -0.103 S 
ENDBRANCH  22  23
BRANCH  22  28
ATOM     28  N   UNL     1      13.221   1.684  -5.993  0.00  0.00    +0.382 N 
ATOM     29  C   UNL     1      12.584   2.645  -6.904  0.00  0.00    -0.096 C 
ATOM     30  C   UNL     1      14.629   2.054  -5.798  0.00  0.00    -0.096 C 
ATOM     31  H   UNL     1      13.169   0.758  -6.391  0.00  0.00    -0.082 HD
ENDBRANCH  22  28
ENDBRANCH  21  22
ENDBRANCH   4  21
TORSDOF 8
