REMARK  Name = ZINC02316271
REMARK  8 active torsions:
REMARK  status: ('A' for Active; 'I' for Inactive)
REMARK    1  A    between atoms: C_1  and  O_2
REMARK    2  A    between atoms: O_2  and  C_3
REMARK    3  A    between atoms: C_3  and  C_5
REMARK    4  A    between atoms: C_9  and  N_10
REMARK    5  A    between atoms: N_10  and  C_11
REMARK    6  A    between atoms: C_11  and  N_13
REMARK    7  A    between atoms: C_14  and  C_16
REMARK    8  A    between atoms: C_16  and  C_17
REMARK                            x       y       z     vdW  Elec       q    Type
REMARK                         _______ _______ _______ _____ _____    ______ ____
ROOT
ATOM      1  C   UNL     1      -1.748   3.055  -2.791  0.00  0.00    +0.091 A 
ATOM      2  C   UNL     1      -1.039   2.852  -1.550  0.00  0.00    -0.021 A 
ATOM      3  C   UNL     1      -0.740   1.584  -1.214  0.00  0.00    -0.004 A 
ATOM      4  S   UNL     1      -1.411   0.633  -2.561  0.00  0.00    -0.077 S 
ATOM      5  C   UNL     1      -2.060   1.916  -3.526  0.00  0.00    +0.086 A 
ATOM      6  C   UNL     1      -0.013   1.086   0.008  0.00  0.00    +0.043 C 
ATOM      7  C   UNL     1      -0.727   1.578   1.268  0.00  0.00    +0.005 C 
ATOM      8  C   UNL     1       0.110   1.220   2.499  0.00  0.00    +0.000 C 
ATOM      9  C   UNL     1       0.421   2.491   3.293  0.00  0.00    +0.000 C 
ATOM     10  C   UNL     1       1.539   3.268   2.595  0.00  0.00    +0.000 C 
ATOM     11  C   UNL     1       1.026   4.655   2.202  0.00  0.00    +0.000 C 
ATOM     12  C   UNL     1       1.965   5.270   1.162  0.00  0.00    +0.000 C 
ATOM     13  C   UNL     1       1.175   5.616  -0.101  0.00  0.00    +0.000 C 
ATOM     14  C   UNL     1       0.831   4.329  -0.854  0.00  0.00    +0.005 C 
ATOM     15  C   UNL     1      -0.654   4.011  -0.669  0.00  0.00    +0.037 C 
ENDROOT
BRANCH   1  16
ATOM     16  C   UNL     1      -2.119   4.393  -3.253  0.00  0.00    +0.342 C 
ATOM     17  O   UNL     1      -1.356   5.028  -3.957  0.00  0.00    -0.245 OA
BRANCH  16  19
ATOM     18  C   UNL     1      -3.610   6.255  -3.394  0.00  0.00    +0.280 C 
ATOM     19  O   UNL     1      -3.308   4.923  -2.899  0.00  0.00    -0.464 OA
ENDBRANCH  16  19
ENDBRANCH   1  16
BRANCH   5  20
ATOM     20  N   UNL     1      -2.727   1.830  -4.737  0.00  0.00    -0.290 N 
ATOM     21  H   UNL     1      -3.041   2.636  -5.177  0.00  0.00    +0.154 HD
BRANCH  20  22
ATOM     22  C   UNL     1      -2.940   0.626  -5.305  0.00  0.00    +0.141 C 
ATOM     23  S   UNL     1      -2.386  -0.796  -4.529  0.00  0.00    -0.018 S 
BRANCH  22  24
ATOM     24  N   UNL     1      -3.589   0.542  -6.483  0.00  0.00    -0.267 N 
ATOM     25  C   UNL     1      -3.802  -0.662  -7.051  0.00  0.00    +0.223 C 
ATOM     26  O   UNL     1      -3.410  -1.669  -6.501  0.00  0.00    -0.275 OA
ATOM     27  H   UNL     1      -3.903   1.348  -6.922  0.00  0.00    +0.157 HD
BRANCH  25  28
ATOM     28  C   UNL     1      -4.528  -0.756  -8.368  0.00  0.00    +0.138 C 
BRANCH  28  29
ATOM     29  C   UNL     1      -4.634  -2.201  -8.781  0.00  0.00    -0.001 A 
ATOM     30  C   UNL     1      -5.609  -3.100  -8.499  0.00  0.00    +0.011 A 
ATOM     31  C   UNL     1      -5.497  -4.386  -8.993  0.00  0.00    +0.008 A 
ATOM     32  C   UNL     1      -4.412  -4.714  -9.736  0.00  0.00    +0.045 A 
ATOM     33  S   UNL     1      -3.505  -3.176  -9.761  0.00  0.00    -0.101 S 
ENDBRANCH  28  29
ENDBRANCH  25  28
ENDBRANCH  22  24
ENDBRANCH  20  22
ENDBRANCH   5  20
TORSDOF 7
