REMARK  Name = ZINC36446961
REMARK  7 active torsions:
REMARK  status: ('A' for Active; 'I' for Inactive)
REMARK    1  A    between atoms: C_1  and  N_2
REMARK    2  A    between atoms: N_2  and  C_3
REMARK    3  A    between atoms: N_2  and  C_14
REMARK    4  A    between atoms: C_3  and  C_4
REMARK    5  A    between atoms: C_6  and  N_11
REMARK    6  A    between atoms: C_14  and  C_15
REMARK    7  A    between atoms: C_20  and  C_25
REMARK                            x       y       z     vdW  Elec       q    Type
REMARK                         _______ _______ _______ _____ _____    ______ ____
ROOT
ATOM      1  C   UNL     1      -1.882  -0.419   1.538  0.00  0.00    +0.095 A 
ATOM      2  N   UNL     1      -1.086   0.070   2.448  0.00  0.00    -0.197 NA
ATOM      3  C   UNL     1      -1.478   0.268   3.716  0.00  0.00    +0.282 A 
ATOM      4  O   UNL     1      -0.703   0.728   4.539  0.00  0.00    -0.265 OA
ATOM      5  C   UNL     1      -2.863  -0.079   4.101  0.00  0.00    +0.080 A 
ATOM      6  C   UNL     1      -3.528   0.039   5.393  0.00  0.00    +0.004 A 
ATOM      7  C   UNL     1      -4.822  -0.350   5.497  0.00  0.00    +0.056 A 
ATOM      8  S   UNL     1      -5.218  -0.899   3.847  0.00  0.00    -0.078 S 
ATOM      9  C   UNL     1      -3.654  -0.596   3.070  0.00  0.00    +0.092 A 
ATOM     10  N   UNL     1      -3.159  -0.752   1.815  0.00  0.00    -0.339 N 
ATOM     11  H   UNL     1      -3.726  -1.109   1.115  0.00  0.00    +0.167 HD
ENDROOT
BRANCH   6  12
ATOM     12  C   UNL     1      -2.803   0.572   6.570  0.00  0.00    -0.017 A 
ATOM     13  C   UNL     1      -1.548   0.066   6.907  0.00  0.00    +0.008 A 
ATOM     14  C   UNL     1      -0.877   0.567   8.005  0.00  0.00    +0.001 A 
ATOM     15  C   UNL     1      -1.448   1.568   8.770  0.00  0.00    +0.000 A 
ATOM     16  C   UNL     1      -2.692   2.075   8.440  0.00  0.00    +0.001 A 
ATOM     17  C   UNL     1      -3.370   1.586   7.341  0.00  0.00    +0.008 A 
ENDBRANCH   6  12
BRANCH   1  18
ATOM     18  C   UNL     1      -1.363  -0.610   0.137  0.00  0.00    -0.003 C 
BRANCH  18  20
ATOM     19  C   UNL     1       0.125   1.263   0.324  0.00  0.00    -0.095 C 
ATOM     20  N   UNL     1       0.041  -0.182   0.072  0.00  0.00    +0.385 N 
ATOM     21  H   UNL     1       0.576  -0.677   0.770  0.00  0.00    -0.081 HD
BRANCH  20  22
ATOM     22  C   UNL     1       0.582  -0.479  -1.261  0.00  0.00    -0.041 C 
BRANCH  22  23
ATOM     23  C   UNL     1       2.056  -0.168  -1.286  0.00  0.00    -0.043 A 
ATOM     24  C   UNL     1       2.509   0.987  -1.894  0.00  0.00    +0.036 A 
ATOM     25  C   UNL     1       3.862   1.272  -1.917  0.00  0.00    +0.126 A 
ATOM     26  C   UNL     1       4.762   0.402  -1.331  0.00  0.00    +0.034 A 
ATOM     27  C   UNL     1       4.310  -0.753  -0.722  0.00  0.00    +0.022 A 
ATOM     28  C   UNL     1       2.956  -1.036  -0.694  0.00  0.00    +0.042 A 
ATOM     29 CL   UNL     1       2.387  -2.484   0.078  0.00  0.00    -0.083 Cl
BRANCH  25  30
ATOM     30  N   UNL     1       4.346   2.510  -2.569  0.00  0.00    +0.056 N 
ATOM     31  O   UNL     1       3.559   3.271  -3.082  0.00  0.00    -0.126 OA
ATOM     32  O   UNL     1       5.529   2.759  -2.589  0.00  0.00    -0.126 OA
ENDBRANCH  25  30
ENDBRANCH  22  23
ENDBRANCH  20  22
ENDBRANCH  18  20
ENDBRANCH   1  18
TORSDOF 6
