REMARK  Name = ZINC33630630
REMARK  8 active torsions:
REMARK  status: ('A' for Active; 'I' for Inactive)
REMARK    1  A    between atoms: C_1  and  C_2
REMARK    2  A    between atoms: C_2  and  C_4
REMARK    3  A    between atoms: C_7  and  N_10
REMARK    4  A    between atoms: C_15  and  C_28
REMARK    5  A    between atoms: C_18  and  C_23
REMARK    6  A    between atoms: C_18  and  C_25
REMARK    7  A    between atoms: C_23  and  O_24
REMARK    8  A    between atoms: C_33  and  O_34
REMARK                            x       y       z     vdW  Elec       q    Type
REMARK                         _______ _______ _______ _____ _____    ______ ____
ROOT
ATOM      1  N   UNL     1       4.627   4.268   0.167  0.00  0.00    -0.210 N 
ATOM      2  C   UNL     1       4.077   4.606   1.372  0.00  0.00    +0.229 C 
ATOM      3  O   UNL     1       4.479   5.443   2.151  0.00  0.00    -0.275 OA
ATOM      4  C   UNL     1       2.870   3.723   1.529  0.00  0.00    +0.077 C 
ATOM      5  C   UNL     1       1.557   4.329   2.041  0.00  0.00    -0.023 C 
ATOM      6  N   UNL     1       0.521   3.546   1.292  0.00  0.00    +0.397 N 
ATOM      7  C   UNL     1       1.145   3.085   0.008  0.00  0.00    +0.071 C 
ATOM      8  C   UNL     1       2.470   3.725  -0.002  0.00  0.00    +0.088 C 
ATOM      9  C   UNL     1       3.762   3.562  -0.631  0.00  0.00    +0.229 C 
ATOM     10  O   UNL     1       4.023   2.941  -1.639  0.00  0.00    -0.275 OA
ATOM     11  H   UNL     1       0.204   2.684   1.896  0.00  0.00    -0.083 HD
ATOM     12  H   UNL     1      -0.348   4.190   1.087  0.00  0.00    -0.083 HD
ENDROOT
BRANCH   5  13
ATOM     13  C   UNL     1       1.417   4.122   3.528  0.00  0.00    -0.018 A 
ATOM     14  C   UNL     1       0.707   3.041   4.011  0.00  0.00    +0.020 A 
ATOM     15  C   UNL     1       0.578   2.851   5.375  0.00  0.00    +0.018 A 
ATOM     16  C   UNL     1       1.160   3.743   6.258  0.00  0.00    +0.019 A 
ATOM     17  C   UNL     1       1.872   4.825   5.779  0.00  0.00    +0.047 A 
ATOM     18  C   UNL     1       2.007   5.014   4.411  0.00  0.00    +0.119 A 
ATOM     19 BR   UNL     1      -0.395   1.369   6.035  0.00  0.00    -0.050 Br
BRANCH  18  20
ATOM     20  O   UNL     1       2.712   6.076   3.937  0.00  0.00    -0.507 OA
ATOM     21  H   UNL     1       3.179   6.783   4.638  0.00  0.00    +0.292 HD
ENDBRANCH  18  20
ENDBRANCH   5  13
BRANCH   1  25
ATOM     22  C   UNL     1       8.512   5.275  -0.961  0.00  0.00    +0.017 A 
ATOM     23  C   UNL     1       8.023   5.659   0.293  0.00  0.00    +0.013 A 
ATOM     24  C   UNL     1       6.740   5.324   0.661  0.00  0.00    +0.024 A 
ATOM     25  C   UNL     1       5.929   4.605  -0.211  0.00  0.00    +0.044 A 
ATOM     26  C   UNL     1       6.412   4.216  -1.456  0.00  0.00    +0.024 A 
ATOM     27  C   UNL     1       7.692   4.551  -1.835  0.00  0.00    +0.013 A 
BRANCH  22  29
ATOM     28  C   UNL     1      10.405   5.215  -2.710  0.00  0.00    +0.091 C 
ATOM     29  C   UNL     1       9.881   5.630  -1.359  0.00  0.00    +0.160 C 
ATOM     30  O   UNL     1      10.590   6.256  -0.600  0.00  0.00    -0.292 OA
ENDBRANCH  22  29
ENDBRANCH   1  25
BRANCH   7  31
ATOM     31  C   UNL     1       0.329   3.545  -1.173  0.00  0.00    +0.348 C 
ATOM     32  O   UNL     1       0.882   3.912  -2.183  0.00  0.00    -0.248 OA
ATOM     33  O   UNL     1      -1.011   3.547  -1.103  0.00  0.00    -0.248 OA
ENDBRANCH   7  31
BRANCH   7  34
ATOM     34  C   UNL     1       1.286   1.562  -0.002  0.00  0.00    +0.155 C 
BRANCH  34  35
ATOM     35  O   UNL     1      -0.011   0.963   0.007  0.00  0.00    -0.396 OA
ATOM     36  H   UNL     1      -0.111  -0.133   0.002  0.00  0.00    +0.209 HD
ENDBRANCH  34  35
ENDBRANCH   7  34
TORSDOF 7
