REMARK  Name = ZINC38685496
REMARK  9 active torsions:
REMARK  status: ('A' for Active; 'I' for Inactive)
REMARK    1  A    between atoms: C_1  and  O_2
REMARK    2  A    between atoms: O_2  and  C_3
REMARK    3  A    between atoms: C_6  and  C_9
REMARK    4  A    between atoms: C_13  and  C_15
REMARK    5  A    between atoms: C_18  and  O_22
REMARK    6  A    between atoms: C_20  and  O_21
REMARK    7  A    between atoms: O_22  and  C_23
REMARK    8  A    between atoms: C_23  and  C_24
REMARK    9  A    between atoms: C_27  and  N_30
REMARK                            x       y       z     vdW  Elec       q    Type
REMARK                         _______ _______ _______ _____ _____    ______ ____
ROOT
ATOM      1  C   UNL     1      -4.677  -4.715   1.343  0.00  0.00    +0.022 A 
ATOM      2  C   UNL     1      -4.969  -5.898   0.691  0.00  0.00    +0.013 A 
ATOM      3  C   UNL     1      -4.180  -7.014   0.892  0.00  0.00    +0.046 A 
ATOM      4  C   UNL     1      -3.091  -6.949   1.751  0.00  0.00    +0.124 A 
ATOM      5  C   UNL     1      -2.796  -5.764   2.406  0.00  0.00    +0.091 A 
ATOM      6  C   UNL     1      -3.586  -4.644   2.198  0.00  0.00    +0.126 A 
ENDROOT
BRANCH   1  11
ATOM      7  C   UNL     1      -4.952  -2.614   0.035  0.00  0.00    +0.008 C 
ATOM      8  C   UNL     1      -5.908  -2.610  -0.925  0.00  0.00    +0.139 C 
ATOM      9  N   UNL     1      -6.955  -3.354  -0.549  0.00  0.00    -0.185 NA
ATOM     10  N   UNL     1      -6.848  -3.881   0.560  0.00  0.00    -0.297 N 
ATOM     11  C   UNL     1      -5.540  -3.500   1.121  0.00  0.00    +0.164 C 
ATOM     12  H   UNL     1      -7.507  -4.450   0.987  0.00  0.00    +0.183 HD
BRANCH   7  16
ATOM     13  C   UNL     1      -1.199  -0.637   0.010  0.00  0.00    +0.120 A 
ATOM     14  C   UNL     1      -2.373   0.107   0.019  0.00  0.00    +0.046 A 
ATOM     15  C   UNL     1      -3.594  -0.530   0.028  0.00  0.00    +0.012 A 
ATOM     16  C   UNL     1      -3.651  -1.929   0.026  0.00  0.00    -0.018 A 
ATOM     17  C   UNL     1      -2.466  -2.672   0.016  0.00  0.00    +0.012 A 
ATOM     18  C   UNL     1      -1.250  -2.026   0.003  0.00  0.00    +0.046 A 
BRANCH  13  20
ATOM     19  C   UNL     1      -0.017   1.425   0.010  0.00  0.00    +0.277 C 
ATOM     20  O   UNL     1       0.002  -0.004   0.002  0.00  0.00    -0.495 OA
ENDBRANCH  13  20
ENDBRANCH   7  16
ENDBRANCH   1  11
BRANCH   6  21
ATOM     21  O   UNL     1      -3.296  -3.479   2.834  0.00  0.00    -0.506 OA
ATOM     22  H   UNL     1      -3.726  -3.383   3.695  0.00  0.00    +0.292 HD
ENDBRANCH   6  21
BRANCH   4  23
ATOM     23  O   UNL     1      -2.315  -8.047   1.949  0.00  0.00    -0.487 OA
BRANCH  23  24
ATOM     24  C   UNL     1      -2.678  -9.234   1.241  0.00  0.00    +0.264 C 
BRANCH  24  25
ATOM     25  C   UNL     1      -1.712 -10.339   1.584  0.00  0.00    -0.010 A 
ATOM     26  C   UNL     1      -0.565 -10.512   0.831  0.00  0.00    +0.009 A 
ATOM     27  C   UNL     1       0.321 -11.525   1.145  0.00  0.00    +0.033 A 
ATOM     28  C   UNL     1       0.062 -12.364   2.212  0.00  0.00    +0.126 A 
ATOM     29  C   UNL     1      -1.085 -12.191   2.965  0.00  0.00    +0.033 A 
ATOM     30  C   UNL     1      -1.969 -11.175   2.654  0.00  0.00    +0.009 A 
BRANCH  28  31
ATOM     31  N   UNL     1       1.010 -13.450   2.548  0.00  0.00    +0.056 N 
ATOM     32  O   UNL     1       2.013 -13.602   1.889  0.00  0.00    -0.126 OA
ATOM     33  O   UNL     1       0.783 -14.184   3.481  0.00  0.00    -0.126 OA
ENDBRANCH  28  31
ENDBRANCH  24  25
ENDBRANCH  23  24
ENDBRANCH   4  23
TORSDOF 8
