REMARK  Name = ZINC49486289
REMARK  8 active torsions:
REMARK  status: ('A' for Active; 'I' for Inactive)
REMARK    1  A    between atoms: C_1  and  C_2
REMARK    2  A    between atoms: C_5  and  S_7
REMARK    3  A    between atoms: S_7  and  N_10
REMARK    4  A    between atoms: N_10  and  C_11
REMARK    5  A    between atoms: C_11  and  C_12
REMARK    6  A    between atoms: C_12  and  C_14
REMARK    7  A    between atoms: C_12  and  N_19
REMARK    8  A    between atoms: N_22  and  C_25
REMARK                            x       y       z     vdW  Elec       q    Type
REMARK                         _______ _______ _______ _____ _____    ______ ____
ROOT
ATOM      1  C   UNL     1       2.369  -4.930  -3.681  0.00  0.00    +0.015 C 
ENDROOT
BRANCH   1   2
ATOM      2  N   UNL     1       1.056  -5.094  -4.319  0.00  0.00    +0.389 N 
ATOM      3  C   UNL     1       0.091  -5.588  -3.328  0.00  0.00    -0.059 C 
ATOM      4  C   UNL     1      -1.303  -5.651  -3.962  0.00  0.00    +0.086 C 
ATOM      5  N   UNL     1      -1.222  -6.460  -5.187  0.00  0.00    -0.333 N 
ATOM      6  C   UNL     1      -0.172  -6.135  -6.165  0.00  0.00    +0.086 C 
ATOM      7  C   UNL     1       1.169  -6.050  -5.427  0.00  0.00    -0.059 C 
ATOM      8  H   UNL     1       0.743  -4.203  -4.674  0.00  0.00    -0.081 HD
BRANCH   5   9
ATOM      9  C   UNL     1      -2.118  -7.508  -5.417  0.00  0.00    +0.030 A 
ATOM     10  C   UNL     1      -3.022  -7.880  -4.429  0.00  0.00    +0.026 A 
ATOM     11  C   UNL     1      -3.907  -8.915  -4.659  0.00  0.00    +0.040 A 
ATOM     12  C   UNL     1      -3.893  -9.583  -5.871  0.00  0.00    +0.124 A 
ATOM     13  C   UNL     1      -2.993  -9.215  -6.857  0.00  0.00    +0.040 A 
ATOM     14  C   UNL     1      -2.110  -8.176  -6.634  0.00  0.00    +0.026 A 
ATOM     15  F   UNL     1      -4.760 -10.596  -6.093  0.00  0.00    -0.205 F 
ENDBRANCH   5   9
ENDBRANCH   1   2
BRANCH   1  16
ATOM     16  C   UNL     1       3.338  -4.336  -4.670  0.00  0.00    +0.093 A 
ATOM     17  C   UNL     1       4.626  -4.691  -4.821  0.00  0.00    +0.043 A 
ATOM     18  C   UNL     1       5.156  -3.884  -5.853  0.00  0.00    +0.041 A 
ATOM     19  C   UNL     1       4.160  -3.083  -6.272  0.00  0.00    +0.195 A 
ATOM     20  O   UNL     1       3.059  -3.365  -5.556  0.00  0.00    -0.469 OA
ENDBRANCH   1  16
BRANCH   1  21
ATOM     21  C   UNL     1       2.237  -3.999  -2.474  0.00  0.00    +0.098 C 
BRANCH  21  22
ATOM     22  N   UNL     1       1.615  -2.740  -2.894  0.00  0.00    -0.191 NA
ATOM     23  H   UNL     1       1.579  -2.507  -3.835  0.00  0.00    +0.148 HD
BRANCH  22  24
ATOM     24  S   UNL     1       0.973  -1.716  -1.762  0.00  0.00    +0.065 S 
ATOM     25  O   UNL     1       0.150  -2.509  -0.918  0.00  0.00    -0.153 OA
ATOM     26  O   UNL     1       0.477  -0.588  -2.470  0.00  0.00    -0.153 OA
BRANCH  24  31
ATOM     27  C   UNL     1       5.260  -0.564   2.149  0.00  0.00    +0.051 C 
ATOM     28  C   UNL     1       4.256  -0.629   1.028  0.00  0.00    -0.011 A 
ATOM     29  C   UNL     1       4.090   0.214  -0.021  0.00  0.00    +0.013 A 
ATOM     30  C   UNL     1       3.092  -0.047  -0.940  0.00  0.00    +0.036 A 
ATOM     31  C   UNL     1       2.307  -1.138  -0.766  0.00  0.00    +0.143 A 
ATOM     32  S   UNL     1       2.980  -1.843   0.730  0.00  0.00    -0.074 S 
ENDBRANCH  24  31
ENDBRANCH  22  24
ENDBRANCH  21  22
ENDBRANCH   1  21
TORSDOF 7
