REMARK  Name = ZINC20919178
REMARK  12 active torsions:
REMARK  status: ('A' for Active; 'I' for Inactive)
REMARK    1  A    between atoms: C_4  and  C_7
REMARK    2  A    between atoms: C_7  and  C_8
REMARK    3  A    between atoms: C_8  and  C_30
REMARK    4  A    between atoms: N_9  and  N_10
REMARK    5  A    between atoms: C_14  and  S_17
REMARK    6  A    between atoms: N_15  and  N_16
REMARK    7  A    between atoms: S_17  and  C_18
REMARK    8  A    between atoms: C_18  and  C_19
REMARK    9  A    between atoms: C_19  and  C_20
REMARK   10  A    between atoms: N_22  and  C_23
REMARK   11  A    between atoms: C_23  and  C_24
REMARK   12  A    between atoms: C_30  and  C_31
REMARK                            x       y       z     vdW  Elec       q    Type
REMARK                         _______ _______ _______ _____ _____    ______ ____
ROOT
ATOM      1  N   UNL     1       1.754  -1.723  -0.024  0.00  0.00    -0.204 N 
ATOM      2  C   UNL     1       1.308  -0.409  -0.013  0.00  0.00    +0.254 A 
ATOM      3  N   UNL     1       2.064   0.662  -0.014  0.00  0.00    -0.109 NA
ATOM      4  N   UNL     1       1.225   1.784  -0.000  0.00  0.00    -0.119 NA
ATOM      5  C   UNL     1      -0.017   1.362   0.009  0.00  0.00    +0.210 A 
ATOM      6  N   UNL     1       0.002  -0.004   0.002  0.00  0.00    -0.211 N 
ATOM      7  H   UNL     1       1.030  -2.551  -0.021  0.00  0.00    +0.177 HD
ENDROOT
BRANCH   6   8
ATOM      8  N   UNL     1      -1.092  -0.822   0.009  0.00  0.00    -0.294 N 
ATOM      9  H   UNL     1      -2.103  -0.388   0.020  0.00  0.00    +0.163 HD
ATOM     10  H   UNL     1      -0.962  -1.914   0.002  0.00  0.00    +0.163 HD
ENDBRANCH   6   8
BRANCH   1  12
ATOM     11  C   UNL     1       3.541  -3.208  -0.049  0.00  0.00    +0.045 C 
ATOM     12  N   UNL     1       3.128  -1.996  -0.038  0.00  0.00    -0.188 NA
BRANCH  11  13
ATOM     13  C   UNL     1       5.019  -3.502  -0.065  0.00  0.00    +0.088 C 
BRANCH  13  17
ATOM     14  C   UNL     1       6.119  -5.468   3.564  0.00  0.00    +0.000 A 
ATOM     15  C   UNL     1       5.725  -6.211   2.468  0.00  0.00    +0.000 A 
ATOM     16  C   UNL     1       5.369  -5.575   1.293  0.00  0.00    +0.004 A 
ATOM     17  C   UNL     1       5.407  -4.195   1.216  0.00  0.00    -0.042 A 
ATOM     18  C   UNL     1       5.806  -3.452   2.311  0.00  0.00    +0.004 A 
ATOM     19  C   UNL     1       6.157  -4.088   3.487  0.00  0.00    +0.000 A 
ENDBRANCH  13  17
ENDBRANCH  11  13
BRANCH  11  20
ATOM     20  C   UNL     1       2.547  -4.342  -0.046  0.00  0.00    +0.088 C 
BRANCH  20  21
ATOM     21  C   UNL     1       2.203  -4.712  -1.465  0.00  0.00    -0.042 A 
ATOM     22  C   UNL     1       1.141  -4.097  -2.102  0.00  0.00    +0.004 A 
ATOM     23  C   UNL     1       0.828  -4.433  -3.405  0.00  0.00    +0.000 A 
ATOM     24  C   UNL     1       1.570  -5.391  -4.069  0.00  0.00    +0.000 A 
ATOM     25  C   UNL     1       2.628  -6.010  -3.431  0.00  0.00    +0.000 A 
ATOM     26  C   UNL     1       2.945  -5.670  -2.129  0.00  0.00    +0.004 A 
ENDBRANCH  20  21
ENDBRANCH  11  20
ENDBRANCH   1  12
BRANCH   5  27
ATOM     27  S   UNL     1      -1.456   2.378   0.022  0.00  0.00    -0.084 S 
BRANCH  27  28
ATOM     28  C   UNL     1      -0.799   4.069   0.028  0.00  0.00    +0.086 C 
BRANCH  28  29
ATOM     29  C   UNL     1      -1.959   5.067   0.039  0.00  0.00    +0.107 C 
BRANCH  29  30
ATOM     30  C   UNL     1      -1.414   6.471   0.044  0.00  0.00    +0.214 C 
ATOM     31  O   UNL     1      -0.215   6.657   0.039  0.00  0.00    -0.276 OA
ATOM     32  N   UNL     1      -2.258   7.522   0.054  0.00  0.00    -0.311 N 
ATOM     33  H   UNL     1      -3.345   7.354   0.059  0.00  0.00    +0.149 HD
BRANCH  32  34
ATOM     34  C   UNL     1      -1.727   8.888   0.059  0.00  0.00    +0.139 C 
BRANCH  34  35
ATOM     35  C   UNL     1      -2.870   9.870   0.070  0.00  0.00    -0.030 A 
ATOM     36  C   UNL     1      -3.396  10.332  -1.122  0.00  0.00    +0.005 A 
ATOM     37  C   UNL     1      -4.447  11.229  -1.112  0.00  0.00    +0.000 A 
ATOM     38  C   UNL     1      -4.966  11.673   0.090  0.00  0.00    +0.000 A 
ATOM     39  C   UNL     1      -4.436  11.216   1.282  0.00  0.00    +0.000 A 
ATOM     40  C   UNL     1      -3.388  10.314   1.272  0.00  0.00    +0.005 A 
ENDBRANCH  34  35
ENDBRANCH  32  34
ENDBRANCH  29  30
ENDBRANCH  28  29
ENDBRANCH  27  28
ENDBRANCH   5  27
TORSDOF 12
