REMARK  Name = ZINC09057192
REMARK  10 active torsions:
REMARK  status: ('A' for Active; 'I' for Inactive)
REMARK    1  A    between atoms: C_1  and  C_2
REMARK    2  A    between atoms: C_5  and  C_8
REMARK    3  A    between atoms: C_13  and  C_28
REMARK    4  A    between atoms: C_25  and  C_27
REMARK    5  A    between atoms: C_30  and  O_38
REMARK    6  A    between atoms: C_31  and  O_36
REMARK    7  A    between atoms: C_32  and  O_34
REMARK    8  A    between atoms: O_34  and  C_35
REMARK    9  A    between atoms: O_36  and  C_37
REMARK   10  A    between atoms: O_38  and  C_39
REMARK                            x       y       z     vdW  Elec       q    Type
REMARK                         _______ _______ _______ _____ _____    ______ ____
ROOT
ATOM      1  C   UNL     1      -1.854   1.721  -1.942  0.00  0.00    +0.032 C 
ATOM      2  C   UNL     1      -3.242   1.190  -1.568  0.00  0.00    +0.088 C 
ATOM      3  C   UNL     1      -3.546   1.580  -0.153  0.00  0.00    +0.163 C 
ATOM      4  C   UNL     1      -2.587   1.776   0.777  0.00  0.00    +0.037 C 
ATOM      5  C   UNL     1      -3.042   2.173   2.141  0.00  0.00    +0.147 C 
ATOM      6  N   UNL     1      -2.207   1.688   3.211  0.00  0.00    -0.258 N 
ATOM      7  C   UNL     1      -0.990   2.280   3.502  0.00  0.00    +0.058 A 
ATOM      8  C   UNL     1      -0.715   2.826   4.738  0.00  0.00    +0.025 A 
ATOM      9  C   UNL     1       0.502   3.440   4.974  0.00  0.00    +0.002 A 
ATOM     10  C   UNL     1       1.447   3.509   3.965  0.00  0.00    +0.002 A 
ATOM     11  C   UNL     1       1.195   2.957   2.729  0.00  0.00    +0.025 A 
ATOM     12  C   UNL     1      -0.023   2.314   2.470  0.00  0.00    +0.053 A 
ATOM     13  N   UNL     1      -0.236   1.734   1.283  0.00  0.00    -0.316 N 
ATOM     14  C   UNL     1      -1.219   1.611   0.466  0.00  0.00    +0.017 C 
ATOM     15  C   UNL     1      -0.846   1.160  -0.940  0.00  0.00    +0.059 C 
ATOM     16  C   UNL     1      -2.620   0.635   3.943  0.00  0.00    +0.218 C 
ATOM     17  O   UNL     1      -3.683   0.106   3.699  0.00  0.00    -0.276 OA
ATOM     18  C   UNL     1      -1.759   0.114   5.066  0.00  0.00    +0.110 C 
ATOM     19  O   UNL     1      -4.837   1.743   0.208  0.00  0.00    -0.292 OA
ATOM     20  H   UNL     1       0.737   1.281   1.045  0.00  0.00    +0.152 HD
ENDROOT
BRANCH   1  25
ATOM     21  C   UNL     1      -0.472  -0.013  -7.278  0.00  0.00    +0.044 C 
ATOM     22  C   UNL     1      -0.832   0.439  -5.886  0.00  0.00    -0.050 A 
ATOM     23  C   UNL     1      -0.878   1.788  -5.588  0.00  0.00    +0.003 A 
ATOM     24  C   UNL     1      -1.209   2.203  -4.312  0.00  0.00    +0.004 A 
ATOM     25  C   UNL     1      -1.494   1.269  -3.333  0.00  0.00    -0.043 A 
ATOM     26  C   UNL     1      -1.442  -0.080  -3.630  0.00  0.00    +0.004 A 
ATOM     27  C   UNL     1      -1.115  -0.495  -4.908  0.00  0.00    +0.003 A 
ENDBRANCH   1  25
BRANCH   5  28
ATOM     28  C   UNL     1      -3.081   3.678   2.213  0.00  0.00    -0.015 A 
ATOM     29  C   UNL     1      -1.975   4.415   1.832  0.00  0.00    +0.055 A 
ATOM     30  C   UNL     1      -2.009   5.800   1.892  0.00  0.00    +0.165 A 
ATOM     31  C   UNL     1      -3.152   6.446   2.346  0.00  0.00    +0.204 A 
ATOM     32  C   UNL     1      -4.260   5.701   2.733  0.00  0.00    +0.165 A 
ATOM     33  C   UNL     1      -4.220   4.317   2.665  0.00  0.00    +0.055 A 
BRANCH  32  34
ATOM     34  O   UNL     1      -5.381   6.329   3.179  0.00  0.00    -0.491 OA
ATOM     35  C   UNL     1      -6.480   5.501   3.561  0.00  0.00    +0.277 C 
ENDBRANCH  32  34
BRANCH  31  36
ATOM     36  O   UNL     1      -3.187   7.805   2.411  0.00  0.00    -0.488 OA
ATOM     37  C   UNL     1      -2.757   8.407   3.633  0.00  0.00    +0.277 C 
ENDBRANCH  31  36
BRANCH  30  38
ATOM     38  O   UNL     1      -0.923   6.524   1.511  0.00  0.00    -0.491 OA
ATOM     39  C   UNL     1       0.174   5.802   0.948  0.00  0.00    +0.277 C 
ENDBRANCH  30  38
ENDBRANCH   5  28
TORSDOF 5
