REMARK  Name = ZINC32736686
REMARK  9 active torsions:
REMARK  status: ('A' for Active; 'I' for Inactive)
REMARK    1  A    between atoms: C_1  and  C_2
REMARK    2  A    between atoms: C_5  and  C_9
REMARK    3  A    between atoms: C_7  and  C_8
REMARK    4  A    between atoms: C_9  and  C_32
REMARK    5  A    between atoms: N_12  and  C_16
REMARK    6  A    between atoms: C_16  and  C_17
REMARK    7  A    between atoms: N_19  and  C_20
REMARK    8  A    between atoms: N_19  and  C_26
REMARK    9  A    between atoms: C_20  and  C_21
REMARK                            x       y       z     vdW  Elec       q    Type
REMARK                         _______ _______ _______ _____ _____    ______ ____
ROOT
ATOM      1  C   UNL     1      -0.973   3.825   2.762  0.00  0.00    +0.164 C 
ATOM      2  C   UNL     1       0.387   3.525   2.163  0.00  0.00    +0.256 C 
ATOM      3  O   UNL     1       1.399   4.181   2.280  0.00  0.00    -0.272 OA
ATOM      4  N   UNL     1       0.235   2.378   1.472  0.00  0.00    -0.215 N 
ATOM      5  C   UNL     1      -1.016   1.912   1.557  0.00  0.00    +0.310 C 
ATOM      6  O   UNL     1      -1.394   0.889   1.021  0.00  0.00    -0.252 OA
ATOM      7  N   UNL     1      -1.809   2.703   2.302  0.00  0.00    -0.278 N 
ATOM      8  H   UNL     1      -2.869   2.652   2.592  0.00  0.00    +0.152 HD
ENDROOT
BRANCH   1  13
ATOM      9  C   UNL     1      -3.036   8.845   0.777  0.00  0.00    +0.044 C 
ATOM     10  C   UNL     1      -2.498   7.536   1.294  0.00  0.00    -0.048 A 
ATOM     11  C   UNL     1      -1.272   7.496   1.933  0.00  0.00    +0.004 A 
ATOM     12  C   UNL     1      -0.779   6.296   2.408  0.00  0.00    +0.007 A 
ATOM     13  C   UNL     1      -1.511   5.134   2.244  0.00  0.00    -0.010 A 
ATOM     14  C   UNL     1      -2.734   5.173   1.601  0.00  0.00    +0.010 A 
ATOM     15  C   UNL     1      -3.229   6.375   1.131  0.00  0.00    -0.047 A 
ATOM     16  C   UNL     1      -4.565   6.418   0.434  0.00  0.00    +0.044 C 
ENDBRANCH   1  13
BRANCH   1  17
ATOM     17  C   UNL     1      -0.892   3.845   4.266  0.00  0.00    -0.011 A 
ATOM     18  C   UNL     1      -1.893   3.260   5.020  0.00  0.00    +0.006 A 
ATOM     19  C   UNL     1      -1.817   3.273   6.400  0.00  0.00    +0.000 A 
ATOM     20  C   UNL     1      -0.745   3.881   7.027  0.00  0.00    +0.000 A 
ATOM     21  C   UNL     1       0.253   4.471   6.274  0.00  0.00    +0.000 A 
ATOM     22  C   UNL     1       0.179   4.452   4.894  0.00  0.00    +0.006 A 
ENDBRANCH   1  17
BRANCH   4  23
ATOM     23  C   UNL     1       1.310   1.718   0.727  0.00  0.00    +0.214 C 
BRANCH  23  24
ATOM     24  C   UNL     1       1.326   2.231  -0.691  0.00  0.00    +0.238 C 
ATOM     25  O   UNL     1       0.519   3.065  -1.043  0.00  0.00    -0.274 OA
ATOM     26  N   UNL     1       2.237   1.762  -1.567  0.00  0.00    -0.267 N 
BRANCH  26  27
ATOM     27  C   UNL     1       2.187   2.157  -2.901  0.00  0.00    +0.010 C 
ATOM     28  C   UNL     1       1.132   1.835  -3.596  0.00  0.00    -0.008 C 
ATOM     29  C   UNL     1       0.942   2.188  -5.042  0.00  0.00    +0.029 C 
ATOM     30  C   UNL     1       1.919   3.294  -5.449  0.00  0.00    +0.004 C 
ATOM     31  C   UNL     1       3.325   2.896  -4.983  0.00  0.00    +0.006 C 
ATOM     32  C   UNL     1       3.354   2.923  -3.453  0.00  0.00    +0.051 C 
ENDBRANCH  26  27
BRANCH  26  33
ATOM     33  C   UNL     1       3.279   0.837  -1.115  0.00  0.00    +0.187 C 
BRANCH  33  34
ATOM     34  C   UNL     1       2.841  -0.581  -1.377  0.00  0.00    +0.122 A 
ATOM     35  C   UNL     1       3.070  -1.279  -2.504  0.00  0.00    +0.046 A 
ATOM     36  C   UNL     1       2.491  -2.555  -2.319  0.00  0.00    +0.041 A 
ATOM     37  C   UNL     1       1.935  -2.558  -1.094  0.00  0.00    +0.195 A 
ATOM     38  O   UNL     1       2.150  -1.359  -0.528  0.00  0.00    -0.466 OA
ENDBRANCH  33  34
ENDBRANCH  26  33
ENDBRANCH  23  24
ENDBRANCH   4  23
TORSDOF 7
