REMARK  Name = ZINC20598263
REMARK  8 active torsions:
REMARK  status: ('A' for Active; 'I' for Inactive)
REMARK    1  A    between atoms: C_1  and  C_2
REMARK    2  A    between atoms: C_6  and  C_8
REMARK    3  A    between atoms: C_8  and  N_9
REMARK    4  A    between atoms: N_9  and  C_10
REMARK    5  A    between atoms: N_9  and  C_17
REMARK    6  A    between atoms: C_10  and  C_11
REMARK    7  A    between atoms: C_17  and  C_18
REMARK    8  A    between atoms: N_21  and  C_24
REMARK                            x       y       z     vdW  Elec       q    Type
REMARK                         _______ _______ _______ _____ _____    ______ ____
ROOT
ATOM      1  C   UNL     1      -0.088  -5.694   1.943  0.00  0.00    +0.088 C 
ENDROOT
BRANCH   1   2
ATOM      2  C   UNL     1      -0.250  -7.012   1.184  0.00  0.00    -0.000 C 
ATOM      3  C   UNL     1      -1.735  -7.263   0.904  0.00  0.00    -0.014 C 
ATOM      4  C   UNL     1      -1.896  -8.620   0.215  0.00  0.00    -0.078 C 
ATOM      5  N   UNL     1      -1.375  -9.680   1.087  0.00  0.00    +0.382 N 
ATOM      6  C   UNL     1       0.064  -9.486   1.301  0.00  0.00    -0.078 C 
ATOM      7  C   UNL     1       0.300  -8.162   2.031  0.00  0.00    -0.014 C 
ATOM      8  H   UNL     1      -1.854  -9.649   1.974  0.00  0.00    -0.081 HD
BRANCH   5   9
ATOM      9  C   UNL     1      -1.603 -10.986   0.455  0.00  0.00    -0.060 C 
ATOM     10  C   UNL     1      -3.112 -11.305   0.382  0.00  0.00    +0.020 C 
ATOM     11  C   UNL     1      -3.212 -12.800   0.596  0.00  0.00    -0.046 A 
ATOM     12  C   UNL     1      -4.249 -13.678   0.328  0.00  0.00    +0.004 A 
ATOM     13  C   UNL     1      -4.112 -15.022   0.612  0.00  0.00    +0.000 A 
ATOM     14  C   UNL     1      -2.937 -15.495   1.166  0.00  0.00    +0.000 A 
ATOM     15  C   UNL     1      -1.902 -14.621   1.434  0.00  0.00    +0.004 A 
ATOM     16  C   UNL     1      -2.037 -13.272   1.150  0.00  0.00    -0.046 A 
ATOM     17  C   UNL     1      -1.067 -12.127   1.346  0.00  0.00    +0.020 C 
ENDBRANCH   5   9
ENDBRANCH   1   2
BRANCH   1  18
ATOM     18  N   UNL     1      -0.557  -4.584   1.103  0.00  0.00    -0.293 NA
BRANCH  18  19
ATOM     19  C   UNL     1       0.295  -4.426  -0.084  0.00  0.00    +0.156 C 
BRANCH  19  25
ATOM     20  C   UNL     1      -0.316  -1.120  -3.800  0.00  0.00    +0.065 C 
ATOM     21  C   UNL     1      -0.619  -2.029  -2.637  0.00  0.00    +0.030 A 
ATOM     22  C   UNL     1      -1.826  -2.206  -2.065  0.00  0.00    +0.105 A 
ATOM     23  N   UNL     1      -1.654  -3.110  -1.051  0.00  0.00    -0.349 N 
ATOM     24  H   UNL     1      -2.342  -3.442  -0.454  0.00  0.00    +0.166 HD
ATOM     25  C   UNL     1      -0.348  -3.453  -1.038  0.00  0.00    +0.099 A 
ATOM     26  N   UNL     1       0.264  -2.806  -1.992  0.00  0.00    -0.346 N 
ATOM     27  H   UNL     1       1.208  -2.876  -2.202  0.00  0.00    +0.167 HD
ENDBRANCH  19  25
ENDBRANCH  18  19
BRANCH  18  28
ATOM     28  C   UNL     1      -0.625  -3.334   1.871  0.00  0.00    +0.116 C 
BRANCH  28  29
ATOM     29  C   UNL     1      -1.829  -3.381   2.815  0.00  0.00    +0.132 C 
ATOM     30  C   UNL     1      -1.988  -2.021   3.529  0.00  0.00    +0.035 C 
ATOM     31  C   UNL     1      -2.394  -2.449   4.966  0.00  0.00    +0.031 C 
ATOM     32  C   UNL     1      -1.587  -3.762   5.121  0.00  0.00    +0.160 C 
ATOM     33  O   UNL     1      -1.618  -4.378   3.821  0.00  0.00    -0.375 OA
ENDBRANCH  28  29
ENDBRANCH  18  28
ENDBRANCH   1  18
TORSDOF 7
