REMARK  Name = ZINC39617896
REMARK  11 active torsions:
REMARK  status: ('A' for Active; 'I' for Inactive)
REMARK    1  A    between atoms: C_1  and  C_2
REMARK    2  A    between atoms: C_2  and  C_3
REMARK    3  A    between atoms: C_3  and  N_4
REMARK    4  A    between atoms: C_8  and  S_9
REMARK    5  A    between atoms: S_9  and  C_10
REMARK    6  A    between atoms: C_10  and  C_11
REMARK    7  A    between atoms: C_16  and  C_33
REMARK    8  A    between atoms: C_17  and  C_22
REMARK    9  A    between atoms: N_24  and  C_25
REMARK   10  A    between atoms: C_28  and  C_32
REMARK   11  A    between atoms: C_30  and  C_31
REMARK                            x       y       z     vdW  Elec       q    Type
REMARK                         _______ _______ _______ _____ _____    ______ ____
ROOT
ATOM      1  C   UNL     1      -1.328  -3.230   5.253  0.00  0.00    +0.134 C 
ATOM      2  N   UNL     1      -1.358  -1.952   5.546  0.00  0.00    -0.160 NA
ATOM      3  C   UNL     1      -1.359  -1.498   6.804  0.00  0.00    +0.271 C 
ATOM      4  O   UNL     1      -1.388  -0.302   7.041  0.00  0.00    -0.268 OA
ATOM      5  C   UNL     1      -1.326  -2.505   7.912  0.00  0.00    +0.071 C 
ATOM      6  C   UNL     1      -1.322  -2.286   9.235  0.00  0.00    -0.036 C 
ATOM      7  C   UNL     1      -1.285  -3.491  10.148  0.00  0.00    +0.165 C 
ATOM      8  S   UNL     1      -1.259  -4.875   8.937  0.00  0.00    -0.088 S 
ATOM      9  C   UNL     1      -1.294  -3.909   7.448  0.00  0.00    +0.112 C 
ATOM     10  N   UNL     1      -1.302  -4.188   6.166  0.00  0.00    -0.227 NA
ATOM     11  C   UNL     1      -1.352  -0.886   9.793  0.00  0.00    +0.041 C 
ENDROOT
BRANCH   7  12
ATOM     12  C   UNL     1      -2.519  -3.551  11.011  0.00  0.00    +0.235 C 
ATOM     13  O   UNL     1      -3.587  -3.182  10.570  0.00  0.00    -0.274 OA
ATOM     14  N   UNL     1      -2.435  -4.016  12.274  0.00  0.00    -0.284 N 
ATOM     15  H   UNL     1      -1.600  -4.385  12.600  0.00  0.00    +0.155 HD
BRANCH  14  16
ATOM     16  C   UNL     1      -3.554  -3.965  13.113  0.00  0.00    +0.036 A 
ATOM     17  C   UNL     1      -4.551  -3.024  12.888  0.00  0.00    +0.024 A 
ATOM     18  C   UNL     1      -5.653  -2.977  13.718  0.00  0.00    +0.005 A 
ATOM     19  C   UNL     1      -5.765  -3.864  14.773  0.00  0.00    -0.050 A 
ATOM     20  C   UNL     1      -4.774  -4.800  15.001  0.00  0.00    +0.008 A 
ATOM     21  C   UNL     1      -3.672  -4.858  14.170  0.00  0.00    -0.029 A 
ATOM     22  C   UNL     1      -2.595  -5.884  14.414  0.00  0.00    +0.045 C 
ATOM     23  C   UNL     1      -6.969  -3.808  15.678  0.00  0.00    +0.044 C 
ENDBRANCH  14  16
ENDBRANCH   7  12
BRANCH   1  24
ATOM     24  C   UNL     1      -1.329  -3.629   3.800  0.00  0.00    +0.150 C 
BRANCH  24  25
ATOM     25  S   UNL     1      -1.366  -2.140   2.764  0.00  0.00    -0.085 S 
BRANCH  25  30
ATOM     26  N   UNL     1      -1.388  -1.957   0.014  0.00  0.00    -0.310 N 
ATOM     27  C   UNL     1      -1.372  -2.809  -1.187  0.00  0.00    +0.128 C 
ATOM     28  C   UNL     1      -1.341  -4.237  -0.608  0.00  0.00    +0.133 C 
ATOM     29  N   UNL     1      -1.343  -4.032   0.847  0.00  0.00    -0.366 N 
ATOM     30  C   UNL     1      -1.364  -2.767   1.117  0.00  0.00    +0.131 C 
ATOM     31  H   UNL     1      -1.328  -4.742   1.508  0.00  0.00    +0.161 HD
BRANCH  26  32
ATOM     32  C   UNL     1      -1.418  -0.492   0.026  0.00  0.00    +0.107 C 
BRANCH  32  34
ATOM     33  C   UNL     1      -0.017   1.577   0.034  0.00  0.00    +0.005 C 
ATOM     34  C   UNL     1       0.014   0.047   0.021  0.00  0.00    +0.016 C 
ENDBRANCH  32  34
ENDBRANCH  26  32
ENDBRANCH  25  30
ENDBRANCH  24  25
ENDBRANCH   1  24
TORSDOF 7
