REMARK  Name = ZINC37466989
REMARK  10 active torsions:
REMARK  status: ('A' for Active; 'I' for Inactive)
REMARK    1  A    between atoms: C_1  and  C_2
REMARK    2  A    between atoms: C_8  and  C_10
REMARK    3  A    between atoms: C_12  and  C_27
REMARK    4  A    between atoms: N_17  and  C_21
REMARK    5  A    between atoms: C_18  and  C_19
REMARK    6  A    between atoms: C_18  and  O_20
REMARK    7  A    between atoms: C_21  and  C_23
REMARK    8  A    between atoms: C_21  and  C_24
REMARK    9  A    between atoms: C_24  and  O_25
REMARK   10  A    between atoms: O_25  and  C_26
REMARK                            x       y       z     vdW  Elec       q    Type
REMARK                         _______ _______ _______ _____ _____    ______ ____
ROOT
ATOM      1  C   UNL     1      -2.917  -4.112   1.308  0.00  0.00    +0.150 C 
ATOM      2  C   UNL     1      -2.540  -4.684   2.679  0.00  0.00    +0.120 C 
ATOM      3  N   UNL     1      -2.958  -3.747   3.722  0.00  0.00    -0.319 N 
ATOM      4  C   UNL     1      -4.012  -2.935   3.550  0.00  0.00    +0.136 C 
ATOM      5  S   UNL     1      -4.451  -1.875   4.820  0.00  0.00    -0.019 S 
ATOM      6  N   UNL     1      -4.736  -2.921   2.420  0.00  0.00    -0.279 N 
ATOM      7  C   UNL     1      -4.420  -3.812   1.297  0.00  0.00    +0.145 C 
ATOM      8  C   UNL     1      -5.203  -5.118   1.445  0.00  0.00    +0.064 C 
ATOM      9  H   UNL     1      -2.464  -3.712   4.556  0.00  0.00    +0.148 HD
ENDROOT
BRANCH   1  17
ATOM     10  C   UNL     1       0.233   1.937   0.142  0.00  0.00    +0.089 C 
ATOM     11  C   UNL     1       0.372   0.460   0.407  0.00  0.00    +0.136 A 
ATOM     12  C   UNL     1      -0.639  -0.408   0.587  0.00  0.00    +0.091 A 
ATOM     13  C   UNL     1      -0.084  -1.688   0.806  0.00  0.00    +0.168 A 
ATOM     14  N   UNL     1       1.218  -1.575   0.756  0.00  0.00    -0.063 NA
ATOM     15  O   UNL     1       1.527  -0.218   0.498  0.00  0.00    -0.358 OA
ATOM     16  N   UNL     1      -0.798  -2.865   1.035  0.00  0.00    -0.267 N 
ATOM     17  C   UNL     1      -2.146  -2.841   1.061  0.00  0.00    +0.228 C 
ATOM     18  O   UNL     1      -2.737  -1.797   0.885  0.00  0.00    -0.275 OA
ATOM     19  H   UNL     1      -0.325  -3.700   1.175  0.00  0.00    +0.156 HD
ENDBRANCH   1  17
BRANCH   2  20
ATOM     20  C   UNL     1      -3.233  -6.007   2.880  0.00  0.00    -0.007 A 
ATOM     21  C   UNL     1      -4.006  -6.217   4.007  0.00  0.00    +0.007 A 
ATOM     22  C   UNL     1      -4.642  -7.430   4.193  0.00  0.00    +0.002 A 
ATOM     23  C   UNL     1      -4.506  -8.434   3.252  0.00  0.00    +0.021 A 
ATOM     24  C   UNL     1      -3.734  -8.225   2.124  0.00  0.00    +0.060 A 
ATOM     25  C   UNL     1      -3.101  -7.008   1.935  0.00  0.00    +0.064 A 
ATOM     26 CL   UNL     1      -2.137  -6.741   0.516  0.00  0.00    -0.082 Cl
ATOM     27 CL   UNL     1      -3.563  -9.485   0.943  0.00  0.00    -0.082 Cl
ENDBRANCH   2  20
BRANCH   7  28
ATOM     28  O   UNL     1      -4.771  -3.179   0.065  0.00  0.00    -0.371 OA
ATOM     29  H   UNL     1      -5.721  -3.171  -0.116  0.00  0.00    +0.212 HD
ENDBRANCH   7  28
BRANCH   6  30
ATOM     30  C   UNL     1      -5.866  -1.996   2.304  0.00  0.00    +0.100 C 
ATOM     31  C   UNL     1      -5.708  -1.156   1.035  0.00  0.00    +0.030 C 
BRANCH  30  32
ATOM     32  C   UNL     1      -7.171  -2.792   2.229  0.00  0.00    +0.181 C 
BRANCH  32  33
ATOM     33  O   UNL     1      -7.219  -3.514   0.998  0.00  0.00    -0.381 OA
ATOM     34  C   UNL     1      -8.403  -4.295   0.828  0.00  0.00    +0.194 C 
ENDBRANCH  32  33
ENDBRANCH  30  32
ENDBRANCH   6  30
TORSDOF 6
