REMARK  Name = ZINC08385333
REMARK  13 active torsions:
REMARK  status: ('A' for Active; 'I' for Inactive)
REMARK    1  A    between atoms: C_1  and  C_2
REMARK    2  A    between atoms: C_2  and  C_4
REMARK    3  A    between atoms: C_2  and  C_14
REMARK    4  A    between atoms: C_4  and  C_5
REMARK    5  A    between atoms: C_5  and  C_6
REMARK    6  A    between atoms: N_8  and  C_9
REMARK    7  A    between atoms: C_9  and  C_10
REMARK    8  A    between atoms: C_10  and  S_11
REMARK    9  A    between atoms: C_20  and  C_41
REMARK   10  A    between atoms: C_21  and  O_40
REMARK   11  A    between atoms: C_26  and  O_39
REMARK   12  A    between atoms: C_31  and  C_38
REMARK   13  A    between atoms: C_34  and  O_37
REMARK                            x       y       z     vdW  Elec       q    Type
REMARK                         _______ _______ _______ _____ _____    ______ ____
ROOT
ATOM      1  C   UNL     1      -3.770   4.437  -6.120  0.00  0.00    +0.001 C 
ATOM      2  C   UNL     1      -3.957   3.007  -6.690  0.00  0.00    +0.005 C 
ATOM      3  C   UNL     1      -3.188   2.050  -5.737  0.00  0.00    +0.007 C 
ATOM      4  C   UNL     1      -2.941   2.927  -4.503  0.00  0.00    +0.030 C 
ATOM      5  C   UNL     1      -2.587   4.285  -5.134  0.00  0.00    +0.002 C 
ATOM      6  C   UNL     1      -2.497   5.368  -4.091  0.00  0.00    +0.121 C 
ATOM      7  C   UNL     1      -1.846   4.848  -2.801  0.00  0.00    +0.038 C 
ATOM      8  C   UNL     1      -1.032   3.587  -3.049  0.00  0.00    +0.030 C 
ATOM      9  C   UNL     1      -1.938   2.443  -3.493  0.00  0.00    +0.073 C 
ATOM     10  C   UNL     1      -1.121   1.255  -3.984  0.00  0.00    +0.035 C 
ATOM     11  C   UNL     1       0.147   1.081  -3.135  0.00  0.00    +0.007 C 
ATOM     12  C   UNL     1      -0.098   1.670  -1.758  0.00  0.00    -0.002 C 
ATOM     13  C   UNL     1      -0.197   3.193  -1.837  0.00  0.00    -0.024 C 
ATOM     14  C   UNL     1      -0.753   3.703  -0.514  0.00  0.00    +0.010 C 
ATOM     15  C   UNL     1       0.196   3.302   0.620  0.00  0.00    +0.032 C 
ATOM     16  C   UNL     1       0.459   1.802   0.651  0.00  0.00    +0.115 C 
ATOM     17  C   UNL     1       0.927   1.269  -0.708  0.00  0.00    +0.035 C 
ATOM     18  C   UNL     1       1.200   3.794  -2.051  0.00  0.00    +0.012 C 
ATOM     19  C   UNL     1      -1.320   4.232  -5.991  0.00  0.00    +0.014 C 
ENDROOT
BRANCH   1  21
ATOM     20  C   UNL     1      -3.360   6.835  -6.678  0.00  0.00    +0.008 C 
ATOM     21  C   UNL     1      -3.390   5.410  -7.234  0.00  0.00    -0.010 C 
BRANCH  21  22
ATOM     22  C   UNL     1      -4.423   5.323  -8.360  0.00  0.00    +0.013 C 
BRANCH  22  23
ATOM     23  C   UNL     1      -3.977   6.204  -9.529  0.00  0.00    +0.096 C 
BRANCH  23  24
ATOM     24  C   UNL     1      -4.994   6.119 -10.638  0.00  0.00    +0.213 C 
ATOM     25  O   UNL     1      -5.978   5.423 -10.507  0.00  0.00    -0.276 OA
ATOM     26  N   UNL     1      -4.809   6.817 -11.776  0.00  0.00    -0.314 N 
ATOM     27  H   UNL     1      -4.022   7.375 -11.881  0.00  0.00    +0.149 HD
BRANCH  26  28
ATOM     28  C   UNL     1      -5.798   6.735 -12.854  0.00  0.00    +0.129 C 
BRANCH  28  29
ATOM     29  C   UNL     1      -5.352   7.616 -14.023  0.00  0.00    +0.219 C 
BRANCH  29  30
ATOM     30  S   UNL     1      -6.576   7.514 -15.358  0.00  0.00    +0.112 S 
ATOM     31  O   UNL     1      -6.571   6.212 -15.928  0.00  0.00    -0.145 OA
ATOM     32  O   UNL     1      -7.794   8.123 -14.953  0.00  0.00    -0.145 OA
ATOM     33  O   UNL     1      -6.034   8.419 -16.455  0.00  0.00    -0.048 OA
ENDBRANCH  29  30
ENDBRANCH  28  29
ENDBRANCH  26  28
ENDBRANCH  23  24
ENDBRANCH  22  23
ENDBRANCH  21  22
ENDBRANCH   1  21
BRANCH  16  34
ATOM     34  O   UNL     1      -0.736   1.119   1.040  0.00  0.00    -0.392 OA
ATOM     35  H   UNL     1      -1.093   1.404   1.892  0.00  0.00    +0.210 HD
ENDBRANCH  16  34
BRANCH   9  36
ATOM     36  O   UNL     1      -2.711   2.013  -2.352  0.00  0.00    -0.388 OA
ATOM     37  H   UNL     1      -3.371   1.337  -2.557  0.00  0.00    +0.210 HD
ENDBRANCH   9  36
BRANCH   6  38
ATOM     38  O   UNL     1      -3.806   5.871  -3.785  0.00  0.00    -0.391 OA
ATOM     39  H   UNL     1      -3.813   6.572  -3.119  0.00  0.00    +0.210 HD
ENDBRANCH   6  38
TORSDOF 10
