REMARK  Name = ZINC41004179
REMARK  12 active torsions:
REMARK  status: ('A' for Active; 'I' for Inactive)
REMARK    1  A    between atoms: C_1  and  C_2
REMARK    2  A    between atoms: C_2  and  O_3
REMARK    3  A    between atoms: O_3  and  C_4
REMARK    4  A    between atoms: C_6  and  C_19
REMARK    5  A    between atoms: C_9  and  O_10
REMARK    6  A    between atoms: O_10  and  C_11
REMARK    7  A    between atoms: C_11  and  C_12
REMARK    8  A    between atoms: C_24  and  C_28
REMARK    9  A    between atoms: C_24  and  C_29
REMARK   10  A    between atoms: C_34  and  S_36
REMARK   11  A    between atoms: S_36  and  C_37
REMARK   12  A    between atoms: C_37  and  C_38
REMARK                            x       y       z     vdW  Elec       q    Type
REMARK                         _______ _______ _______ _____ _____    ______ ____
ROOT
ATOM      1  C   UNL     1      -0.229  -4.969   0.477  0.00  0.00    +0.176 C 
ATOM      2  C   UNL     1      -1.277  -5.846  -0.171  0.00  0.00    +0.041 C 
ATOM      3  C   UNL     1      -1.054  -7.150  -0.441  0.00  0.00    +0.020 C 
ATOM      4  C   UNL     1      -2.114  -7.997  -1.105  0.00  0.00    +0.058 C 
ATOM      5  C   UNL     1      -3.502  -7.498  -0.698  0.00  0.00    -0.023 C 
ATOM      6  C   UNL     1      -3.627  -6.029  -1.115  0.00  0.00    +0.086 C 
ATOM      7  C   UNL     1      -2.509  -5.245  -0.485  0.00  0.00    +0.164 C 
ATOM      8  O   UNL     1      -2.674  -4.066  -0.242  0.00  0.00    -0.292 OA
ATOM      9  C   UNL     1      -4.576  -8.328  -1.404  0.00  0.00    +0.011 C 
ATOM     10  C   UNL     1      -3.669  -7.619   0.818  0.00  0.00    +0.011 C 
ATOM     11  N   UNL     1       0.134  -7.763  -0.121  0.00  0.00    -0.287 N 
ATOM     12  C   UNL     1       0.995  -7.106   0.743  0.00  0.00    +0.219 A 
ATOM     13  N   UNL     1       0.834  -5.795   1.036  0.00  0.00    -0.220 N 
ATOM     14  N   UNL     1       1.853  -5.461   1.927  0.00  0.00    -0.141 NA
ATOM     15  C   UNL     1       2.562  -6.554   2.118  0.00  0.00    +0.210 A 
ATOM     16  N   UNL     1       2.035  -7.546   1.396  0.00  0.00    -0.187 NA
ATOM     17  H   UNL     1       0.363  -8.630  -0.491  0.00  0.00    +0.155 HD
ENDROOT
BRANCH   1  20
ATOM     18  C   UNL     1       0.777  -1.811  -1.336  0.00  0.00    +0.162 A 
ATOM     19  C   UNL     1       0.243  -2.669  -0.388  0.00  0.00    +0.055 A 
ATOM     20  C   UNL     1       0.352  -4.037  -0.555  0.00  0.00    -0.015 A 
ATOM     21  C   UNL     1       0.992  -4.552  -1.667  0.00  0.00    +0.010 A 
ATOM     22  C   UNL     1       1.526  -3.702  -2.616  0.00  0.00    +0.050 A 
ATOM     23  C   UNL     1       1.416  -2.330  -2.458  0.00  0.00    +0.162 A 
BRANCH  18  24
ATOM     24  O   UNL     1       0.671  -0.465  -1.174  0.00  0.00    -0.489 OA
BRANCH  24  26
ATOM     25  C   UNL     1      -0.019   1.526   0.010  0.00  0.00    +0.048 C 
ATOM     26  C   UNL     1       0.002  -0.004   0.002  0.00  0.00    +0.226 C 
ENDBRANCH  24  26
ENDBRANCH  18  24
BRANCH  23  27
ATOM     27  O   UNL     1       1.936  -1.492  -3.394  0.00  0.00    -0.484 OA
BRANCH  27  28
ATOM     28  C   UNL     1       2.578  -2.095  -4.520  0.00  0.00    +0.267 C 
BRANCH  28  29
ATOM     29  C   UNL     1       3.088  -1.019  -5.443  0.00  0.00    +0.025 A 
ATOM     30  C   UNL     1       2.901   0.313  -5.124  0.00  0.00    +0.010 A 
ATOM     31  C   UNL     1       3.369   1.300  -5.970  0.00  0.00    +0.001 A 
ATOM     32  C   UNL     1       4.025   0.957  -7.138  0.00  0.00    +0.003 A 
ATOM     33  C   UNL     1       4.214  -0.373  -7.459  0.00  0.00    +0.039 A 
ATOM     34  C   UNL     1       3.751  -1.363  -6.609  0.00  0.00    +0.130 A 
ATOM     35  F   UNL     1       3.939  -2.664  -6.920  0.00  0.00    -0.205 F 
ENDBRANCH  28  29
ENDBRANCH  27  28
ENDBRANCH  23  27
ENDBRANCH   1  20
BRANCH  15  36
ATOM     36  S   UNL     1       3.977  -6.686   3.159  0.00  0.00    -0.085 S 
BRANCH  36  37
ATOM     37  C   UNL     1       4.485  -8.419   2.990  0.00  0.00    +0.074 C 
ATOM     38  C   UNL     1       5.721  -8.675   3.854  0.00  0.00    +0.016 C 
ENDBRANCH  36  37
ENDBRANCH  15  36
TORSDOF 8
