REMARK  Name = ZINC36989465
REMARK  3 active torsions:
REMARK  status: ('A' for Active; 'I' for Inactive)
REMARK    1  A    between atoms: C_1  and  C_2
REMARK    2  A    between atoms: C_8  and  N_13
REMARK    3  A    between atoms: N_13  and  C_14
REMARK                            x       y       z     vdW  Elec       q    Type
REMARK                         _______ _______ _______ _____ _____    ______ ____
ROOT
ATOM      1  C   UNL     1      -0.018   1.503   0.010  0.00  0.00    +0.044 C 
ATOM      2  C   UNL     1       0.002  -0.004   0.002  0.00  0.00    -0.050 A 
ATOM      3  C   UNL     1       0.006  -0.691  -1.198  0.00  0.00    +0.005 A 
ATOM      4  C   UNL     1       0.025  -2.070  -1.213  0.00  0.00    +0.024 A 
ATOM      5  C   UNL     1       0.040  -2.782  -0.015  0.00  0.00    +0.039 A 
ATOM      6  C   UNL     1       0.037  -2.081   1.184  0.00  0.00    +0.003 A 
ATOM      7  C   UNL     1       0.023  -0.704   1.196  0.00  0.00    +0.011 A 
ATOM      8  C   UNL     1       0.056  -3.118   2.283  0.00  0.00    +0.190 C 
ATOM      9  C   UNL     1       0.071  -4.439   1.543  0.00  0.00    +0.242 C 
ATOM     10  O   UNL     1       0.088  -5.544   2.042  0.00  0.00    -0.273 OA
ATOM     11  N   UNL     1       0.060  -4.156   0.229  0.00  0.00    -0.283 N 
ATOM     12  H   UNL     1       0.066  -4.829  -0.469  0.00  0.00    +0.155 HD
ENDROOT
BRANCH   8  13
ATOM     13  N   UNL     1      -1.144  -3.006   3.116  0.00  0.00    -0.329 N 
ATOM     14  H   UNL     1      -1.954  -2.618   2.750  0.00  0.00    +0.147 HD
BRANCH  13  15
ATOM     15  C   UNL     1      -1.121  -3.459   4.440  0.00  0.00    +0.029 A 
ATOM     16  C   UNL     1       0.048  -4.011   4.965  0.00  0.00    +0.025 A 
ATOM     17  C   UNL     1       0.090  -4.459   6.254  0.00  0.00    +0.029 A 
ATOM     18  C   UNL     1      -1.040  -4.369   7.062  0.00  0.00    +0.066 A 
ATOM     19  C   UNL     1      -2.225  -3.813   6.543  0.00  0.00    +0.021 A 
ATOM     20  C   UNL     1      -2.254  -3.352   5.222  0.00  0.00    +0.034 A 
ATOM     21  C   UNL     1      -3.208  -3.860   7.621  0.00  0.00    +0.142 A 
ATOM     22  N   UNL     1      -2.634  -4.395   8.660  0.00  0.00    -0.181 NA
ATOM     23  N   UNL     1      -1.307  -4.721   8.362  0.00  0.00    -0.277 N 
ATOM     24  H   UNL     1      -0.676  -5.131   8.974  0.00  0.00    +0.189 HD
ENDBRANCH  13  15
ENDBRANCH   8  13
TORSDOF 2
