REMARK  Name = ZINC13192411
REMARK  11 active torsions:
REMARK  status: ('A' for Active; 'I' for Inactive)
REMARK    1  A    between atoms: C_1  and  C_2
REMARK    2  A    between atoms: C_2  and  C_3
REMARK    3  A    between atoms: C_2  and  C_4
REMARK    4  A    between atoms: C_7  and  C_10
REMARK    5  A    between atoms: C_10  and  C_11
REMARK    6  A    between atoms: C_11  and  N_12
REMARK    7  A    between atoms: N_12  and  C_13
REMARK    8  A    between atoms: C_16  and  S_22
REMARK    9  A    between atoms: C_18  and  N_19
REMARK   10  A    between atoms: S_22  and  N_25
REMARK   11  A    between atoms: C_28  and  C_31
REMARK                            x       y       z     vdW  Elec       q    Type
REMARK                         _______ _______ _______ _____ _____    ______ ____
ROOT
ATOM      1  C   UNL     1      -1.717   3.606   8.378  0.00  0.00    +0.058 A 
ATOM      2  C   UNL     1      -0.364   3.295   8.431  0.00  0.00    +0.027 A 
ATOM      3  C   UNL     1       0.408   3.756   9.478  0.00  0.00    +0.030 A 
ATOM      4  C   UNL     1      -0.163   4.527  10.474  0.00  0.00    +0.108 A 
ATOM      5  C   UNL     1      -1.510   4.838  10.425  0.00  0.00    +0.063 A 
ATOM      6  C   UNL     1      -2.287   4.385   9.377  0.00  0.00    +0.149 A 
ENDROOT
BRANCH   6   7
ATOM      7  N   UNL     1      -3.727   4.724   9.322  0.00  0.00    +0.058 N 
ATOM      8  O   UNL     1      -4.255   4.965   8.251  0.00  0.00    -0.126 OA
ATOM      9  O   UNL     1      -4.383   4.761  10.347  0.00  0.00    -0.126 OA
ENDBRANCH   6   7
BRANCH   4  10
ATOM     10  S   UNL     1       0.826   5.113  11.809  0.00  0.00    +0.061 S 
ATOM     11  O   UNL     1      -0.058   5.355  12.895  0.00  0.00    -0.153 OA
ATOM     12  O   UNL     1       1.935   4.230  11.911  0.00  0.00    -0.153 OA
BRANCH  10  13
ATOM     13  N   UNL     1       1.435   6.586  11.358  0.00  0.00    -0.177 NA
ATOM     14  C   UNL     1       2.724   6.681  10.660  0.00  0.00    +0.110 C 
ATOM     15  C   UNL     1       3.628   7.654  11.415  0.00  0.00    +0.032 C 
ATOM     16  C   UNL     1       2.905   8.992  11.585  0.00  0.00    +0.105 C 
ATOM     17  C   UNL     1       1.627   8.783  12.402  0.00  0.00    +0.032 C 
ATOM     18  C   UNL     1       0.698   7.822  11.653  0.00  0.00    +0.110 C 
BRANCH  16  19
ATOM     19  C   UNL     1       3.806   9.962  12.303  0.00  0.00    +0.359 C 
ATOM     20  O   UNL     1       3.463  10.438  13.359  0.00  0.00    -0.246 OA
ATOM     21  O   UNL     1       4.991  10.298  11.769  0.00  0.00    -0.246 OA
ENDBRANCH  16  19
ENDBRANCH  10  13
ENDBRANCH   4  10
BRANCH   1  22
ATOM     22  N   UNL     1      -2.502   3.141   7.320  0.00  0.00    -0.342 N 
ATOM     23  H   UNL     1      -3.461   3.285   7.327  0.00  0.00    +0.146 HD
BRANCH  22  24
ATOM     24  C   UNL     1      -1.876   2.435   6.199  0.00  0.00    +0.106 C 
BRANCH  24  25
ATOM     25  C   UNL     1      -2.949   2.036   5.185  0.00  0.00    +0.054 C 
BRANCH  25  29
ATOM     26  C   UNL     1      -1.125  -0.024   1.917  0.00  0.00    -0.045 A 
ATOM     27  C   UNL     1      -1.264   1.351   1.877  0.00  0.00    +0.004 A 
ATOM     28  C   UNL     1      -1.858   2.017   2.932  0.00  0.00    +0.004 A 
ATOM     29  C   UNL     1      -2.306   1.309   4.032  0.00  0.00    -0.046 A 
ATOM     30  C   UNL     1      -2.163  -0.065   4.074  0.00  0.00    +0.004 A 
ATOM     31  C   UNL     1      -1.573  -0.731   3.017  0.00  0.00    +0.004 A 
BRANCH  26  33
ATOM     32  C   UNL     1       0.946  -0.235   0.570  0.00  0.00    +0.012 C 
ATOM     33  C   UNL     1      -0.482  -0.750   0.764  0.00  0.00    +0.013 C 
ATOM     34  C   UNL     1      -1.291  -0.502  -0.511  0.00  0.00    +0.012 C 
ENDBRANCH  26  33
ENDBRANCH  25  29
ENDBRANCH  24  25
ENDBRANCH  22  24
ENDBRANCH   1  22
TORSDOF 9
