REMARK  Name = ZINC13148692
REMARK  10 active torsions:
REMARK  status: ('A' for Active; 'I' for Inactive)
REMARK    1  A    between atoms: C_1  and  C_2
REMARK    2  A    between atoms: C_5  and  C_8
REMARK    3  A    between atoms: C_8  and  C_10
REMARK    4  A    between atoms: C_15  and  C_16
REMARK    5  A    between atoms: C_16  and  O_18
REMARK    6  A    between atoms: O_18  and  C_19
REMARK    7  A    between atoms: C_19  and  C_20
REMARK    8  A    between atoms: N_22  and  C_23
REMARK    9  A    between atoms: C_28  and  C_29
REMARK   10  A    between atoms: C_29  and  C_31
REMARK                            x       y       z     vdW  Elec       q    Type
REMARK                         _______ _______ _______ _____ _____    ______ ____
ROOT
ATOM      1  O   UNL     1      -3.119   6.564   0.201  0.00  0.00    -0.452 OA
ENDROOT
BRANCH   1   2
ATOM      2  C   UNL     1      -4.227   7.312   0.368  0.00  0.00    +0.340 C 
ATOM      3  O   UNL     1      -5.324   6.795   0.307  0.00  0.00    -0.245 OA
BRANCH   2   9
ATOM      4  C   UNL     1      -5.255   9.531   0.898  0.00  0.00    +0.036 A 
ATOM      5  C   UNL     1      -5.126  10.897   1.143  0.00  0.00    +0.012 A 
ATOM      6  C   UNL     1      -3.879  11.490   1.109  0.00  0.00    +0.001 A 
ATOM      7  C   UNL     1      -2.751  10.736   0.837  0.00  0.00    +0.001 A 
ATOM      8  C   UNL     1      -2.858   9.379   0.596  0.00  0.00    +0.016 A 
ATOM      9  C   UNL     1      -4.107   8.763   0.626  0.00  0.00    +0.070 A 
BRANCH   4  10
ATOM     10  C   UNL     1      -6.588   8.893   0.928  0.00  0.00    +0.194 C 
ATOM     11  O   UNL     1      -7.123   8.654   1.993  0.00  0.00    -0.287 OA
BRANCH  10  16
ATOM     12  C   UNL     1      -9.240   7.537  -3.995  0.00  0.00    +0.044 C 
ATOM     13  C   UNL     1      -8.546   7.893  -2.705  0.00  0.00    -0.050 A 
ATOM     14  C   UNL     1      -9.199   7.712  -1.499  0.00  0.00    +0.004 A 
ATOM     15  C   UNL     1      -8.569   8.034  -0.315  0.00  0.00    +0.012 A 
ATOM     16  C   UNL     1      -7.269   8.544  -0.336  0.00  0.00    +0.022 A 
ATOM     17  C   UNL     1      -6.617   8.729  -1.558  0.00  0.00    +0.012 A 
ATOM     18  C   UNL     1      -7.257   8.398  -2.733  0.00  0.00    +0.004 A 
ENDBRANCH  10  16
ENDBRANCH   4  10
ENDBRANCH   2   9
ENDBRANCH   1   2
BRANCH   1  19
ATOM     19  C   UNL     1      -3.313   5.147  -0.049  0.00  0.00    +0.328 C 
BRANCH  19  20
ATOM     20  C   UNL     1      -1.972   4.477  -0.209  0.00  0.00    +0.255 C 
ATOM     21  O   UNL     1      -0.954   5.130  -0.122  0.00  0.00    -0.272 OA
ATOM     22  N   UNL     1      -1.905   3.153  -0.450  0.00  0.00    -0.282 N 
ATOM     23  H   UNL     1      -2.718   2.645  -0.599  0.00  0.00    +0.155 HD
BRANCH  22  24
ATOM     24  C   UNL     1      -0.668   2.513  -0.484  0.00  0.00    +0.048 A 
ATOM     25  C   UNL     1       0.406   3.039   0.214  0.00  0.00    +0.073 A 
ATOM     26  C   UNL     1       1.638   2.405   0.181  0.00  0.00    +0.168 A 
ATOM     27  C   UNL     1       1.804   1.229  -0.558  0.00  0.00    +0.167 A 
ATOM     28  C   UNL     1       0.744   0.695  -1.257  0.00  0.00    +0.062 A 
ATOM     29  C   UNL     1      -0.504   1.333  -1.233  0.00  0.00    +0.042 A 
ATOM     30  O   UNL     1       3.098   0.811  -0.424  0.00  0.00    -0.453 OA
ATOM     31  C   UNL     1       3.609   1.510   0.727  0.00  0.00    +0.466 C 
ATOM     32  O   UNL     1       2.826   2.717   0.772  0.00  0.00    -0.453 OA
BRANCH  29  33
ATOM     33  C   UNL     1      -1.632   0.773  -1.980  0.00  0.00    +0.162 C 
ATOM     34  O   UNL     1      -2.679   1.383  -2.046  0.00  0.00    -0.292 OA
ATOM     35  C   UNL     1      -1.493  -0.561  -2.666  0.00  0.00    +0.091 C 
ENDBRANCH  29  33
ENDBRANCH  22  24
ENDBRANCH  19  20
ENDBRANCH   1  19
TORSDOF 8
