REMARK  Name = ZINC35173421
REMARK  10 active torsions:
REMARK  status: ('A' for Active; 'I' for Inactive)
REMARK    1  A    between atoms: C_1  and  O_2
REMARK    2  A    between atoms: O_2  and  C_3
REMARK    3  A    between atoms: C_5  and  C_11
REMARK    4  A    between atoms: C_7  and  O_9
REMARK    5  A    between atoms: O_9  and  C_10
REMARK    6  A    between atoms: N_21  and  C_22
REMARK    7  A    between atoms: C_22  and  C_23
REMARK    8  A    between atoms: N_25  and  C_26
REMARK    9  A    between atoms: C_26  and  C_27
REMARK   10  A    between atoms: C_27  and  C_28
REMARK                            x       y       z     vdW  Elec       q    Type
REMARK                         _______ _______ _______ _____ _____    ______ ____
ROOT
ATOM      1  C   UNL     1       1.379  -4.059   2.345  0.00  0.00    +0.011 C 
ATOM      2  C   UNL     1       0.464  -4.611   3.411  0.00  0.00    +0.009 A 
ATOM      3  C   UNL     1      -0.666  -4.035   3.866  0.00  0.00    +0.021 A 
ATOM      4  C   UNL     1      -1.213  -4.892   4.842  0.00  0.00    +0.019 A 
ATOM      5  C   UNL     1      -0.394  -5.958   4.949  0.00  0.00    +0.086 A 
ATOM      6  N   UNL     1       0.641  -5.788   4.080  0.00  0.00    -0.352 N 
ATOM      7  C   UNL     1       1.776  -6.698   3.889  0.00  0.00    +0.119 C 
ATOM      8  C   UNL     1       2.006  -6.898   2.388  0.00  0.00    +0.003 C 
ATOM      9  C   UNL     1       2.945  -5.818   1.864  0.00  0.00    -0.075 C 
ATOM     10  N   UNL     1       2.744  -4.553   2.574  0.00  0.00    +0.394 N 
ATOM     11  H   UNL     1       2.886  -4.699   3.562  0.00  0.00    -0.080 HD
ENDROOT
BRANCH   1  14
ATOM     12  C   UNL     1       1.791  -0.521   3.610  0.00  0.00    +0.124 A 
ATOM     13  C   UNL     1       1.796  -1.908   3.552  0.00  0.00    +0.048 A 
ATOM     14  C   UNL     1       1.372  -2.554   2.406  0.00  0.00    -0.048 A 
ATOM     15  C   UNL     1       0.942  -1.821   1.316  0.00  0.00    +0.048 A 
ATOM     16  C   UNL     1       0.935  -0.435   1.370  0.00  0.00    +0.124 A 
ATOM     17  C   UNL     1       1.354   0.216   2.520  0.00  0.00    +0.091 A 
BRANCH  12  19
ATOM     18  C   UNL     1       2.170   1.542   4.729  0.00  0.00    +0.277 C 
ATOM     19  O   UNL     1       2.208   0.114   4.737  0.00  0.00    -0.495 OA
ENDBRANCH  12  19
BRANCH  16  20
ATOM     20  O   UNL     1       0.512   0.285   0.297  0.00  0.00    -0.495 OA
ATOM     21  C   UNL     1       0.532   1.708   0.423  0.00  0.00    +0.277 C 
ENDBRANCH  16  20
ENDBRANCH   1  14
BRANCH  10  22
ATOM     22  C   UNL     1       3.710  -3.560   2.085  0.00  0.00    +0.020 C 
BRANCH  22  23
ATOM     23  C   UNL     1       5.105  -3.989   2.462  0.00  0.00    +0.197 C 
ATOM     24  O   UNL     1       5.277  -5.020   3.076  0.00  0.00    -0.278 OA
ATOM     25  N   UNL     1       6.160  -3.226   2.115  0.00  0.00    -0.317 N 
ATOM     26  H   UNL     1       6.023  -2.401   1.624  0.00  0.00    +0.149 HD
BRANCH  25  27
ATOM     27  C   UNL     1       7.516  -3.643   2.481  0.00  0.00    +0.109 C 
BRANCH  27  28
ATOM     28  C   UNL     1       8.523  -2.608   1.972  0.00  0.00    +0.055 C 
BRANCH  28  29
ATOM     29  C   UNL     1       9.918  -3.037   2.349  0.00  0.00    -0.027 A 
ATOM     30  C   UNL     1      10.500  -2.555   3.506  0.00  0.00    +0.006 A 
ATOM     31  C   UNL     1      11.779  -2.948   3.852  0.00  0.00    +0.020 A 
ATOM     32  C   UNL     1      12.477  -3.824   3.040  0.00  0.00    +0.042 A 
ATOM     33  C   UNL     1      11.895  -4.306   1.882  0.00  0.00    +0.040 A 
ATOM     34  C   UNL     1      10.613  -3.917   1.539  0.00  0.00    +0.046 A 
ATOM     35 CL   UNL     1       9.879  -4.526   0.088  0.00  0.00    -0.083 Cl
ATOM     36 CL   UNL     1      14.085  -4.316   3.474  0.00  0.00    -0.083 Cl
ENDBRANCH  28  29
ENDBRANCH  27  28
ENDBRANCH  25  27
ENDBRANCH  22  23
ENDBRANCH  10  22
TORSDOF 8
