REMARK  Name = ZINC21249608
REMARK  12 active torsions:
REMARK  status: ('A' for Active; 'I' for Inactive)
REMARK    1  A    between atoms: C_1  and  C_2
REMARK    2  A    between atoms: C_2  and  C_3
REMARK    3  A    between atoms: C_2  and  O_4
REMARK    4  A    between atoms: O_4  and  C_5
REMARK    5  A    between atoms: C_8  and  C_13
REMARK    6  A    between atoms: C_10  and  O_11
REMARK    7  A    between atoms: O_11  and  C_12
REMARK    8  A    between atoms: C_18  and  C_28
REMARK    9  A    between atoms: C_32  and  O_36
REMARK   10  A    between atoms: C_33  and  O_34
REMARK   11  A    between atoms: O_34  and  C_35
REMARK   12  A    between atoms: O_36  and  C_37
REMARK                            x       y       z     vdW  Elec       q    Type
REMARK                         _______ _______ _______ _____ _____    ______ ____
ROOT
ATOM      1  C   UNL     1      -0.996   2.950  -3.957  0.00  0.00    +0.032 C 
ATOM      2  C   UNL     1      -2.325   3.511  -4.460  0.00  0.00    +0.059 C 
ATOM      3  C   UNL     1      -3.119   4.086  -3.300  0.00  0.00    +0.017 C 
ATOM      4  C   UNL     1      -3.017   3.555  -2.071  0.00  0.00    +0.037 C 
ATOM      5  C   UNL     1      -3.755   4.015  -0.838  0.00  0.00    +0.140 C 
ATOM      6  N   UNL     1      -4.827   4.954  -1.097  0.00  0.00    -0.331 N 
ATOM      7  C   UNL     1      -4.561   6.220  -1.614  0.00  0.00    +0.049 A 
ATOM      8  C   UNL     1      -4.814   7.370  -0.883  0.00  0.00    +0.025 A 
ATOM      9  C   UNL     1      -4.490   8.603  -1.422  0.00  0.00    +0.002 A 
ATOM     10  C   UNL     1      -3.914   8.690  -2.676  0.00  0.00    +0.002 A 
ATOM     11  C   UNL     1      -3.677   7.544  -3.417  0.00  0.00    +0.025 A 
ATOM     12  C   UNL     1      -4.022   6.312  -2.889  0.00  0.00    +0.052 A 
ATOM     13  N   UNL     1      -3.919   5.135  -3.621  0.00  0.00    -0.316 N 
ATOM     14  C   UNL     1      -2.154   2.454  -1.841  0.00  0.00    +0.163 C 
ATOM     15  O   UNL     1      -2.094   1.979  -0.724  0.00  0.00    -0.292 OA
ATOM     16  C   UNL     1      -1.311   1.857  -2.928  0.00  0.00    +0.088 C 
ATOM     17  H   UNL     1      -5.868   4.671  -0.884  0.00  0.00    +0.147 HD
ATOM     18  H   UNL     1      -4.550   5.090  -4.521  0.00  0.00    +0.152 HD
ENDROOT
BRANCH   1  22
ATOM     19  C   UNL     1       1.198   1.278  -7.225  0.00  0.00    +0.162 A 
ATOM     20  C   UNL     1      -0.054   0.781  -6.900  0.00  0.00    +0.050 A 
ATOM     21  C   UNL     1      -0.761   1.323  -5.843  0.00  0.00    +0.008 A 
ATOM     22  C   UNL     1      -0.221   2.362  -5.107  0.00  0.00    -0.040 A 
ATOM     23  C   UNL     1       1.025   2.866  -5.429  0.00  0.00    +0.053 A 
ATOM     24  C   UNL     1       1.741   2.324  -6.484  0.00  0.00    +0.162 A 
BRANCH  24  25
ATOM     25  O   UNL     1       2.969   2.815  -6.799  0.00  0.00    -0.491 OA
ATOM     26  C   UNL     1       3.463   3.889  -5.995  0.00  0.00    +0.277 C 
ENDBRANCH  24  25
BRANCH  19  27
ATOM     27  O   UNL     1       1.894   0.746  -8.265  0.00  0.00    -0.486 OA
BRANCH  27  29
ATOM     28  C   UNL     1       0.320   0.060  -9.966  0.00  0.00    +0.051 C 
ATOM     29  C   UNL     1       1.327  -0.397  -8.908  0.00  0.00    +0.167 C 
ATOM     30  C   UNL     1       2.437  -1.209  -9.578  0.00  0.00    +0.051 C 
ENDBRANCH  27  29
ENDBRANCH  19  27
ENDBRANCH   1  22
BRANCH   5  31
ATOM     31  C   UNL     1      -2.767   4.665   0.096  0.00  0.00    +0.023 A 
ATOM     32  C   UNL     1      -1.570   5.154  -0.396  0.00  0.00    +0.009 A 
ATOM     33  C   UNL     1      -0.662   5.750   0.458  0.00  0.00    +0.004 A 
ATOM     34  C   UNL     1      -0.945   5.861   1.807  0.00  0.00    +0.049 A 
ATOM     35  C   UNL     1      -2.145   5.378   2.304  0.00  0.00    +0.162 A 
ATOM     36  C   UNL     1      -3.057   4.772   1.446  0.00  0.00    +0.167 A 
BRANCH  36  37
ATOM     37  O   UNL     1      -4.234   4.292   1.930  0.00  0.00    -0.491 OA
ATOM     38  C   UNL     1      -4.220   2.971   2.476  0.00  0.00    +0.277 C 
ENDBRANCH  36  37
BRANCH  35  39
ATOM     39  O   UNL     1      -2.428   5.491   3.630  0.00  0.00    -0.491 OA
ATOM     40  C   UNL     1      -1.444   6.125   4.451  0.00  0.00    +0.277 C 
ENDBRANCH  35  39
ENDBRANCH   5  31
TORSDOF 7
