REMARK  Name = ZINC49071476
REMARK  8 active torsions:
REMARK  status: ('A' for Active; 'I' for Inactive)
REMARK    1  A    between atoms: C_1  and  C_2
REMARK    2  A    between atoms: C_2  and  C_3
REMARK    3  A    between atoms: C_3  and  S_4
REMARK    4  A    between atoms: S_4  and  N_7
REMARK    5  A    between atoms: C_16  and  O_19
REMARK    6  A    between atoms: O_19  and  C_20
REMARK    7  A    between atoms: C_20  and  C_21
REMARK    8  A    between atoms: N_29  and  C_30
REMARK                            x       y       z     vdW  Elec       q    Type
REMARK                         _______ _______ _______ _____ _____    ______ ____
ROOT
ATOM      1  N   UNL     1       1.576  -2.661   2.636  0.00  0.00    -0.178 NA
ATOM      2  C   UNL     1       3.037  -2.823   2.612  0.00  0.00    +0.128 C 
ATOM      3  C   UNL     1       3.647  -1.924   3.694  0.00  0.00    +0.123 C 
ATOM      4  N   UNL     1       2.929  -2.153   4.956  0.00  0.00    -0.314 N 
ATOM      5  C   UNL     1       1.469  -1.991   4.979  0.00  0.00    +0.123 C 
ATOM      6  C   UNL     1       0.859  -2.885   3.898  0.00  0.00    +0.128 C 
ATOM      7  C   UNL     1       3.620  -2.518   6.108  0.00  0.00    +0.099 A 
ATOM      8  C   UNL     1       4.985  -2.780   6.039  0.00  0.00    +0.045 A 
ATOM      9  C   UNL     1       5.661  -3.141   7.189  0.00  0.00    +0.050 A 
ATOM     10  C   UNL     1       4.944  -3.231   8.380  0.00  0.00    +0.136 A 
ATOM     11  C   UNL     1       3.587  -2.956   8.374  0.00  0.00    +0.130 A 
ATOM     12  N   UNL     1       2.973  -2.608   7.259  0.00  0.00    -0.346 N 
ATOM     13  H   UNL     1       2.022  -2.417   7.282  0.00  0.00    +0.167 HD
ENDROOT
BRANCH   1  14
ATOM     14  S   UNL     1       0.754  -2.227   1.265  0.00  0.00    +0.032 S 
ATOM     15  O   UNL     1      -0.557  -2.740   1.451  0.00  0.00    -0.158 OA
ATOM     16  O   UNL     1       1.567  -2.686   0.194  0.00  0.00    -0.158 OA
BRANCH  14  17
ATOM     17  C   UNL     1       0.725  -0.413   1.294  0.00  0.00    +0.185 C 
BRANCH  17  19
ATOM     18  C   UNL     1      -0.043   1.634   0.085  0.00  0.00    +0.005 C 
ATOM     19  C   UNL     1      -0.018   0.105   0.061  0.00  0.00    +0.021 C 
ENDBRANCH  17  19
ENDBRANCH  14  17
ENDBRANCH   1  14
BRANCH  10  20
ATOM     20  O   UNL     1       5.570  -3.584   9.535  0.00  0.00    -0.490 OA
BRANCH  20  21
ATOM     21  C   UNL     1       4.765  -3.653  10.714  0.00  0.00    +0.232 C 
BRANCH  21  22
ATOM     22  C   UNL     1       5.637  -4.062  11.903  0.00  0.00    +0.030 C 
ATOM     23  C   UNL     1       6.162  -5.483  11.685  0.00  0.00    +0.026 C 
ATOM     24  C   UNL     1       7.062  -5.876  12.861  0.00  0.00    +0.109 C 
ATOM     25  N   UNL     1       6.312  -5.695  14.111  0.00  0.00    -0.286 N 
ATOM     26  C   UNL     1       5.688  -4.392  14.378  0.00  0.00    +0.109 C 
ATOM     27  C   UNL     1       4.803  -4.016  13.186  0.00  0.00    +0.026 C 
ATOM     28  C   UNL     1       6.199  -6.705  14.997  0.00  0.00    +0.302 C 
ATOM     29  O   UNL     1       6.800  -7.746  14.812  0.00  0.00    -0.253 OA
ATOM     30  N   UNL     1       5.419  -6.562  16.087  0.00  0.00    -0.296 N 
ATOM     31  H   UNL     1       4.880  -5.763  16.195  0.00  0.00    +0.151 HD
BRANCH  30  32
ATOM     32  C   UNL     1       5.386  -7.612  17.107  0.00  0.00    +0.074 C 
ATOM     33  C   UNL     1       6.542  -7.407  18.088  0.00  0.00    +0.022 C 
ATOM     34  C   UNL     1       6.508  -8.504  19.154  0.00  0.00    +0.002 C 
ATOM     35  C   UNL     1       5.180  -8.439  19.910  0.00  0.00    +0.000 C 
ATOM     36  C   UNL     1       4.023  -8.644  18.929  0.00  0.00    +0.002 C 
ATOM     37  C   UNL     1       4.058  -7.547  17.863  0.00  0.00    +0.022 C 
ENDBRANCH  30  32
ENDBRANCH  21  22
ENDBRANCH  20  21
ENDBRANCH  10  20
TORSDOF 7
