REMARK  Name = ZINC13359662
REMARK  4 active torsions:
REMARK  status: ('A' for Active; 'I' for Inactive)
REMARK    1  A    between atoms: C_1  and  C_2
REMARK    2  A    between atoms: N_6  and  O_7
REMARK    3  A    between atoms: C_19  and  C_27
REMARK    4  A    between atoms: N_25  and  O_26
REMARK                            x       y       z     vdW  Elec       q    Type
REMARK                         _______ _______ _______ _____ _____    ______ ____
ROOT
ATOM      1  C   UNL     1      -0.067   1.579  -0.132  0.00  0.00    +0.012 C 
ATOM      2  C   UNL     1      -0.025   0.047  -0.126  0.00  0.00    -0.025 C 
ATOM      3  C   UNL     1       0.644  -0.451  -1.405  0.00  0.00    +0.013 C 
ATOM      4  C   UNL     1       2.070   0.101  -1.506  0.00  0.00    +0.055 C 
ATOM      5  C   UNL     1       2.820  -0.210  -0.232  0.00  0.00    +0.058 C 
ATOM      6  N   UNL     1       3.983  -0.744  -0.269  0.00  0.00    -0.097 NA
ATOM      7  C   UNL     1       2.167   0.125   1.093  0.00  0.00    +0.058 C 
ATOM      8  C   UNL     1       0.752  -0.458   1.090  0.00  0.00    +0.001 C 
ATOM      9  C   UNL     1       0.035  -0.121   2.394  0.00  0.00    +0.005 C 
ATOM     10  C   UNL     1      -1.347  -0.791   2.423  0.00  0.00    +0.004 C 
ATOM     11  C   UNL     1      -1.562  -1.494   1.089  0.00  0.00    -0.003 C 
ATOM     12  C   UNL     1      -1.466  -0.465  -0.042  0.00  0.00    -0.001 C 
ATOM     13  C   UNL     1      -1.955  -1.078  -1.344  0.00  0.00    +0.005 C 
ATOM     14  C   UNL     1      -3.462  -1.373  -1.279  0.00  0.00    +0.013 C 
ATOM     15  C   UNL     1      -3.914  -1.583   0.143  0.00  0.00    +0.012 C 
ATOM     16  C   UNL     1      -2.829  -2.284   0.983  0.00  0.00    +0.004 C 
ATOM     17  C   UNL     1      -3.590  -2.580   2.284  0.00  0.00    +0.010 C 
ATOM     18  C   UNL     1      -4.989  -3.009   1.760  0.00  0.00    +0.055 C 
ATOM     19  C   UNL     1      -5.066  -2.562   0.304  0.00  0.00    +0.064 C 
ATOM     20  N   UNL     1      -5.899  -2.917  -0.589  0.00  0.00    -0.096 NA
ATOM     21  C   UNL     1      -4.378  -0.266   0.768  0.00  0.00    +0.018 C 
ENDROOT
BRANCH   6  22
ATOM     22  O   UNL     1       4.582  -1.051  -1.514  0.00  0.00    -0.409 OA
ATOM     23  H   UNL     1       5.459  -1.451  -1.441  0.00  0.00    +0.328 HD
ENDBRANCH   6  22
BRANCH  20  24
ATOM     24  O   UNL     1      -6.921  -3.846  -0.275  0.00  0.00    -0.409 OA
ATOM     25  H   UNL     1      -7.505  -4.054  -1.017  0.00  0.00    +0.328 HD
ENDBRANCH  20  24
TORSDOF 2
