REMARK  Name = ZINC01422290
REMARK  6 active torsions:
REMARK  status: ('A' for Active; 'I' for Inactive)
REMARK    1  A    between atoms: C_1  and  C_2
REMARK    2  A    between atoms: C_9  and  C_29
REMARK    3  A    between atoms: C_10  and  N_28
REMARK    4  A    between atoms: N_11  and  C_21
REMARK    5  A    between atoms: C_17  and  C_19
REMARK    6  A    between atoms: C_17  and  C_20
REMARK                            x       y       z     vdW  Elec       q    Type
REMARK                         _______ _______ _______ _____ _____    ______ ____
ROOT
ATOM      1  C   UNL     1       0.937  -4.460  -0.050  0.00  0.00    +0.044 C 
ATOM      2  C   UNL     1       2.333  -3.892  -0.062  0.00  0.00    -0.050 A 
ATOM      3  C   UNL     1       3.412  -4.753  -0.089  0.00  0.00    +0.005 A 
ATOM      4  C   UNL     1       4.719  -4.291  -0.101  0.00  0.00    +0.024 A 
ATOM      5  C   UNL     1       4.908  -2.908  -0.085  0.00  0.00    +0.038 A 
ATOM      6  C   UNL     1       3.805  -2.047  -0.057  0.00  0.00    -0.001 A 
ATOM      7  C   UNL     1       2.508  -2.513  -0.045  0.00  0.00    +0.010 A 
ATOM      8  C   UNL     1       4.357  -0.654  -0.044  0.00  0.00    +0.141 C 
ATOM      9  C   UNL     1       3.957   0.070   1.206  0.00  0.00    +0.089 C 
ATOM     10  C   UNL     1       3.008   1.042   1.176  0.00  0.00    +0.108 C 
ATOM     11  N   UNL     1       2.402   1.379  -0.013  0.00  0.00    -0.257 N 
ATOM     12  C   UNL     1       2.980   1.051  -1.211  0.00  0.00    +0.026 C 
ATOM     13  C   UNL     1       3.929   0.094  -1.279  0.00  0.00    +0.037 C 
ATOM     14  C   UNL     1       4.541  -0.234  -2.501  0.00  0.00    +0.163 C 
ATOM     15  O   UNL     1       5.382  -1.111  -2.530  0.00  0.00    -0.292 OA
ATOM     16  C   UNL     1       4.177   0.480  -3.774  0.00  0.00    +0.086 C 
ATOM     17  C   UNL     1       3.704   1.897  -3.433  0.00  0.00    -0.023 C 
ATOM     18  C   UNL     1       2.537   1.795  -2.448  0.00  0.00    +0.058 C 
ATOM     19  C   UNL     1       4.850   2.682  -2.791  0.00  0.00    +0.011 C 
ATOM     20  C   UNL     1       3.240   2.606  -4.707  0.00  0.00    +0.011 C 
ATOM     21  C   UNL     1       5.860  -0.853  -0.068  0.00  0.00    +0.238 C 
ATOM     22  O   UNL     1       6.702   0.021  -0.066  0.00  0.00    -0.274 OA
ATOM     23  N   UNL     1       6.085  -2.182  -0.091  0.00  0.00    -0.284 N 
ATOM     24  H   UNL     1       6.968  -2.582  -0.110  0.00  0.00    +0.155 HD
ENDROOT
BRANCH  11  25
ATOM     25  C   UNL     1       1.178   2.060   0.002  0.00  0.00    +0.075 A 
ATOM     26  C   UNL     1       1.154   3.448   0.010  0.00  0.00    +0.027 A 
ATOM     27  C   UNL     1      -0.055   4.117   0.025  0.00  0.00    +0.002 A 
ATOM     28  C   UNL     1      -1.241   3.406   0.032  0.00  0.00    +0.003 A 
ATOM     29  C   UNL     1      -1.223   2.023   0.019  0.00  0.00    +0.040 A 
ATOM     30  C   UNL     1      -0.016   1.347   0.009  0.00  0.00    +0.145 A 
ATOM     31  F   UNL     1       0.002  -0.004   0.002  0.00  0.00    -0.204 F 
ENDBRANCH  11  25
BRANCH  10  32
ATOM     32  N   UNL     1       2.652   1.689   2.335  0.00  0.00    -0.345 N 
ATOM     33  H   UNL     1       1.974   2.383   2.314  0.00  0.00    +0.144 HD
ATOM     34  H   UNL     1       3.079   1.453   3.173  0.00  0.00    +0.144 HD
ENDBRANCH  10  32
BRANCH   9  35
ATOM     35  C   UNL     1       4.584  -0.267   2.449  0.00  0.00    +0.100 C 
ATOM     36  N   UNL     1       5.081  -0.534   3.434  0.00  0.00    -0.191 NA
ENDBRANCH   9  35
TORSDOF 3
