REMARK  Name = ZINC04497997
REMARK  12 active torsions:
REMARK  status: ('A' for Active; 'I' for Inactive)
REMARK    1  A    between atoms: C_1  and  N_60
REMARK    2  A    between atoms: C_2  and  N_60
REMARK    3  A    between atoms: C_3  and  C_4
REMARK    4  A    between atoms: C_3  and  N_60
REMARK    5  A    between atoms: C_4  and  C_5
REMARK    6  A    between atoms: C_5  and  N_6
REMARK    7  A    between atoms: C_7  and  C_9
REMARK    8  A    between atoms: C_9  and  N_25
REMARK    9  A    between atoms: C_10  and  C_11
REMARK   10  A    between atoms: C_14  and  C_16
REMARK   11  A    between atoms: C_19  and  N_22
REMARK   12  A    between atoms: C_26  and  C_28
REMARK                            x       y       z     vdW  Elec       q    Type
REMARK                         _______ _______ _______ _____ _____    ______ ____
ROOT
ATOM      1  C   UNL     1      -1.151  -2.043  -0.116  0.00  0.00    +0.100 C 
ATOM      2  C   UNL     1      -2.367  -2.738  -0.169  0.00  0.00    +0.074 C 
ENDROOT
BRANCH   2   3
ATOM      3  C   UNL     1      -2.376  -4.125  -0.124  0.00  0.00    +0.131 A 
ATOM      4  C   UNL     1      -3.553  -4.994  -0.276  0.00  0.00    +0.050 A 
ATOM      5  C   UNL     1      -3.102  -6.269  -0.164  0.00  0.00    +0.050 A 
ATOM      6  C   UNL     1      -1.702  -6.210   0.048  0.00  0.00    +0.136 A 
ATOM      7  O   UNL     1      -1.304  -4.927   0.060  0.00  0.00    -0.455 OA
BRANCH   6   8
ATOM      8  C   UNL     1      -0.851  -7.332   0.214  0.00  0.00    +0.017 A 
ATOM      9  C   UNL     1      -1.382  -8.636   0.181  0.00  0.00    +0.014 A 
ATOM     10  C   UNL     1      -0.552  -9.709   0.338  0.00  0.00    +0.033 A 
ATOM     11  C   UNL     1       0.807  -9.518   0.540  0.00  0.00    +0.126 A 
ATOM     12  C   UNL     1       1.340  -8.238   0.580  0.00  0.00    +0.033 A 
ATOM     13  C   UNL     1       0.530  -7.150   0.420  0.00  0.00    +0.014 A 
BRANCH  11  14
ATOM     14  N   UNL     1       1.696 -10.690   0.714  0.00  0.00    +0.056 N 
ATOM     15  O   UNL     1       2.986 -10.514   0.906  0.00  0.00    -0.126 OA
ATOM     16  O   UNL     1       1.195 -11.907   0.677  0.00  0.00    -0.126 OA
ENDBRANCH  11  14
ENDBRANCH   6   8
ENDBRANCH   2   3
BRANCH   1  18
ATOM     17  N   UNL     1       0.739  -3.107   1.038  0.00  0.00    -0.310 N 
ATOM     18  C   UNL     1       0.135  -2.792  -0.124  0.00  0.00    +0.258 C 
ATOM     19  O   UNL     1       0.640  -3.119  -1.179  0.00  0.00    -0.269 OA
ATOM     20  H   UNL     1       0.298  -2.918   1.881  0.00  0.00    +0.149 HD
BRANCH  17  21
ATOM     21  C   UNL     1       2.063  -3.736   1.030  0.00  0.00    +0.103 C 
BRANCH  21  22
ATOM     22  C   UNL     1       2.518  -3.986   2.469  0.00  0.00    +0.000 C 
BRANCH  22  23
ATOM     23  C   UNL     1       3.900  -4.643   2.459  0.00  0.00    -0.078 C 
BRANCH  23  26
ATOM     24  C   UNL     1       3.481  -5.881   4.498  0.00  0.00    -0.097 C 
ATOM     25  C   UNL     1       5.748  -5.291   3.884  0.00  0.00    -0.097 C 
ATOM     26  N   UNL     1       4.335  -4.859   3.856  0.00  0.00    +0.376 N 
ATOM     27  H   UNL     1       4.245  -3.977   4.373  0.00  0.00    -0.083 HD
ENDBRANCH  23  26
ENDBRANCH  22  23
ENDBRANCH  21  22
ENDBRANCH  17  21
ENDBRANCH   1  18
BRANCH   1  28
ATOM     28  N   UNL     1      -1.147  -0.693  -0.056  0.00  0.00    -0.277 N 
ATOM     29  C   UNL     1       0.019  -0.020  -0.112  0.00  0.00    +0.248 C 
ATOM     30  O   UNL     1       1.071  -0.628  -0.120  0.00  0.00    -0.270 OA
ATOM     31  H   UNL     1      -1.983  -0.209   0.026  0.00  0.00    +0.155 HD
BRANCH  29  32
ATOM     32  C   UNL     1       0.018   1.456  -0.162  0.00  0.00    +0.037 A 
ATOM     33  C   UNL     1      -1.189   2.157  -0.158  0.00  0.00    +0.013 A 
ATOM     34  C   UNL     1      -1.183   3.536  -0.200  0.00  0.00    +0.001 A 
ATOM     35  C   UNL     1       0.017   4.224  -0.257  0.00  0.00    +0.000 A 
ATOM     36  C   UNL     1       1.217   3.535  -0.267  0.00  0.00    +0.001 A 
ATOM     37  C   UNL     1       1.225   2.157  -0.219  0.00  0.00    +0.013 A 
ENDBRANCH  29  32
ENDBRANCH   1  28
TORSDOF 10
