REMARK  Name = ZINC35747205
REMARK  15 active torsions:
REMARK  status: ('A' for Active; 'I' for Inactive)
REMARK    1  A    between atoms: C_1  and  C_2
REMARK    2  A    between atoms: C_5  and  C_8
REMARK    3  A    between atoms: C_17  and  C_19
REMARK    4  A    between atoms: C_19  and  N_20
REMARK    5  A    between atoms: N_20  and  C_21
REMARK    6  A    between atoms: N_20  and  C_34
REMARK    7  A    between atoms: C_21  and  C_22
REMARK    8  A    between atoms: C_22  and  C_24
REMARK    9  A    between atoms: C_22  and  O_33
REMARK   10  A    between atoms: C_24  and  O_25
REMARK   11  A    between atoms: O_25  and  C_26
REMARK   12  A    between atoms: C_31  and  C_32
REMARK   13  A    between atoms: C_34  and  C_35
REMARK   14  A    between atoms: C_35  and  C_36
REMARK   15  A    between atoms: C_35  and  C_37
REMARK                            x       y       z     vdW  Elec       q    Type
REMARK                         _______ _______ _______ _____ _____    ______ ____
ROOT
ATOM      1  C   UNL     1       4.451  -7.926   2.506  0.00  0.00    -0.003 C 
ENDROOT
BRANCH   1  11
ATOM      2  C   UNL     1       9.644  -8.807   0.329  0.00  0.00    +0.004 A 
ATOM      3  C   UNL     1       9.681  -9.871  -0.510  0.00  0.00    +0.056 A 
ATOM      4  S   UNL     1       8.001 -10.465  -0.497  0.00  0.00    -0.076 S 
ATOM      5  C   UNL     1       7.294  -9.284   0.622  0.00  0.00    +0.116 A 
ATOM      6  C   UNL     1       8.379  -8.460   0.964  0.00  0.00    +0.080 A 
ATOM      7  C   UNL     1       8.086  -7.399   1.880  0.00  0.00    +0.260 A 
ATOM      8  O   UNL     1       8.962  -6.628   2.234  0.00  0.00    -0.267 OA
ATOM      9  N   UNL     1       6.830  -7.266   2.344  0.00  0.00    -0.312 N 
ATOM     10  H   UNL     1       6.626  -6.549   2.965  0.00  0.00    +0.170 HD
ATOM     11  C   UNL     1       5.843  -8.115   1.961  0.00  0.00    +0.094 A 
ATOM     12  N   UNL     1       6.076  -9.086   1.119  0.00  0.00    -0.229 NA
BRANCH   2  17
ATOM     13  C   UNL     1      14.398  -5.732   1.378  0.00  0.00    +0.044 C 
ATOM     14  C   UNL     1      13.154  -6.537   1.103  0.00  0.00    -0.050 A 
ATOM     15  C   UNL     1      13.188  -7.916   1.210  0.00  0.00    +0.004 A 
ATOM     16  C   UNL     1      12.052  -8.658   0.959  0.00  0.00    +0.009 A 
ATOM     17  C   UNL     1      10.868  -8.016   0.599  0.00  0.00    -0.017 A 
ATOM     18  C   UNL     1      10.839  -6.626   0.494  0.00  0.00    +0.009 A 
ATOM     19  C   UNL     1      11.981  -5.894   0.751  0.00  0.00    +0.004 A 
ENDBRANCH   2  17
ENDBRANCH   1  11
BRANCH   1  20
ATOM     20  N   UNL     1       3.595  -9.034   2.059  0.00  0.00    +0.386 N 
ATOM     21  H   UNL     1       3.651  -9.118   1.055  0.00  0.00    -0.081 HD
BRANCH  20  22
ATOM     22  C   UNL     1       4.049 -10.285   2.681  0.00  0.00    -0.043 C 
BRANCH  22  23
ATOM     23  C   UNL     1       3.280 -11.463   2.078  0.00  0.00    +0.135 C 
BRANCH  23  24
ATOM     24  O   UNL     1       1.916 -11.406   2.500  0.00  0.00    -0.390 OA
ATOM     25  H   UNL     1       1.799 -11.450   3.459  0.00  0.00    +0.210 HD
ENDBRANCH  23  24
BRANCH  23  26
ATOM     26  C   UNL     1       3.907 -12.776   2.550  0.00  0.00    +0.258 C 
BRANCH  26  27
ATOM     27  O   UNL     1       3.264 -13.872   1.897  0.00  0.00    -0.489 OA
BRANCH  27  28
ATOM     28  C   UNL     1       3.704 -15.120   2.207  0.00  0.00    +0.124 A 
ATOM     29  C   UNL     1       4.731 -15.286   3.125  0.00  0.00    +0.046 A 
ATOM     30  C   UNL     1       5.177 -16.555   3.439  0.00  0.00    +0.004 A 
ATOM     31  C   UNL     1       4.601 -17.660   2.839  0.00  0.00    +0.000 A 
ATOM     32  C   UNL     1       3.578 -17.497   1.923  0.00  0.00    +0.007 A 
ATOM     33  C   UNL     1       3.125 -16.230   1.610  0.00  0.00    -0.009 A 
ATOM     34  C   UNL     1       2.006 -16.053   0.616  0.00  0.00    +0.047 C 
ENDBRANCH  27  28
ENDBRANCH  26  27
ENDBRANCH  23  26
ENDBRANCH  22  23
ENDBRANCH  20  22
BRANCH  20  35
ATOM     35  C   UNL     1       2.205  -8.768   2.452  0.00  0.00    -0.075 C 
BRANCH  35  36
ATOM     36  C   UNL     1       1.714  -7.494   1.761  0.00  0.00    -0.034 C 
ATOM     37  C   UNL     1       1.809  -7.667   0.244  0.00  0.00    +0.005 C 
ATOM     38  C   UNL     1       0.260  -7.228   2.155  0.00  0.00    +0.005 C 
ENDBRANCH  35  36
ENDBRANCH  20  35
ENDBRANCH   1  20
TORSDOF 11
