REMARK  Name = ZINC36534520
REMARK  14 active torsions:
REMARK  status: ('A' for Active; 'I' for Inactive)
REMARK    1  A    between atoms: C_1  and  C_2
REMARK    2  A    between atoms: C_2  and  C_3
REMARK    3  A    between atoms: C_2  and  C_4
REMARK    4  A    between atoms: C_2  and  C_5
REMARK    5  A    between atoms: C_5  and  C_6
REMARK    6  A    between atoms: C_6  and  C_7
REMARK    7  A    between atoms: C_6  and  C_8
REMARK    8  A    between atoms: C_6  and  N_9
REMARK    9  A    between atoms: C_10  and  C_12
REMARK   10  A    between atoms: C_12  and  C_14
REMARK   11  A    between atoms: C_12  and  N_23
REMARK   12  A    between atoms: N_23  and  C_24
REMARK   13  A    between atoms: C_25  and  C_27
REMARK   14  A    between atoms: C_27  and  C_28
REMARK                            x       y       z     vdW  Elec       q    Type
REMARK                         _______ _______ _______ _____ _____    ______ ____
ROOT
ATOM      1  C   UNL     1       5.370  -0.496  -4.287  0.00  0.00    +0.192 C 
ENDROOT
BRANCH   1   2
ATOM      2  C   UNL     1       5.336  -1.965  -4.622  0.00  0.00    -0.015 A 
ATOM      3  C   UNL     1       4.873  -2.380  -5.857  0.00  0.00    +0.010 A 
ATOM      4  C   UNL     1       4.840  -3.726  -6.169  0.00  0.00    +0.050 A 
ATOM      5  C   UNL     1       5.272  -4.663  -5.245  0.00  0.00    +0.166 A 
ATOM      6  C   UNL     1       5.739  -4.245  -4.001  0.00  0.00    +0.167 A 
ATOM      7  C   UNL     1       5.774  -2.894  -3.697  0.00  0.00    +0.055 A 
ATOM      8  O   UNL     1       6.101  -5.345  -3.278  0.00  0.00    -0.453 OA
ATOM      9  C   UNL     1       5.471  -6.461  -3.935  0.00  0.00    +0.466 C 
ATOM     10  O   UNL     1       5.342  -6.025  -5.301  0.00  0.00    -0.453 OA
ENDBRANCH   1   2
BRANCH   1  12
ATOM     11  N   UNL     1       3.286  -0.571  -2.956  0.00  0.00    -0.308 N 
ATOM     12  C   UNL     1       4.595  -0.253  -3.018  0.00  0.00    +0.238 C 
ATOM     13  O   UNL     1       5.148   0.230  -2.052  0.00  0.00    -0.273 OA
ATOM     14  H   UNL     1       2.844  -0.956  -3.728  0.00  0.00    +0.149 HD
BRANCH  11  15
ATOM     15  C   UNL     1       2.533  -0.334  -1.722  0.00  0.00    +0.030 C 
ATOM     16  C   UNL     1       2.698   1.126  -1.296  0.00  0.00    +0.031 C 
ATOM     17  C   UNL     1       3.061  -1.251  -0.618  0.00  0.00    +0.031 C 
BRANCH  15  18
ATOM     18  C   UNL     1       1.051  -0.630  -1.965  0.00  0.00    +0.031 C 
BRANCH  18  20
ATOM     19  C   UNL     1       1.035  -0.970  -4.440  0.00  0.00    +0.010 C 
ATOM     20  C   UNL     1       0.624  -0.029  -3.306  0.00  0.00    -0.036 C 
ATOM     21  C   UNL     1       1.306   1.328  -3.497  0.00  0.00    +0.010 C 
ATOM     22  C   UNL     1      -0.894   0.156  -3.322  0.00  0.00    +0.010 C 
ENDBRANCH  18  20
ENDBRANCH  15  18
ENDBRANCH  11  15
ENDBRANCH   1  12
BRANCH   1  23
ATOM     23  N   UNL     1       6.759  -0.070  -4.099  0.00  0.00    -0.289 N 
ATOM     24  C   UNL     1       7.600  -0.731  -3.099  0.00  0.00    +0.133 C 
ATOM     25  C   UNL     1       7.264   0.931  -4.848  0.00  0.00    +0.221 C 
ATOM     26  O   UNL     1       6.568   1.479  -5.677  0.00  0.00    -0.275 OA
BRANCH  25  27
ATOM     27  C   UNL     1       8.693   1.369  -4.655  0.00  0.00    +0.131 C 
BRANCH  27  28
ATOM     28  C   UNL     1       9.005   2.495  -5.607  0.00  0.00    -0.035 A 
ATOM     29  C   UNL     1       9.498   2.215  -6.868  0.00  0.00    +0.008 A 
ATOM     30  C   UNL     1       9.786   3.244  -7.745  0.00  0.00    +0.050 A 
ATOM     31  C   UNL     1       9.581   4.560  -7.362  0.00  0.00    +0.166 A 
ATOM     32  C   UNL     1       9.085   4.842  -6.091  0.00  0.00    +0.166 A 
ATOM     33  C   UNL     1       8.794   3.805  -5.220  0.00  0.00    +0.053 A 
ATOM     34  O   UNL     1       8.974   6.196  -5.957  0.00  0.00    -0.453 OA
ATOM     35  C   UNL     1       9.790   6.754  -7.004  0.00  0.00    +0.466 C 
ATOM     36  O   UNL     1       9.781   5.737  -8.023  0.00  0.00    -0.453 OA
ENDBRANCH  27  28
ENDBRANCH  25  27
ENDBRANCH   1  23
TORSDOF 8
