REMARK  Name = ZINC13023202
REMARK  8 active torsions:
REMARK  status: ('A' for Active; 'I' for Inactive)
REMARK    1  A    between atoms: C_1  and  C_2
REMARK    2  A    between atoms: C_2  and  C_3
REMARK    3  A    between atoms: C_10  and  C_15
REMARK    4  A    between atoms: C_15  and  C_17
REMARK    5  A    between atoms: C_15  and  N_63
REMARK    6  A    between atoms: N_21  and  C_22
REMARK    7  A    between atoms: C_22  and  C_23
REMARK    8  A    between atoms: C_23  and  C_24
REMARK                            x       y       z     vdW  Elec       q    Type
REMARK                         _______ _______ _______ _____ _____    ______ ____
ROOT
ATOM      1  C   UNL     1      -1.237   2.225   0.020  0.00  0.00    +0.039 C 
ENDROOT
BRANCH   1   9
ATOM      2  C   UNL     1      -0.255   3.113  -6.024  0.00  0.00    -0.047 A 
ATOM      3  C   UNL     1      -1.350   3.939  -6.240  0.00  0.00    +0.005 A 
ATOM      4  C   UNL     1      -2.201   4.264  -5.206  0.00  0.00    +0.026 A 
ATOM      5  C   UNL     1      -1.960   3.762  -3.931  0.00  0.00    +0.049 A 
ATOM      6  C   UNL     1      -0.849   2.926  -3.716  0.00  0.00    -0.001 A 
ATOM      7  C   UNL     1       0.000   2.608  -4.781  0.00  0.00    +0.013 A 
ATOM      8  C   UNL     1      -0.601   2.407  -2.369  0.00  0.00    +0.017 A 
ATOM      9  C   UNL     1      -1.461   2.745  -1.376  0.00  0.00    +0.011 A 
ATOM     10  C   UNL     1      -2.561   3.588  -1.645  0.00  0.00    +0.251 A 
ATOM     11  O   UNL     1      -3.319   3.883  -0.737  0.00  0.00    -0.268 OA
ATOM     12  N   UNL     1      -2.794   4.073  -2.877  0.00  0.00    -0.322 N 
ATOM     13  H   UNL     1      -3.559   4.649  -3.027  0.00  0.00    +0.169 HD
BRANCH   2  15
ATOM     14  C   UNL     1       0.159   1.500  -7.862  0.00  0.00    +0.009 C 
ATOM     15  C   UNL     1       0.660   2.771  -7.171  0.00  0.00    +0.032 C 
ENDBRANCH   2  15
ENDBRANCH   1   9
BRANCH   1  21
ATOM     16  C   UNL     1       0.033   4.227   0.509  0.00  0.00    -0.077 C 
ATOM     17  C   UNL     1       0.089   5.466   1.406  0.00  0.00    -0.019 C 
ATOM     18  C   UNL     1       0.301   5.029   2.858  0.00  0.00    -0.004 C 
ATOM     19  C   UNL     1      -0.831   4.084   3.269  0.00  0.00    -0.019 C 
ATOM     20  C   UNL     1      -0.860   2.886   2.318  0.00  0.00    -0.077 C 
ATOM     21  N   UNL     1      -1.092   3.371   0.941  0.00  0.00    +0.389 N 
ATOM     22  H   UNL     1      -1.956   3.924   0.924  0.00  0.00    -0.080 HD
ENDBRANCH   1  21
BRANCH   1  23
ATOM     23  C   UNL     1       0.001   1.366   0.044  0.00  0.00    +0.142 A 
ATOM     24  N   UNL     1       1.243   1.781  -0.001  0.00  0.00    -0.115 NA
ATOM     25  N   UNL     1       2.010   0.747   0.035  0.00  0.00    -0.023 NA
ATOM     26  N   UNL     1       1.290  -0.318   0.102  0.00  0.00    -0.044 NA
ATOM     27  N   UNL     1       0.045   0.022   0.110  0.00  0.00    -0.230 N 
BRANCH  27  28
ATOM     28  C   UNL     1      -1.104  -0.884   0.177  0.00  0.00    +0.152 C 
BRANCH  28  29
ATOM     29  C   UNL     1      -1.533  -1.271  -1.239  0.00  0.00    +0.058 C 
BRANCH  29  30
ATOM     30  C   UNL     1      -2.715  -2.203  -1.169  0.00  0.00    -0.046 A 
ATOM     31  C   UNL     1      -2.515  -3.570  -1.111  0.00  0.00    +0.004 A 
ATOM     32  C   UNL     1      -3.599  -4.425  -1.042  0.00  0.00    +0.000 A 
ATOM     33  C   UNL     1      -4.884  -3.913  -1.042  0.00  0.00    +0.000 A 
ATOM     34  C   UNL     1      -5.084  -2.547  -1.105  0.00  0.00    +0.000 A 
ATOM     35  C   UNL     1      -3.999  -1.692  -1.169  0.00  0.00    +0.004 A 
ENDBRANCH  29  30
ENDBRANCH  28  29
ENDBRANCH  27  28
ENDBRANCH   1  23
TORSDOF 7
