REMARK  Name = ZINC04967577
REMARK  6 active torsions:
REMARK  status: ('A' for Active; 'I' for Inactive)
REMARK    1  A    between atoms: C_1  and  C_2
REMARK    2  A    between atoms: C_8  and  N_10
REMARK    3  A    between atoms: C_11  and  C_13
REMARK    4  A    between atoms: C_13  and  N_14
REMARK    5  A    between atoms: C_17  and  C_20
REMARK    6  A    between atoms: C_17  and  O_29
REMARK                            x       y       z     vdW  Elec       q    Type
REMARK                         _______ _______ _______ _____ _____    ______ ____
ROOT
ATOM      1  N   UNL     1       4.723   0.698   3.753  0.00  0.00    +0.386 N 
ATOM      2  C   UNL     1       4.807  -0.665   4.291  0.00  0.00    -0.075 C 
ATOM      3  C   UNL     1       5.265  -0.614   5.750  0.00  0.00    +0.021 C 
ATOM      4  C   UNL     1       6.643   0.052   5.824  0.00  0.00    +0.088 C 
ATOM      5  C   UNL     1       6.560   1.444   5.192  0.00  0.00    +0.021 C 
ATOM      6  C   UNL     1       6.054   1.317   3.754  0.00  0.00    -0.075 C 
ATOM      7  H   UNL     1       4.098   1.246   4.325  0.00  0.00    -0.081 HD
ENDROOT
BRANCH   4   8
ATOM      8  C   UNL     1       7.066   0.176   7.265  0.00  0.00    -0.013 A 
ATOM      9  C   UNL     1       6.110   0.317   8.254  0.00  0.00    +0.010 A 
ATOM     10  C   UNL     1       6.493   0.430   9.578  0.00  0.00    +0.050 A 
ATOM     11  C   UNL     1       7.837   0.404   9.915  0.00  0.00    +0.166 A 
ATOM     12  C   UNL     1       8.799   0.262   8.919  0.00  0.00    +0.167 A 
ATOM     13  C   UNL     1       8.408   0.143   7.595  0.00  0.00    +0.056 A 
ATOM     14  O   UNL     1      10.034   0.265   9.501  0.00  0.00    -0.453 OA
ATOM     15  C   UNL     1       9.838   0.819  10.815  0.00  0.00    +0.466 C 
ATOM     16  O   UNL     1       8.469   0.495  11.122  0.00  0.00    -0.453 OA
ENDBRANCH   4   8
BRANCH   4  17
ATOM     17  O   UNL     1       7.595  -0.740   5.111  0.00  0.00    -0.384 OA
ATOM     18  H   UNL     1       8.491  -0.377   5.117  0.00  0.00    +0.211 HD
ENDBRANCH   4  17
BRANCH   1  19
ATOM     19  C   UNL     1       4.209   0.649   2.377  0.00  0.00    +0.019 C 
BRANCH  19  21
ATOM     20  N   UNL     1       2.116  -0.004   1.231  0.00  0.00    -0.314 N 
ATOM     21  C   UNL     1       2.795   0.128   2.388  0.00  0.00    +0.197 C 
ATOM     22  O   UNL     1       2.268  -0.174   3.438  0.00  0.00    -0.278 OA
ATOM     23  H   UNL     1       2.538   0.237   0.392  0.00  0.00    +0.149 HD
BRANCH  20  30
ATOM     24  C   UNL     1      -0.019   1.526   0.010  0.00  0.00    +0.009 C 
ATOM     25  C   UNL     1       0.002  -0.004   0.002  0.00  0.00    +0.006 C 
ATOM     26  C   UNL     1      -1.433  -0.534   0.013  0.00  0.00    +0.005 C 
ATOM     27  C   UNL     1      -1.413  -2.063   0.004  0.00  0.00    +0.000 C 
ATOM     28  C   UNL     1      -0.673  -2.570   1.244  0.00  0.00    +0.002 C 
ATOM     29  C   UNL     1       0.763  -2.041   1.233  0.00  0.00    +0.022 C 
ATOM     30  C   UNL     1       0.742  -0.511   1.242  0.00  0.00    +0.076 C 
ENDBRANCH  20  30
ENDBRANCH  19  21
ENDBRANCH   1  19
TORSDOF 5
