REMARK  Name = ZINC40740650
REMARK  12 active torsions:
REMARK  status: ('A' for Active; 'I' for Inactive)
REMARK    1  A    between atoms: C_1  and  C_2
REMARK    2  A    between atoms: C_2  and  C_3
REMARK    3  A    between atoms: C_3  and  C_5
REMARK    4  A    between atoms: C_3  and  N_6
REMARK    5  A    between atoms: N_6  and  C_7
REMARK    6  A    between atoms: C_7  and  C_8
REMARK    7  A    between atoms: C_10  and  O_25
REMARK    8  A    between atoms: C_11  and  O_15
REMARK    9  A    between atoms: O_15  and  C_16
REMARK   10  A    between atoms: C_16  and  C_17
REMARK   11  A    between atoms: O_25  and  C_26
REMARK   12  A    between atoms: C_26  and  C_27
REMARK                            x       y       z     vdW  Elec       q    Type
REMARK                         _______ _______ _______ _____ _____    ______ ____
ROOT
ATOM      1  C   UNL     1      -4.210  -0.155  -2.452  0.00  0.00    -0.060 A 
ATOM      2  C   UNL     1      -4.804   1.090  -2.558  0.00  0.00    +0.051 A 
ATOM      3  C   UNL     1      -5.440   1.456  -3.733  0.00  0.00    +0.163 A 
ATOM      4  C   UNL     1      -5.479   0.570  -4.806  0.00  0.00    +0.176 A 
ATOM      5  C   UNL     1      -4.881  -0.676  -4.693  0.00  0.00    +0.063 A 
ATOM      6  C   UNL     1      -4.244  -1.033  -3.519  0.00  0.00    +0.021 A 
ATOM      7 BR   UNL     1      -4.932  -1.883  -6.147  0.00  0.00    -0.046 Br
ENDROOT
BRANCH   1   8
ATOM      8  C   UNL     1      -3.518  -0.551  -1.173  0.00  0.00    -0.046 C 
BRANCH   8   9
ATOM      9  N   UNL     1      -2.107  -0.147  -1.234  0.00  0.00    +0.383 N 
ATOM     10  H   UNL     1      -2.048   0.853  -1.352  0.00  0.00    -0.085 HD
ATOM     11  H   UNL     1      -1.660  -0.605  -2.014  0.00  0.00    -0.085 HD
BRANCH   9  12
ATOM     12  C   UNL     1      -1.433  -0.534   0.013  0.00  0.00    -0.075 C 
ATOM     13  C   UNL     1      -1.413  -2.059   0.130  0.00  0.00    -0.014 C 
BRANCH  12  15
ATOM     14  C   UNL     1      -0.019   1.526   0.010  0.00  0.00    +0.002 C 
ATOM     15  C   UNL     1       0.002  -0.004   0.002  0.00  0.00    -0.019 C 
ENDBRANCH  12  15
ENDBRANCH   9  12
ENDBRANCH   8   9
ENDBRANCH   1   8
BRANCH   4  16
ATOM     16  O   UNL     1      -6.103   0.925  -5.961  0.00  0.00    -0.483 OA
BRANCH  16  17
ATOM     17  C   UNL     1      -5.308   1.579  -6.952  0.00  0.00    +0.264 C 
BRANCH  17  18
ATOM     18  C   UNL     1      -6.163   1.894  -8.153  0.00  0.00    -0.009 A 
ATOM     19  C   UNL     1      -6.280   0.973  -9.178  0.00  0.00    +0.008 A 
ATOM     20  C   UNL     1      -7.063   1.261 -10.280  0.00  0.00    +0.022 A 
ATOM     21  C   UNL     1      -7.730   2.470 -10.358  0.00  0.00    +0.059 A 
ATOM     22  C   UNL     1      -7.614   3.392  -9.331  0.00  0.00    +0.060 A 
ATOM     23  C   UNL     1      -6.833   3.100  -8.226  0.00  0.00    +0.028 A 
ATOM     24 CL   UNL     1      -8.450   4.910  -9.427  0.00  0.00    -0.082 Cl
ATOM     25 CL   UNL     1      -8.713   2.832 -11.742  0.00  0.00    -0.082 Cl
ENDBRANCH  17  18
ENDBRANCH  16  17
ENDBRANCH   4  16
BRANCH   3  26
ATOM     26  O   UNL     1      -6.026   2.679  -3.838  0.00  0.00    -0.489 OA
BRANCH  26  27
ATOM     27  C   UNL     1      -5.947   3.536  -2.698  0.00  0.00    +0.226 C 
ATOM     28  C   UNL     1      -6.656   4.857  -3.002  0.00  0.00    +0.048 C 
ENDBRANCH  26  27
ENDBRANCH   3  26
TORSDOF 9
