REMARK  Name = ZINC55157319
REMARK  10 active torsions:
REMARK  status: ('A' for Active; 'I' for Inactive)
REMARK    1  A    between atoms: C_1  and  C_2
REMARK    2  A    between atoms: C_2  and  O_3
REMARK    3  A    between atoms: O_3  and  C_4
REMARK    4  A    between atoms: C_4  and  C_6
REMARK    5  A    between atoms: C_6  and  C_7
REMARK    6  A    between atoms: C_6  and  C_20
REMARK    7  A    between atoms: N_9  and  N_10
REMARK    8  A    between atoms: N_10  and  C_11
REMARK    9  A    between atoms: C_16  and  N_17
REMARK   10  A    between atoms: N_22  and  C_23
REMARK                            x       y       z     vdW  Elec       q    Type
REMARK                         _______ _______ _______ _____ _____    ______ ____
ROOT
ATOM      1  C   UNL     1       2.143  -3.759  -1.635  0.00  0.00    +0.105 C 
ATOM      2  N   UNL     1       3.337  -3.967  -2.086  0.00  0.00    -0.388 N 
ATOM      3  N   UNL     1       1.308  -4.818  -1.394  0.00  0.00    -0.255 N 
ATOM      4  H   UNL     1       3.664  -4.875  -2.192  0.00  0.00    +0.157 HD
ATOM      5  H   UNL     1       0.387  -4.659  -1.134  0.00  0.00    +0.171 HD
ATOM      6  H   UNL     1       3.906  -3.217  -2.318  0.00  0.00    +0.157 HD
ENDROOT
BRANCH   3   7
ATOM      7  N   UNL     1       1.784  -6.129  -1.522  0.00  0.00    -0.263 N 
ATOM      8  H   UNL     1       2.705  -6.288  -1.781  0.00  0.00    +0.170 HD
BRANCH   7   9
ATOM      9  C   UNL     1       0.932  -7.208  -1.276  0.00  0.00    +0.075 A 
ATOM     10  C   UNL     1      -0.354  -6.986  -0.798  0.00  0.00    +0.027 A 
ATOM     11  C   UNL     1      -1.194  -8.055  -0.556  0.00  0.00    +0.002 A 
ATOM     12  C   UNL     1      -0.756  -9.346  -0.790  0.00  0.00    +0.002 A 
ATOM     13  C   UNL     1       0.523  -9.571  -1.265  0.00  0.00    +0.034 A 
ATOM     14  C   UNL     1       1.366  -8.506  -1.514  0.00  0.00    +0.148 A 
BRANCH  14  15
ATOM     15  N   UNL     1       2.732  -8.747  -2.029  0.00  0.00    +0.058 N 
ATOM     16  O   UNL     1       3.220  -7.984  -2.830  0.00  0.00    -0.126 OA
ATOM     17  O   UNL     1       3.360  -9.708  -1.650  0.00  0.00    -0.126 OA
ENDBRANCH  14  15
ENDBRANCH   7   9
ENDBRANCH   3   7
BRANCH   1  18
ATOM     18  C   UNL     1       1.671  -2.352  -1.374  0.00  0.00    +0.245 C 
BRANCH  18  19
ATOM     19  C   UNL     1       0.668  -1.955  -2.426  0.00  0.00    +0.238 C 
ATOM     20  O   UNL     1      -0.102  -2.780  -2.871  0.00  0.00    -0.274 OA
ATOM     21  N   UNL     1       0.627  -0.684  -2.873  0.00  0.00    -0.284 N 
ATOM     22  H   UNL     1       1.288  -0.043  -2.571  0.00  0.00    +0.155 HD
BRANCH  21  23
ATOM     23  C   UNL     1      -0.370  -0.291  -3.772  0.00  0.00    +0.033 A 
ATOM     24  C   UNL     1      -0.914   0.984  -3.694  0.00  0.00    +0.023 A 
ATOM     25  C   UNL     1      -1.899   1.369  -4.583  0.00  0.00    +0.002 A 
ATOM     26  C   UNL     1      -2.342   0.487  -5.551  0.00  0.00    +0.000 A 
ATOM     27  C   UNL     1      -1.803  -0.784  -5.631  0.00  0.00    +0.002 A 
ATOM     28  C   UNL     1      -0.814  -1.173  -4.749  0.00  0.00    +0.023 A 
ENDBRANCH  21  23
ENDBRANCH  18  19
BRANCH  18  29
ATOM     29  C   UNL     1       1.026  -2.282  -0.013  0.00  0.00    +0.326 C 
ATOM     30  O   UNL     1       0.783  -3.299   0.593  0.00  0.00    -0.250 OA
BRANCH  29  31
ATOM     31  O   UNL     1       0.722  -1.091   0.525  0.00  0.00    -0.464 OA
BRANCH  31  33
ATOM     32  C   UNL     1      -0.159   0.338   2.263  0.00  0.00    +0.048 C 
ATOM     33  C   UNL     1       0.112  -1.100   1.817  0.00  0.00    +0.229 C 
ENDBRANCH  31  33
ENDBRANCH  29  31
ENDBRANCH  18  29
ENDBRANCH   1  18
TORSDOF 9
