REMARK  Name = ZINC63552598
REMARK  9 active torsions:
REMARK  status: ('A' for Active; 'I' for Inactive)
REMARK    1  A    between atoms: C_1  and  C_2
REMARK    2  A    between atoms: C_2  and  N_3
REMARK    3  A    between atoms: C_8  and  C_18
REMARK    4  A    between atoms: C_18  and  C_19
REMARK    5  A    between atoms: C_19  and  C_20
REMARK    6  A    between atoms: C_20  and  C_21
REMARK    7  A    between atoms: N_23  and  C_24
REMARK    8  A    between atoms: C_24  and  C_25
REMARK    9  A    between atoms: C_25  and  C_26
REMARK                            x       y       z     vdW  Elec       q    Type
REMARK                         _______ _______ _______ _____ _____    ______ ____
ROOT
ATOM      1  C   UNL     1      -4.983   2.292   3.192  0.00  0.00    +0.013 C 
ENDROOT
BRANCH   1   2
ATOM      2  C   UNL     1      -4.671   1.472   1.939  0.00  0.00    +0.049 C 
BRANCH   2   7
ATOM      3  N   UNL     1      -1.372  -0.511   0.012  0.00  0.00    -0.259 N 
ATOM      4  C   UNL     1      -2.038  -0.761   1.286  0.00  0.00    +0.310 C 
ATOM      5  N   UNL     1      -1.606   0.129   2.356  0.00  0.00    -0.147 NA
ATOM      6  N   UNL     1      -2.569   0.654   2.926  0.00  0.00    -0.166 NA
ATOM      7  C   UNL     1      -3.847   0.242   2.326  0.00  0.00    +0.217 C 
ATOM      8  N   UNL     1      -3.488  -0.504   1.147  0.00  0.00    -0.267 N 
ATOM      9  C   UNL     1      -4.188  -0.891   0.010  0.00  0.00    +0.054 A 
ATOM     10  C   UNL     1      -5.513  -1.189  -0.197  0.00  0.00    +0.031 A 
ATOM     11  C   UNL     1      -5.932  -1.543  -1.438  0.00  0.00    +0.048 A 
ATOM     12  S   UNL     1      -4.542  -1.487  -2.385  0.00  0.00    -0.090 S 
ATOM     13  C   UNL     1      -3.386  -0.996  -1.151  0.00  0.00    +0.095 A 
ATOM     14  C   UNL     1      -2.014  -0.737  -1.167  0.00  0.00    +0.258 C 
ATOM     15  O   UNL     1      -1.401  -0.719  -2.219  0.00  0.00    -0.269 OA
BRANCH   3  17
ATOM     16  C   UNL     1      -0.019   1.526   0.010  0.00  0.00    +0.024 C 
ATOM     17  C   UNL     1       0.002  -0.004   0.002  0.00  0.00    +0.108 C 
ENDBRANCH   3  17
ENDBRANCH   2   7
ENDBRANCH   1   2
BRANCH   1  18
ATOM     18  C   UNL     1      -5.807   3.522   2.805  0.00  0.00    +0.096 C 
BRANCH  18  19
ATOM     19  C   UNL     1      -6.114   4.330   4.040  0.00  0.00    +0.213 C 
ATOM     20  O   UNL     1      -5.713   3.959   5.123  0.00  0.00    -0.276 OA
ATOM     21  N   UNL     1      -6.833   5.465   3.940  0.00  0.00    -0.315 N 
ATOM     22  H   UNL     1      -7.154   5.762   3.074  0.00  0.00    +0.149 HD
BRANCH  21  23
ATOM     23  C   UNL     1      -7.131   6.251   5.140  0.00  0.00    +0.108 C 
BRANCH  23  24
ATOM     24  C   UNL     1      -7.955   7.480   4.753  0.00  0.00    +0.052 C 
BRANCH  24  25
ATOM     25  C   UNL     1      -8.262   8.289   5.988  0.00  0.00    -0.040 C 
ATOM     26  C   UNL     1      -7.571   9.353   6.455  0.00  0.00    -0.001 A 
ATOM     27  C   UNL     1      -6.372  10.050   5.974  0.00  0.00    +0.010 A 
ATOM     28  C   UNL     1      -5.904  11.109   6.672  0.00  0.00    +0.001 A 
ATOM     29  C   UNL     1      -6.533  11.557   7.842  0.00  0.00    +0.002 A 
ATOM     30  C   UNL     1      -7.638  10.969   8.346  0.00  0.00    +0.026 A 
ATOM     31  C   UNL     1      -8.217   9.846   7.693  0.00  0.00    +0.043 A 
ATOM     32  N   UNL     1      -9.267   9.115   7.979  0.00  0.00    -0.380 N 
ATOM     33  C   UNL     1      -9.409   8.078   6.951  0.00  0.00    +0.144 C 
ATOM     34  H   UNL     1      -9.854   9.241   8.741  0.00  0.00    +0.160 HD
ENDBRANCH  24  25
ENDBRANCH  23  24
ENDBRANCH  21  23
ENDBRANCH  18  19
ENDBRANCH   1  18
TORSDOF 8
