REMARK  Name = ZINC11998649
REMARK  6 active torsions:
REMARK  status: ('A' for Active; 'I' for Inactive)
REMARK    1  A    between atoms: C_3  and  C_8
REMARK    2  A    between atoms: C_8  and  C_10
REMARK    3  A    between atoms: C_8  and  N_55
REMARK    4  A    between atoms: C_10  and  N_11
REMARK    5  A    between atoms: C_12  and  C_14
REMARK    6  A    between atoms: C_18  and  N_20
REMARK                            x       y       z     vdW  Elec       q    Type
REMARK                         _______ _______ _______ _____ _____    ______ ____
ROOT
ATOM      1  N   UNL     1       0.257   1.486   0.126  0.00  0.00    -0.313 N 
ATOM      2  C   UNL     1       0.497   0.193  -0.165  0.00  0.00    +0.244 C 
ATOM      3  O   UNL     1      -0.393  -0.506  -0.610  0.00  0.00    -0.270 OA
ATOM      4  H   UNL     1       0.967   2.044   0.481  0.00  0.00    +0.149 HD
ENDROOT
BRANCH   2   5
ATOM      5  C   UNL     1       1.844  -0.377   0.056  0.00  0.00    +0.039 A 
ATOM      6  C   UNL     1       2.869   0.424   0.561  0.00  0.00    +0.013 A 
ATOM      7  C   UNL     1       4.123  -0.111   0.771  0.00  0.00    +0.003 A 
ATOM      8  C   UNL     1       4.372  -1.438   0.473  0.00  0.00    +0.025 A 
ATOM      9  C   UNL     1       3.360  -2.243  -0.035  0.00  0.00    +0.060 A 
ATOM     10  C   UNL     1       2.095  -1.716  -0.245  0.00  0.00    +0.038 A 
BRANCH   9  11
ATOM     11  N   UNL     1       3.618  -3.585  -0.336  0.00  0.00    -0.144 N 
ATOM     12  C   UNL     1       2.712  -4.574  -0.368  0.00  0.00    +0.240 C 
ATOM     13  O   UNL     1       1.540  -4.350  -0.153  0.00  0.00    -0.274 OA
ATOM     14  C   UNL     1       3.182  -5.964  -0.678  0.00  0.00    +0.122 C 
ATOM     15  C   UNL     1       4.574  -5.878  -1.358  0.00  0.00    +0.198 C 
ATOM     16  S   UNL     1       5.111  -4.241  -0.714  0.00  0.00    +0.052 S 
ATOM     17  O   UNL     1       5.634  -3.431  -1.758  0.00  0.00    -0.155 OA
ATOM     18  O   UNL     1       5.793  -4.382   0.525  0.00  0.00    -0.155 OA
ENDBRANCH   9  11
ENDBRANCH   2   5
BRANCH   1  19
ATOM     19  C   UNL     1      -1.076   2.052  -0.098  0.00  0.00    +0.094 C 
BRANCH  19  20
ATOM     20  C   UNL     1      -1.038   3.561   0.152  0.00  0.00    -0.020 C 
BRANCH  20  23
ATOM     21  C   UNL     1      -4.255   4.792  -1.393  0.00  0.00    +0.002 A 
ATOM     22  C   UNL     1      -2.981   4.274  -1.255  0.00  0.00    +0.002 A 
ATOM     23  C   UNL     1      -2.425   4.130   0.002  0.00  0.00    -0.058 A 
ATOM     24  C   UNL     1      -3.139   4.514   1.122  0.00  0.00    +0.022 A 
ATOM     25  C   UNL     1      -4.412   5.037   0.984  0.00  0.00    +0.041 A 
ATOM     26  C   UNL     1      -4.970   5.176  -0.275  0.00  0.00    +0.020 A 
ATOM     27 CL   UNL     1      -5.310   5.520   2.389  0.00  0.00    -0.084 Cl
ENDBRANCH  20  23
BRANCH  20  32
ATOM     28  C   UNL     1      -0.293   5.674  -0.802  0.00  0.00    -0.078 C 
ATOM     29  C   UNL     1       1.025   6.175  -1.444  0.00  0.00    -0.020 C 
ATOM     30  C   UNL     1       2.077   5.185  -0.893  0.00  0.00    -0.020 C 
ATOM     31  C   UNL     1       1.277   3.933  -0.487  0.00  0.00    -0.078 C 
ATOM     32  N   UNL     1      -0.119   4.213  -0.829  0.00  0.00    +0.385 N 
ATOM     33  H   UNL     1      -0.323   3.856  -1.770  0.00  0.00    -0.081 HD
ENDBRANCH  20  32
ENDBRANCH  19  20
ENDBRANCH   1  19
TORSDOF 6
