REMARK  Name = ZINC22918556
REMARK  9 active torsions:
REMARK  status: ('A' for Active; 'I' for Inactive)
REMARK    1  A    between atoms: C_1  and  C_2
REMARK    2  A    between atoms: C_2  and  C_3
REMARK    3  A    between atoms: C_2  and  C_4
REMARK    4  A    between atoms: C_4  and  C_5
REMARK    5  A    between atoms: C_5  and  C_29
REMARK    6  A    between atoms: N_8  and  C_12
REMARK    7  A    between atoms: C_12  and  N_13
REMARK    8  A    between atoms: N_16  and  C_19
REMARK    9  A    between atoms: C_19  and  C_20
REMARK                            x       y       z     vdW  Elec       q    Type
REMARK                         _______ _______ _______ _____ _____    ______ ____
ROOT
ATOM      1  C   UNL     1       2.040   1.359  -1.317  0.00  0.00    +0.138 C 
ATOM      2  C   UNL     1       2.201  -0.147  -1.275  0.00  0.00    +0.252 C 
ATOM      3  O   UNL     1       2.791  -0.797  -0.438  0.00  0.00    -0.272 OA
ATOM      4  N   UNL     1       1.554  -0.614  -2.360  0.00  0.00    -0.210 N 
ATOM      5  C   UNL     1       1.011   0.378  -3.075  0.00  0.00    +0.311 C 
ATOM      6  O   UNL     1       0.377   0.204  -4.098  0.00  0.00    -0.252 OA
ATOM      7  N   UNL     1       1.245   1.588  -2.536  0.00  0.00    -0.281 N 
ATOM      8  H   UNL     1       0.968   2.611  -2.828  0.00  0.00    +0.152 HD
ENDROOT
BRANCH   1   9
ATOM      9  C   UNL     1       3.383   2.034  -1.422  0.00  0.00    -0.015 A 
ATOM     10  C   UNL     1       4.042   2.443  -0.278  0.00  0.00    +0.006 A 
ATOM     11  C   UNL     1       5.277   3.058  -0.374  0.00  0.00    +0.000 A 
ATOM     12  C   UNL     1       5.847   3.273  -1.614  0.00  0.00    +0.000 A 
ATOM     13  C   UNL     1       5.186   2.869  -2.759  0.00  0.00    +0.000 A 
ATOM     14  C   UNL     1       3.954   2.249  -2.663  0.00  0.00    +0.006 A 
ENDBRANCH   1   9
BRANCH   1  15
ATOM     15  C   UNL     1       1.285   1.855  -0.082  0.00  0.00    +0.043 C 
BRANCH  15  17
ATOM     16  C   UNL     1      -0.969   1.669  -1.144  0.00  0.00    +0.007 C 
ATOM     17  C   UNL     1      -0.079   1.165  -0.006  0.00  0.00    -0.014 C 
ATOM     18  C   UNL     1      -0.738   1.483   1.337  0.00  0.00    +0.007 C 
ENDBRANCH  15  17
ENDBRANCH   1  15
BRANCH   4  19
ATOM     19  C   UNL     1       1.456  -2.033  -2.713  0.00  0.00    +0.205 C 
BRANCH  19  20
ATOM     20  N   UNL     1       0.257  -2.610  -2.091  0.00  0.00    -0.290 NA
ATOM     21  C   UNL     1       0.507  -2.955  -0.684  0.00  0.00    +0.067 C 
ATOM     22  C   UNL     1      -0.784  -3.478  -0.052  0.00  0.00    -0.063 C 
ATOM     23  N   UNL     1      -1.254  -4.651  -0.803  0.00  0.00    +0.384 N 
ATOM     24  C   UNL     1      -1.505  -4.306  -2.209  0.00  0.00    -0.063 C 
ATOM     25  C   UNL     1      -0.213  -3.783  -2.841  0.00  0.00    +0.067 C 
ATOM     26  H   UNL     1      -0.461  -5.412  -0.775  0.00  0.00    -0.081 HD
BRANCH  23  27
ATOM     27  C   UNL     1      -2.453  -5.228  -0.180  0.00  0.00    -0.043 C 
BRANCH  27  28
ATOM     28  C   UNL     1      -2.096  -5.791   1.171  0.00  0.00    -0.060 A 
ATOM     29  C   UNL     1      -1.691  -7.108   1.285  0.00  0.00    +0.005 A 
ATOM     30  C   UNL     1      -1.357  -7.627   2.522  0.00  0.00    +0.050 A 
ATOM     31  C   UNL     1      -1.439  -6.832   3.653  0.00  0.00    +0.166 A 
ATOM     32  C   UNL     1      -1.852  -5.507   3.539  0.00  0.00    +0.166 A 
ATOM     33  C   UNL     1      -2.179  -4.991   2.296  0.00  0.00    +0.051 A 
ATOM     34  O   UNL     1      -1.849  -4.941   4.781  0.00  0.00    -0.453 OA
ATOM     35  C   UNL     1      -1.824  -6.044   5.706  0.00  0.00    +0.466 C 
ATOM     36  O   UNL     1      -1.177  -7.096   4.966  0.00  0.00    -0.453 OA
ENDBRANCH  27  28
ENDBRANCH  23  27
ENDBRANCH  19  20
ENDBRANCH   4  19
TORSDOF 7
