REMARK  Name = ZINC10068121
REMARK  8 active torsions:
REMARK  status: ('A' for Active; 'I' for Inactive)
REMARK    1  A    between atoms: C_1  and  N_53
REMARK    2  A    between atoms: C_2  and  N_53
REMARK    3  A    between atoms: C_3  and  C_4
REMARK    4  A    between atoms: C_3  and  N_53
REMARK    5  A    between atoms: C_4  and  C_5
REMARK    6  A    between atoms: C_5  and  N_6
REMARK    7  A    between atoms: C_19  and  C_21
REMARK    8  A    between atoms: C_25  and  N_30
REMARK                            x       y       z     vdW  Elec       q    Type
REMARK                         _______ _______ _______ _____ _____    ______ ____
ROOT
ATOM      1  N   UNL     1      -1.969  -5.838   0.701  0.00  0.00    -0.246 N 
ATOM      2  C   UNL     1      -1.159  -4.749   0.428  0.00  0.00    +0.168 A 
ATOM      3  N   UNL     1      -1.410  -3.472   0.599  0.00  0.00    -0.224 NA
ATOM      4  C   UNL     1      -0.517  -2.507   0.286  0.00  0.00    +0.084 A 
ATOM      5  C   UNL     1      -0.664  -1.107   0.422  0.00  0.00    +0.078 A 
ATOM      6  C   UNL     1       0.348  -0.250   0.056  0.00  0.00    +0.168 A 
ATOM      7  C   UNL     1       1.550  -0.740  -0.461  0.00  0.00    +0.167 A 
ATOM      8  C   UNL     1       1.724  -2.105  -0.606  0.00  0.00    +0.066 A 
ATOM      9  C   UNL     1       0.713  -2.961  -0.240  0.00  0.00    +0.044 A 
ATOM     10  S   UNL     1       0.496  -4.724  -0.245  0.00  0.00    -0.052 S 
ATOM     11  O   UNL     1       2.372   0.313  -0.738  0.00  0.00    -0.453 OA
ATOM     12  C   UNL     1       1.826   1.427  -0.007  0.00  0.00    +0.466 C 
ATOM     13  O   UNL     1       0.424   1.115   0.098  0.00  0.00    -0.453 OA
ATOM     14  C   UNL     1      -1.526  -7.087   0.453  0.00  0.00    +0.259 C 
ATOM     15  O   UNL     1      -0.440  -7.254  -0.068  0.00  0.00    -0.269 OA
ENDROOT
BRANCH  14  16
ATOM     16  C   UNL     1      -2.355  -8.245   0.812  0.00  0.00    +0.076 A 
ATOM     17  C   UNL     1      -2.034  -9.566   0.761  0.00  0.00    +0.029 A 
ATOM     18  C   UNL     1      -2.975 -10.533   1.157  0.00  0.00    -0.008 A 
ATOM     19  C   UNL     1      -2.828 -11.944   1.179  0.00  0.00    +0.041 A 
ATOM     20  C   UNL     1      -3.848 -12.742   1.588  0.00  0.00    +0.127 A 
ATOM     21  C   UNL     1      -5.067 -12.215   1.998  0.00  0.00    +0.034 A 
ATOM     22  C   UNL     1      -5.252 -10.847   1.992  0.00  0.00    +0.018 A 
ATOM     23  C   UNL     1      -4.226 -10.024   1.579  0.00  0.00    +0.020 A 
ATOM     24  S   UNL     1      -4.034  -8.267   1.417  0.00  0.00    -0.084 S 
BRANCH  20  25
ATOM     25  N   UNL     1      -3.656 -14.210   1.597  0.00  0.00    +0.056 N 
ATOM     26  O   UNL     1      -2.594 -14.688   1.241  0.00  0.00    -0.126 OA
ATOM     27  O   UNL     1      -4.561 -14.939   1.961  0.00  0.00    -0.126 OA
ENDBRANCH  20  25
ENDBRANCH  14  16
BRANCH   1  28
ATOM     28  C   UNL     1      -3.308  -5.633   1.258  0.00  0.00    +0.114 C 
BRANCH  28  29
ATOM     29  C   UNL     1      -4.341  -5.664   0.129  0.00  0.00    +0.001 C 
BRANCH  29  30
ATOM     30  C   UNL     1      -5.739  -5.450   0.711  0.00  0.00    -0.078 C 
BRANCH  30  33
ATOM     31  C   UNL     1      -6.806  -6.814  -0.981  0.00  0.00    -0.097 C 
ATOM     32  C   UNL     1      -8.049  -5.045   0.108  0.00  0.00    -0.097 C 
ATOM     33  N   UNL     1      -6.722  -5.461  -0.393  0.00  0.00    +0.376 N 
ATOM     34  H   UNL     1      -6.417  -4.800  -1.117  0.00  0.00    -0.083 HD
ENDBRANCH  30  33
ENDBRANCH  29  30
ENDBRANCH  28  29
ENDBRANCH   1  28
TORSDOF 6
