REMARK  Name = ZINC39559673
REMARK  11 active torsions:
REMARK  status: ('A' for Active; 'I' for Inactive)
REMARK    1  A    between atoms: C_1  and  C_2
REMARK    2  A    between atoms: C_2  and  C_3
REMARK    3  A    between atoms: C_3  and  C_5
REMARK    4  A    between atoms: C_5  and  C_6
REMARK    5  A    between atoms: C_6  and  C_7
REMARK    6  A    between atoms: C_7  and  C_8
REMARK    7  A    between atoms: C_8  and  C_9
REMARK    8  A    between atoms: C_8  and  C_10
REMARK    9  A    between atoms: C_8  and  O_11
REMARK   10  A    between atoms: O_11  and  C_12
REMARK   11  A    between atoms: N_24  and  C_25
REMARK                            x       y       z     vdW  Elec       q    Type
REMARK                         _______ _______ _______ _____ _____    ______ ____
ROOT
ATOM      1  C   UNL     1      -0.389  -4.658   4.542  0.00  0.00    +0.217 C 
ATOM      2  C   UNL     1       1.120  -4.472   4.859  0.00  0.00    +0.049 C 
ATOM      3  C   UNL     1       1.817  -5.800   4.625  0.00  0.00    +0.008 C 
ATOM      4  C   UNL     1       3.112  -5.920   5.417  0.00  0.00    +0.000 C 
ATOM      5  C   UNL     1       2.791  -5.779   6.908  0.00  0.00    +0.001 C 
ATOM      6  C   UNL     1       2.267  -4.370   7.158  0.00  0.00    +0.013 C 
ATOM      7  C   UNL     1       1.060  -4.030   6.316  0.00  0.00    +0.083 C 
ATOM      8  C   UNL     1      -0.206  -4.646   6.860  0.00  0.00    +0.225 C 
ATOM      9  O   UNL     1      -0.460  -4.809   8.034  0.00  0.00    -0.275 OA
ATOM     10  N   UNL     1      -1.012  -4.989   5.831  0.00  0.00    -0.243 N 
ENDROOT
BRANCH  10  11
ATOM     11  C   UNL     1      -2.258  -5.575   5.970  0.00  0.00    +0.057 A 
ATOM     12  C   UNL     1      -3.416  -4.793   6.134  0.00  0.00    +0.020 A 
ATOM     13  C   UNL     1      -3.351  -3.389   6.161  0.00  0.00    +0.012 A 
ATOM     14  C   UNL     1      -4.494  -2.669   6.321  0.00  0.00    +0.001 A 
ATOM     15  C   UNL     1      -5.733  -3.291   6.460  0.00  0.00    +0.002 A 
ATOM     16  C   UNL     1      -5.861  -4.643   6.442  0.00  0.00    +0.026 A 
ATOM     17  C   UNL     1      -4.716  -5.451   6.279  0.00  0.00    +0.049 A 
ATOM     18  N   UNL     1      -4.815  -6.777   6.257  0.00  0.00    -0.354 N 
ATOM     19  C   UNL     1      -3.746  -7.555   6.104  0.00  0.00    +0.049 A 
ATOM     20  C   UNL     1      -2.412  -6.973   5.948  0.00  0.00    +0.020 A 
ATOM     21  C   UNL     1      -1.307  -7.827   5.783  0.00  0.00    +0.012 A 
ATOM     22  C   UNL     1      -1.497  -9.174   5.767  0.00  0.00    +0.001 A 
ATOM     23  C   UNL     1      -2.767  -9.731   5.910  0.00  0.00    +0.002 A 
ATOM     24  C   UNL     1      -3.871  -8.960   6.084  0.00  0.00    +0.026 A 
ATOM     25  H   UNL     1      -5.688  -7.188   6.355  0.00  0.00    +0.166 HD
ENDBRANCH  10  11
BRANCH   1  26
ATOM     26  O   UNL     1      -0.940  -3.446   4.021  0.00  0.00    -0.352 OA
BRANCH  26  27
ATOM     27  C   UNL     1      -1.083  -3.437   2.599  0.00  0.00    +0.066 C 
ATOM     28  C   UNL     1      -2.117  -4.486   2.184  0.00  0.00    +0.041 C 
ATOM     29  C   UNL     1       0.263  -3.763   1.948  0.00  0.00    +0.041 C 
BRANCH  27  30
ATOM     30  C   UNL     1      -1.549  -2.054   2.142  0.00  0.00    +0.035 C 
BRANCH  30  31
ATOM     31  C   UNL     1      -0.460  -1.023   2.445  0.00  0.00    +0.007 C 
BRANCH  31  32
ATOM     32  C   UNL     1      -0.926   0.361   1.988  0.00  0.00    +0.030 C 
BRANCH  32  33
ATOM     33  C   UNL     1       0.147   1.376   2.287  0.00  0.00    -0.077 C 
ATOM     34  C   UNL     1       1.013   1.706   1.361  0.00  0.00    +0.007 C 
BRANCH  33  36
ATOM     35  C   UNL     1      -0.722   3.212   3.709  0.00  0.00    +0.008 C 
ATOM     36  C   UNL     1       0.225   2.012   3.651  0.00  0.00    +0.027 C 
ENDBRANCH  33  36
ENDBRANCH  32  33
ENDBRANCH  31  32
ENDBRANCH  30  31
ENDBRANCH  27  30
ENDBRANCH  26  27
ENDBRANCH   1  26
TORSDOF 8
