REMARK  Name = ZINC12515520
REMARK  12 active torsions:
REMARK  status: ('A' for Active; 'I' for Inactive)
REMARK    1  A    between atoms: C_1  and  C_2
REMARK    2  A    between atoms: C_3  and  C_32
REMARK    3  A    between atoms: C_4  and  C_20
REMARK    4  A    between atoms: N_9  and  C_10
REMARK    5  A    between atoms: C_22  and  O_30
REMARK    6  A    between atoms: C_23  and  O_28
REMARK    7  A    between atoms: C_24  and  O_26
REMARK    8  A    between atoms: O_26  and  C_27
REMARK    9  A    between atoms: O_28  and  C_29
REMARK   10  A    between atoms: O_30  and  C_31
REMARK   11  A    between atoms: C_32  and  O_34
REMARK   12  A    between atoms: O_34  and  C_35
REMARK                            x       y       z     vdW  Elec       q    Type
REMARK                         _______ _______ _______ _____ _____    ______ ____
ROOT
ATOM      1  C   UNL     1       2.273  -2.734   0.186  0.00  0.00    +0.062 C 
ATOM      2  C   UNL     1       3.596  -2.025   0.057  0.00  0.00    +0.027 C 
ATOM      3  C   UNL     1       4.742  -2.735   0.149  0.00  0.00    +0.078 C 
ATOM      4  C   UNL     1       6.051  -1.982   0.019  0.00  0.00    +0.141 C 
ATOM      5  N   UNL     1       5.965  -0.528  -0.203  0.00  0.00    -0.315 N 
ATOM      6  C   UNL     1       4.744   0.038  -0.277  0.00  0.00    +0.142 C 
ATOM      7  S   UNL     1       4.630   1.727  -0.536  0.00  0.00    -0.018 S 
ATOM      8  N   UNL     1       3.618  -0.676  -0.156  0.00  0.00    -0.255 N 
ATOM      9  H   UNL     1       6.768   0.008  -0.294  0.00  0.00    +0.149 HD
ENDROOT
BRANCH   8  10
ATOM     10  C   UNL     1       2.393  -0.001  -0.246  0.00  0.00    +0.044 A 
ATOM     11  C   UNL     1       1.768   0.142  -1.477  0.00  0.00    +0.027 A 
ATOM     12  C   UNL     1       0.561   0.808  -1.567  0.00  0.00    +0.051 A 
ATOM     13  C   UNL     1      -0.029   1.337  -0.429  0.00  0.00    +0.162 A 
ATOM     14  C   UNL     1       0.593   1.193   0.806  0.00  0.00    +0.164 A 
ATOM     15  C   UNL     1       1.804   0.525   0.895  0.00  0.00    +0.073 A 
ATOM     16  O   UNL     1       0.024   1.697   1.935  0.00  0.00    -0.485 OA
ATOM     17  C   UNL     1      -1.000   2.682   1.757  0.00  0.00    +0.270 C 
ATOM     18  C   UNL     1      -1.962   2.183   0.670  0.00  0.00    +0.270 C 
ATOM     19  O   UNL     1      -1.215   1.998  -0.538  0.00  0.00    -0.485 OA
ENDBRANCH   8  10
BRANCH   4  20
ATOM     20  C   UNL     1       6.821  -2.582  -1.128  0.00  0.00    -0.015 A 
ATOM     21  C   UNL     1       6.608  -2.126  -2.415  0.00  0.00    +0.055 A 
ATOM     22  C   UNL     1       7.319  -2.672  -3.473  0.00  0.00    +0.165 A 
ATOM     23  C   UNL     1       8.239  -3.687  -3.239  0.00  0.00    +0.204 A 
ATOM     24  C   UNL     1       8.446  -4.147  -1.944  0.00  0.00    +0.165 A 
ATOM     25  C   UNL     1       7.735  -3.592  -0.891  0.00  0.00    +0.055 A 
BRANCH  24  26
ATOM     26  O   UNL     1       9.345  -5.141  -1.710  0.00  0.00    -0.491 OA
ATOM     27  C   UNL     1       9.506  -5.564  -0.355  0.00  0.00    +0.277 C 
ENDBRANCH  24  26
BRANCH  23  28
ATOM     28  O   UNL     1       8.935  -4.229  -4.276  0.00  0.00    -0.488 OA
ATOM     29  C   UNL     1       8.350  -5.356  -4.931  0.00  0.00    +0.277 C 
ENDBRANCH  23  28
BRANCH  22  30
ATOM     30  O   UNL     1       7.113  -2.218  -4.739  0.00  0.00    -0.491 OA
ATOM     31  C   UNL     1       6.153  -1.173  -4.904  0.00  0.00    +0.277 C 
ENDBRANCH  22  30
ENDBRANCH   4  20
BRANCH   3  32
ATOM     32  C   UNL     1       4.721  -4.133   0.364  0.00  0.00    +0.339 C 
ATOM     33  O   UNL     1       3.659  -4.717   0.465  0.00  0.00    -0.245 OA
BRANCH  32  34
ATOM     34  O   UNL     1       5.880  -4.818   0.458  0.00  0.00    -0.465 OA
ATOM     35  C   UNL     1       5.784  -6.227   0.675  0.00  0.00    +0.280 C 
ENDBRANCH  32  34
ENDBRANCH   3  32
TORSDOF 7
