REMARK  Name = ZINC12402092
REMARK  12 active torsions:
REMARK  status: ('A' for Active; 'I' for Inactive)
REMARK    1  A    between atoms: C_1  and  C_2
REMARK    2  A    between atoms: C_8  and  C_9
REMARK    3  A    between atoms: C_8  and  C_10
REMARK    4  A    between atoms: N_11  and  S_13
REMARK    5  A    between atoms: S_13  and  C_16
REMARK    6  A    between atoms: C_20  and  N_22
REMARK    7  A    between atoms: N_22  and  S_23
REMARK    8  A    between atoms: S_23  and  C_26
REMARK    9  A    between atoms: C_29  and  C_32
REMARK   10  A    between atoms: C_32  and  C_33
REMARK   11  A    between atoms: C_32  and  C_34
REMARK   12  A    between atoms: C_32  and  C_35
REMARK                            x       y       z     vdW  Elec       q    Type
REMARK                         _______ _______ _______ _____ _____    ______ ____
ROOT
ATOM      1  C   UNL     1       1.329  -4.094  -2.328  0.00  0.00    +0.107 A 
ATOM      2  C   UNL     1       1.022  -5.268  -1.665  0.00  0.00    +0.028 A 
ATOM      3  C   UNL     1       0.199  -6.207  -2.259  0.00  0.00    +0.004 A 
ATOM      4  C   UNL     1      -0.319  -5.975  -3.518  0.00  0.00    +0.024 A 
ATOM      5  C   UNL     1      -0.013  -4.797  -4.187  0.00  0.00    +0.050 A 
ATOM      6  C   UNL     1       0.809  -3.853  -3.585  0.00  0.00    +0.053 A 
ENDROOT
BRANCH   1   7
ATOM      7  S   UNL     1       2.378  -2.901  -1.566  0.00  0.00    +0.061 S 
ATOM      8  O   UNL     1       2.946  -2.131  -2.616  0.00  0.00    -0.153 OA
ATOM      9  O   UNL     1       3.173  -3.604  -0.621  0.00  0.00    -0.153 OA
BRANCH   7  19
ATOM     10  C   UNL     1      -0.025   1.520   0.005  0.00  0.00    +0.013 C 
ATOM     11  C   UNL     1       0.000  -0.009   0.001  0.00  0.00    -0.011 C 
ATOM     12  C   UNL     1      -1.407  -0.634  -0.014  0.00  0.00    +0.008 C 
ATOM     13  C   UNL     1      -1.278  -2.133  -0.294  0.00  0.00    +0.002 C 
ATOM     14  C   UNL     1      -0.343  -2.787   0.725  0.00  0.00    +0.021 C 
ATOM     15  C   UNL     1       1.008  -2.051   0.713  0.00  0.00    +0.086 C 
ATOM     16  C   UNL     1       0.736  -0.613   1.229  0.00  0.00    -0.011 C 
ATOM     17  C   UNL     1       2.033   0.144   1.525  0.00  0.00    +0.013 C 
ATOM     18  C   UNL     1      -0.174  -0.649   2.458  0.00  0.00    +0.013 C 
ATOM     19  N   UNL     1       1.407  -1.877  -0.700  0.00  0.00    -0.172 NA
ATOM     20  C   UNL     1       0.796  -0.601  -1.187  0.00  0.00    +0.117 C 
ENDBRANCH   7  19
ENDBRANCH   1   7
BRANCH   5  21
ATOM     21  N   UNL     1      -0.536  -4.559  -5.460  0.00  0.00    -0.216 N 
ATOM     22  H   UNL     1       0.037  -4.214  -6.163  0.00  0.00    +0.174 HD
BRANCH  21  23
ATOM     23  S   UNL     1      -2.134  -4.866  -5.770  0.00  0.00    +0.072 S 
ATOM     24  O   UNL     1      -2.362  -4.502  -7.125  0.00  0.00    -0.150 OA
ATOM     25  O   UNL     1      -2.400  -6.171  -5.277  0.00  0.00    -0.150 OA
BRANCH  23  26
ATOM     26  C   UNL     1      -3.079  -3.752  -4.784  0.00  0.00    +0.109 A 
ATOM     27  C   UNL     1      -3.463  -4.115  -3.507  0.00  0.00    +0.029 A 
ATOM     28  C   UNL     1      -4.204  -3.242  -2.734  0.00  0.00    +0.006 A 
ATOM     29  C   UNL     1      -4.561  -2.005  -3.237  0.00  0.00    -0.042 A 
ATOM     30  C   UNL     1      -4.176  -1.641  -4.514  0.00  0.00    +0.006 A 
ATOM     31  C   UNL     1      -3.431  -2.513  -5.286  0.00  0.00    +0.029 A 
BRANCH  29  32
ATOM     32  C   UNL     1      -5.370  -1.053  -2.394  0.00  0.00    -0.013 C 
ATOM     33  C   UNL     1      -4.598  -0.723  -1.115  0.00  0.00    +0.015 C 
ATOM     34  C   UNL     1      -5.626   0.234  -3.182  0.00  0.00    +0.015 C 
ATOM     35  C   UNL     1      -6.706  -1.703  -2.031  0.00  0.00    +0.015 C 
ENDBRANCH  29  32
ENDBRANCH  23  26
ENDBRANCH  21  23
ENDBRANCH   5  21
TORSDOF 6
