REMARK  Name = ZINC39448873
REMARK  4 active torsions:
REMARK  status: ('A' for Active; 'I' for Inactive)
REMARK    1  A    between atoms: C_10  and  C_11
REMARK    2  A    between atoms: C_16  and  S_18
REMARK    3  A    between atoms: S_18  and  C_19
REMARK    4  A    between atoms: C_19  and  C_20
REMARK                            x       y       z     vdW  Elec       q    Type
REMARK                         _______ _______ _______ _____ _____    ______ ____
ROOT
ATOM      1  C   UNL     1       4.960   0.161  -0.046  0.00  0.00    +0.201 C 
ATOM      2  N   UNL     1       4.836   1.319  -0.938  0.00  0.00    -0.336 N 
ATOM      3  C   UNL     1       5.197   1.231  -2.190  0.00  0.00    +0.190 C 
ATOM      4  N   UNL     1       5.731   0.109  -2.700  0.00  0.00    -0.195 NA
ATOM      5  C   UNL     1       6.148  -0.865  -1.909  0.00  0.00    +0.159 C 
ATOM      6  N   UNL     1       6.048  -0.694  -0.547  0.00  0.00    -0.300 N 
ATOM      7  N   UNL     1       5.024   2.324  -3.015  0.00  0.00    -0.329 N 
ATOM      8  H   UNL     1       4.639   3.142  -2.663  0.00  0.00    +0.145 HD
ATOM      9  H   UNL     1       5.287   2.275  -3.948  0.00  0.00    +0.145 HD
ATOM     10  H   UNL     1       6.672  -1.121   0.061  0.00  0.00    +0.150 HD
ATOM     11  H   UNL     1       4.483   2.156  -0.595  0.00  0.00    +0.164 HD
ENDROOT
BRANCH   1  21
ATOM     12  C   UNL     1       2.662  -3.070   3.192  0.00  0.00    +0.001 A 
ATOM     13  C   UNL     1       3.862  -2.361   3.201  0.00  0.00    +0.001 A 
ATOM     14  C   UNL     1       4.208  -1.556   2.159  0.00  0.00    +0.009 A 
ATOM     15  C   UNL     1       3.345  -1.435   1.057  0.00  0.00    -0.011 A 
ATOM     16  C   UNL     1       2.124  -2.157   1.048  0.00  0.00    -0.018 A 
ATOM     17  C   UNL     1       1.801  -2.978   2.141  0.00  0.00    +0.008 A 
ATOM     18  C   UNL     1       1.262  -2.037  -0.055  0.00  0.00    +0.008 A 
ATOM     19  C   UNL     1       1.608  -1.232  -1.097  0.00  0.00    +0.001 A 
ATOM     20  C   UNL     1       2.808  -0.523  -1.088  0.00  0.00    +0.008 A 
ATOM     21  C   UNL     1       3.668  -0.615  -0.037  0.00  0.00    +0.000 A 
ENDBRANCH   1  21
BRANCH   5  22
ATOM     22  S   UNL     1       6.816  -2.349  -2.584  0.00  0.00    -0.081 S 
BRANCH  22  23
ATOM     23  C   UNL     1       6.734  -2.091  -4.377  0.00  0.00    +0.173 C 
BRANCH  23  24
ATOM     24  C   UNL     1       7.283  -3.304  -5.084  0.00  0.00    +0.234 C 
ATOM     25  O   UNL     1       7.690  -4.248  -4.441  0.00  0.00    -0.274 OA
ATOM     26  N   UNL     1       7.322  -3.338  -6.431  0.00  0.00    -0.239 N 
ATOM     27  C   UNL     1       6.863  -2.257  -7.196  0.00  0.00    +0.044 A 
ATOM     28  C   UNL     1       7.432  -1.009  -6.966  0.00  0.00    +0.024 A 
ATOM     29  C   UNL     1       7.047   0.085  -7.713  0.00  0.00    +0.002 A 
ATOM     30  C   UNL     1       6.089  -0.075  -8.698  0.00  0.00    +0.000 A 
ATOM     31  C   UNL     1       5.517  -1.307  -8.916  0.00  0.00    +0.005 A 
ATOM     32  C   UNL     1       5.878  -2.423  -8.158  0.00  0.00    -0.025 A 
ATOM     33  C   UNL     1       5.093  -3.677  -8.465  0.00  0.00    +0.042 C 
ATOM     34  C   UNL     1       5.456  -4.849  -7.570  0.00  0.00    +0.042 C 
ATOM     35  C   UNL     1       6.900  -5.248  -7.744  0.00  0.00    -0.025 A 
ATOM     36  C   UNL     1       7.828  -4.454  -7.112  0.00  0.00    +0.044 A 
ATOM     37  C   UNL     1       9.178  -4.754  -7.166  0.00  0.00    +0.024 A 
ATOM     38  C   UNL     1       9.584  -5.860  -7.895  0.00  0.00    +0.002 A 
ATOM     39  C   UNL     1       8.655  -6.644  -8.555  0.00  0.00    +0.000 A 
ATOM     40  C   UNL     1       7.289  -6.341  -8.482  0.00  0.00    +0.005 A 
ENDBRANCH  23  24
ENDBRANCH  22  23
ENDBRANCH   5  22
TORSDOF 4
