REMARK  Name = ZINC33072212
REMARK  7 active torsions:
REMARK  status: ('A' for Active; 'I' for Inactive)
REMARK    1  A    between atoms: C_1  and  C_2
REMARK    2  A    between atoms: C_16  and  C_19
REMARK    3  A    between atoms: N_21  and  C_22
REMARK    4  A    between atoms: C_22  and  C_23
REMARK    5  A    between atoms: C_23  and  C_24
REMARK    6  A    between atoms: C_27  and  S_30
REMARK    7  A    between atoms: S_30  and  C_31
REMARK                            x       y       z     vdW  Elec       q    Type
REMARK                         _______ _______ _______ _____ _____    ______ ____
ROOT
ATOM      1  C   UNL     1       0.854  -7.777   0.433  0.00  0.00    +0.044 C 
ATOM      2  C   UNL     1       0.651  -6.396   1.003  0.00  0.00    -0.048 A 
ATOM      3  C   UNL     1       0.121  -6.247   2.276  0.00  0.00    +0.005 A 
ATOM      4  C   UNL     1      -0.070  -4.993   2.811  0.00  0.00    +0.028 A 
ATOM      5  C   UNL     1       0.272  -3.861   2.066  0.00  0.00    +0.065 A 
ATOM      6  C   UNL     1       0.808  -4.018   0.777  0.00  0.00    +0.066 A 
ATOM      7  C   UNL     1       0.994  -5.289   0.254  0.00  0.00    +0.031 A 
ATOM      8  N   UNL     1       1.037  -2.739   0.297  0.00  0.00    -0.327 N 
ATOM      9  H   UNL     1       1.455  -2.597  -0.711  0.00  0.00    +0.169 HD
ATOM     10  C   UNL     1       0.655  -1.865   1.274  0.00  0.00    +0.174 A 
ATOM     11  N   UNL     1       0.204  -2.526   2.311  0.00  0.00    -0.327 N 
ATOM     12  N   UNL     1       0.729  -0.491   1.181  0.00  0.00    -0.302 N 
ATOM     13  C   UNL     1       0.002  -0.004   0.002  0.00  0.00    +0.108 C 
ATOM     14  C   UNL     1      -0.019   1.526   0.010  0.00  0.00    +0.020 C 
ATOM     15  C   UNL     1       1.420   2.051  -0.001  0.00  0.00    +0.016 C 
ATOM     16  C   UNL     1       2.169   1.490   1.211  0.00  0.00    +0.092 C 
ATOM     17  C   UNL     1       2.126  -0.039   1.168  0.00  0.00    +0.120 C 
ATOM     18  H   UNL     1      -0.189  -2.163   3.272  0.00  0.00    +0.169 HD
ENDROOT
BRANCH  16  19
ATOM     19  C   UNL     1       3.602   1.955   1.177  0.00  0.00    +0.218 C 
ATOM     20  O   UNL     1       4.501   1.143   1.124  0.00  0.00    -0.275 OA
ATOM     21  N   UNL     1       3.884   3.272   1.206  0.00  0.00    -0.315 N 
ATOM     22  H   UNL     1       3.068   4.009   1.255  0.00  0.00    +0.149 HD
BRANCH  21  23
ATOM     23  C   UNL     1       5.277   3.724   1.173  0.00  0.00    +0.109 C 
BRANCH  23  24
ATOM     24  C   UNL     1       5.319   5.253   1.216  0.00  0.00    +0.054 C 
BRANCH  24  25
ATOM     25  C   UNL     1       6.752   5.717   1.182  0.00  0.00    -0.046 A 
ATOM     26  C   UNL     1       7.447   5.900   2.364  0.00  0.00    +0.005 A 
ATOM     27  C   UNL     1       8.762   6.320   2.337  0.00  0.00    +0.015 A 
ATOM     28  C   UNL     1       9.384   6.570   1.119  0.00  0.00    +0.008 A 
ATOM     29  C   UNL     1       8.682   6.391  -0.066  0.00  0.00    +0.015 A 
ATOM     30  C   UNL     1       7.369   5.965  -0.031  0.00  0.00    +0.005 A 
BRANCH  28  31
ATOM     31  S   UNL     1      11.060   7.113   1.080  0.00  0.00    -0.129 S 
ATOM     32  C   UNL     1      11.536   7.197   2.828  0.00  0.00    +0.090 C 
ENDBRANCH  28  31
ENDBRANCH  24  25
ENDBRANCH  23  24
ENDBRANCH  21  23
ENDBRANCH  16  19
TORSDOF 5
