REMARK  Name = ZINC35921311
REMARK  11 active torsions:
REMARK  status: ('A' for Active; 'I' for Inactive)
REMARK    1  A    between atoms: C_1  and  C_2
REMARK    2  A    between atoms: C_2  and  C_3
REMARK    3  A    between atoms: C_2  and  C_4
REMARK    4  A    between atoms: C_4  and  N_5
REMARK    5  A    between atoms: N_5  and  C_6
REMARK    6  A    between atoms: C_6  and  C_7
REMARK    7  A    between atoms: N_10  and  C_12
REMARK    8  A    between atoms: N_21  and  C_23
REMARK    9  A    between atoms: C_23  and  C_24
REMARK   10  A    between atoms: C_27  and  C_29
REMARK   11  A    between atoms: C_29  and  C_30
REMARK                            x       y       z     vdW  Elec       q    Type
REMARK                         _______ _______ _______ _____ _____    ______ ____
ROOT
ATOM      1  C   UNL     1       0.251  -2.239   4.023  0.00  0.00    +0.082 A 
ATOM      2  C   UNL     1       1.093  -3.246   3.562  0.00  0.00    -0.018 A 
ATOM      3  C   UNL     1       1.750  -3.765   4.634  0.00  0.00    +0.045 A 
ATOM      4  N   UNL     1       1.340  -3.106   5.729  0.00  0.00    -0.236 N 
ATOM      5  N   UNL     1       0.399  -2.147   5.323  0.00  0.00    -0.169 NA
ATOM      6  C   UNL     1       2.748  -4.891   4.517  0.00  0.00    +0.037 C 
ATOM      7  C   UNL     1       2.562  -5.536   3.136  0.00  0.00    -0.072 C 
ATOM      8  N   UNL     1       2.557  -4.495   2.100  0.00  0.00    +0.383 N 
ATOM      9  C   UNL     1       1.299  -3.732   2.150  0.00  0.00    -0.039 C 
ATOM     10  H   UNL     1       3.334  -3.869   2.251  0.00  0.00    -0.081 HD
ENDROOT
BRANCH   4  11
ATOM     11  C   UNL     1       1.778  -3.332   7.042  0.00  0.00    +0.067 A 
ATOM     12  C   UNL     1       3.126  -3.544   7.299  0.00  0.00    +0.028 A 
ATOM     13  C   UNL     1       3.554  -3.766   8.593  0.00  0.00    +0.003 A 
ATOM     14  C   UNL     1       2.643  -3.776   9.633  0.00  0.00    +0.020 A 
ATOM     15  C   UNL     1       1.299  -3.564   9.380  0.00  0.00    +0.043 A 
ATOM     16  C   UNL     1       0.865  -3.337   8.087  0.00  0.00    +0.047 A 
ATOM     17 CL   UNL     1       0.157  -3.578  10.688  0.00  0.00    -0.083 Cl
ENDBRANCH   4  11
BRANCH   1  18
ATOM     18  C   UNL     1      -0.666  -1.396   3.175  0.00  0.00    +0.165 C 
BRANCH  18  19
ATOM     19  N   UNL     1       0.017  -0.156   2.800  0.00  0.00    -0.295 N 
ATOM     20  C   UNL     1      -0.128   0.949   3.558  0.00  0.00    +0.221 C 
ATOM     21  O   UNL     1      -0.783   0.903   4.578  0.00  0.00    -0.275 OA
BRANCH  19  22
ATOM     22  C   UNL     1       0.859  -0.116   1.601  0.00  0.00    +0.111 C 
BRANCH  22  24
ATOM     23  C   UNL     1      -0.681   1.474   0.442  0.00  0.00    +0.009 C 
ATOM     24  C   UNL     1      -0.021   0.096   0.368  0.00  0.00    +0.000 C 
ATOM     25  C   UNL     1       0.841   0.011  -0.894  0.00  0.00    +0.009 C 
ENDBRANCH  22  24
ENDBRANCH  19  22
BRANCH  20  26
ATOM     26  C   UNL     1       0.524   2.241   3.139  0.00  0.00    +0.138 C 
BRANCH  26  27
ATOM     27  C   UNL     1       0.354   3.267   4.231  0.00  0.00    -0.001 A 
ATOM     28  C   UNL     1       1.166   3.536   5.282  0.00  0.00    +0.011 A 
ATOM     29  C   UNL     1       0.805   4.534   6.169  0.00  0.00    +0.008 A 
ATOM     30  C   UNL     1      -0.349   5.213   5.960  0.00  0.00    +0.045 A 
ATOM     31  S   UNL     1      -0.964   4.447   4.470  0.00  0.00    -0.101 S 
ENDBRANCH  26  27
ENDBRANCH  20  26
ENDBRANCH  18  19
ENDBRANCH   1  18
BRANCH   8  32
ATOM     32  C   UNL     1       2.693  -5.123   0.778  0.00  0.00    -0.075 C 
BRANCH  32  33
ATOM     33  C   UNL     1       4.063  -5.796   0.672  0.00  0.00    -0.028 C 
ATOM     34  C   UNL     1       5.036  -5.256  -0.378  0.00  0.00    +0.002 C 
ATOM     35  C   UNL     1       4.355  -6.609  -0.591  0.00  0.00    +0.002 C 
ENDBRANCH  32  33
ENDBRANCH   8  32
TORSDOF 9
