REMARK  Name = ZINC28718608
REMARK  4 active torsions:
REMARK  status: ('A' for Active; 'I' for Inactive)
REMARK    1  A    between atoms: C_4  and  N_23
REMARK    2  A    between atoms: C_6  and  C_7
REMARK    3  A    between atoms: C_8  and  C_9
REMARK    4  A    between atoms: N_11  and  C_12
REMARK                            x       y       z     vdW  Elec       q    Type
REMARK                         _______ _______ _______ _____ _____    ______ ____
ROOT
ATOM      1  C   UNL     1      -3.694  -0.858   0.032  0.00  0.00    +0.241 C 
ATOM      2  O   UNL     1      -3.674  -2.075   0.016  0.00  0.00    -0.270 OA
ATOM      3  N   UNL     1      -4.872  -0.203   0.049  0.00  0.00    -0.282 N 
ATOM      4  H   UNL     1      -4.889   0.763   0.130  0.00  0.00    +0.155 HD
ENDROOT
BRANCH   3   5
ATOM      5  C   UNL     1      -6.072  -0.918  -0.048  0.00  0.00    +0.035 A 
ATOM      6  C   UNL     1      -6.181  -2.170   0.544  0.00  0.00    +0.024 A 
ATOM      7  C   UNL     1      -7.366  -2.875   0.449  0.00  0.00    +0.018 A 
ATOM      8  C   UNL     1      -8.440  -2.333  -0.236  0.00  0.00    +0.030 A 
ATOM      9  C   UNL     1      -8.341  -1.078  -0.838  0.00  0.00    +0.049 A 
ATOM     10  C   UNL     1      -7.148  -0.371  -0.731  0.00  0.00    +0.047 A 
ATOM     11  N   UNL     1      -9.405  -0.520  -1.540  0.00  0.00    -0.284 N 
ATOM     12  C   UNL     1     -10.690  -0.839  -1.407  0.00  0.00    +0.227 C 
ATOM     13  O   UNL     1     -11.501  -0.249  -2.090  0.00  0.00    -0.275 OA
ATOM     14  C   UNL     1     -11.192  -1.892  -0.458  0.00  0.00    +0.170 C 
ATOM     15  S   UNL     1      -9.959  -3.225  -0.357  0.00  0.00    -0.114 S 
ATOM     16  H   UNL     1      -9.190   0.169  -2.189  0.00  0.00    +0.155 HD
ENDBRANCH   3   5
BRANCH   1  18
ATOM     17  C   UNL     1      -1.260  -0.760   0.015  0.00  0.00    +0.013 C 
ATOM     18  C   UNL     1      -2.439  -0.105   0.032  0.00  0.00    +0.068 C 
BRANCH  17  24
ATOM     19  C   UNL     1      -0.017   1.395   0.033  0.00  0.00    +0.009 A 
ATOM     20  C   UNL     1       1.169   2.097   0.034  0.00  0.00    +0.023 A 
ATOM     21  C   UNL     1       2.378   1.421   0.016  0.00  0.00    +0.071 A 
ATOM     22  C   UNL     1       2.405   0.035  -0.002  0.00  0.00    +0.145 A 
ATOM     23  C   UNL     1       1.227  -0.680  -0.003  0.00  0.00    +0.042 A 
ATOM     24  C   UNL     1       0.002  -0.004   0.015  0.00  0.00    -0.023 A 
ATOM     25 CL   UNL     1       3.867   2.313   0.015  0.00  0.00    -0.081 Cl
BRANCH  22  26
ATOM     26  N   UNL     1       3.702  -0.678  -0.021  0.00  0.00    +0.058 N 
ATOM     27  O   UNL     1       3.726  -1.887  -0.037  0.00  0.00    -0.126 OA
ATOM     28  O   UNL     1       4.736  -0.052  -0.021  0.00  0.00    -0.126 OA
ENDBRANCH  22  26
ENDBRANCH  17  24
ENDBRANCH   1  18
TORSDOF 4
