REMARK  Name = ZINC32754850
REMARK  14 active torsions:
REMARK  status: ('A' for Active; 'I' for Inactive)
REMARK    1  A    between atoms: C_1  and  C_2
REMARK    2  A    between atoms: C_2  and  N_3
REMARK    3  A    between atoms: N_3  and  C_4
REMARK    4  A    between atoms: N_3  and  C_24
REMARK    5  A    between atoms: C_4  and  C_5
REMARK    6  A    between atoms: C_6  and  C_19
REMARK    7  A    between atoms: C_7  and  C_13
REMARK    8  A    between atoms: C_16  and  C_18
REMARK    9  A    between atoms: C_19  and  O_21
REMARK   10  A    between atoms: O_21  and  C_22
REMARK   11  A    between atoms: C_22  and  C_23
REMARK   12  A    between atoms: C_24  and  C_25
REMARK   13  A    between atoms: N_27  and  C_28
REMARK   14  A    between atoms: C_33  and  C_34
REMARK                            x       y       z     vdW  Elec       q    Type
REMARK                         _______ _______ _______ _____ _____    ______ ____
ROOT
ATOM      1  C   UNL     1      -3.395   7.341  -0.663  0.00  0.00    +0.008 C 
ATOM      2  C   UNL     1      -3.248   8.188   0.378  0.00  0.00    +0.079 C 
ATOM      3  C   UNL     1      -2.949   9.641   0.070  0.00  0.00    +0.179 C 
ATOM      4  N   UNL     1      -2.842  10.013  -1.351  0.00  0.00    -0.285 N 
ATOM      5  C   UNL     1      -3.015   9.052  -2.280  0.00  0.00    +0.304 C 
ATOM      6  O   UNL     1      -2.929   9.349  -3.456  0.00  0.00    -0.252 OA
ATOM      7  N   UNL     1      -3.273   7.780  -1.951  0.00  0.00    -0.274 N 
ATOM      8  H   UNL     1      -2.626  11.054  -1.633  0.00  0.00    +0.151 HD
ATOM      9  H   UNL     1      -3.388   7.073  -2.786  0.00  0.00    +0.156 HD
ENDROOT
BRANCH   3  10
ATOM     10  C   UNL     1      -1.649  10.001   0.743  0.00  0.00    +0.130 A 
ATOM     11  C   UNL     1      -1.523  10.663   1.907  0.00  0.00    +0.047 A 
ATOM     12  C   UNL     1      -0.138  10.783   2.162  0.00  0.00    +0.045 A 
ATOM     13  C   UNL     1       0.500  10.186   1.139  0.00  0.00    +0.102 A 
ATOM     14  O   UNL     1      -0.421   9.709   0.285  0.00  0.00    -0.463 OA
ATOM     15  C   UNL     1       1.994  10.068   0.980  0.00  0.00    +0.086 C 
ENDBRANCH   3  10
BRANCH   2  16
ATOM     16  C   UNL     1      -3.370   7.734   1.713  0.00  0.00    +0.339 C 
ATOM     17  O   UNL     1      -3.490   6.545   1.942  0.00  0.00    -0.245 OA
BRANCH  16  18
ATOM     18  O   UNL     1      -3.352   8.619   2.731  0.00  0.00    -0.462 OA
BRANCH  18  19
ATOM     19  C   UNL     1      -3.479   8.091   4.052  0.00  0.00    +0.229 C 
ATOM     20  C   UNL     1      -3.438   9.236   5.066  0.00  0.00    +0.048 C 
ENDBRANCH  18  19
ENDBRANCH  16  18
ENDBRANCH   2  16
BRANCH   1  21
ATOM     21  C   UNL     1      -3.693   5.888  -0.401  0.00  0.00    -0.026 C 
BRANCH  21  22
ATOM     22  N   UNL     1      -2.436   5.164  -0.172  0.00  0.00    +0.389 N 
ATOM     23  H   UNL     1      -1.888   5.683   0.628  0.00  0.00    -0.081 HD
BRANCH  22  25
ATOM     24  C   UNL     1      -3.227   3.812   1.711  0.00  0.00    -0.017 C 
ATOM     25  C   UNL     1      -2.694   3.789   0.277  0.00  0.00    -0.081 C 
ENDBRANCH  22  25
BRANCH  22  26
ATOM     26  C   UNL     1      -1.595   5.175  -1.376  0.00  0.00    +0.019 C 
BRANCH  26  27
ATOM     27  C   UNL     1      -0.225   4.645  -1.038  0.00  0.00    +0.201 C 
ATOM     28  O   UNL     1       0.025   4.293   0.095  0.00  0.00    -0.278 OA
ATOM     29  N   UNL     1       0.721   4.563  -1.994  0.00  0.00    -0.287 N 
ATOM     30  H   UNL     1       0.517   4.950  -3.004  0.00  0.00    +0.155 HD
BRANCH  29  31
ATOM     31  C   UNL     1       1.962   3.986  -1.703  0.00  0.00    +0.038 A 
ATOM     32  C   UNL     1       2.525   4.145  -0.444  0.00  0.00    +0.043 A 
ATOM     33  C   UNL     1       3.753   3.578  -0.161  0.00  0.00    +0.043 A 
ATOM     34  C   UNL     1       4.421   2.852  -1.132  0.00  0.00    +0.020 A 
ATOM     35  C   UNL     1       3.862   2.692  -2.386  0.00  0.00    +0.006 A 
ATOM     36  C   UNL     1       2.635   3.257  -2.674  0.00  0.00    -0.029 A 
ATOM     37  C   UNL     1       2.026   3.081  -4.042  0.00  0.00    +0.045 C 
ATOM     38 CL   UNL     1       4.458   3.776   1.413  0.00  0.00    -0.083 Cl
ENDBRANCH  29  31
ENDBRANCH  26  27
ENDBRANCH  22  26
ENDBRANCH  21  22
ENDBRANCH   1  21
TORSDOF 10
