REMARK  Name = ZINC20494843
REMARK  8 active torsions:
REMARK  status: ('A' for Active; 'I' for Inactive)
REMARK    1  A    between atoms: C_4  and  N_11
REMARK    2  A    between atoms: C_5  and  C_7
REMARK    3  A    between atoms: C_12  and  C_14
REMARK    4  A    between atoms: C_14  and  S_15
REMARK    5  A    between atoms: S_15  and  C_16
REMARK    6  A    between atoms: N_21  and  N_22
REMARK    7  A    between atoms: C_23  and  C_24
REMARK    8  A    between atoms: C_27  and  O_30
REMARK                            x       y       z     vdW  Elec       q    Type
REMARK                         _______ _______ _______ _____ _____    ______ ____
ROOT
ATOM      1  C   UNL     1      -7.682  -0.173  -0.385  0.00  0.00    +0.211 A 
ATOM      2  N   UNL     1      -8.968  -0.622  -0.487  0.00  0.00    -0.186 NA
ATOM      3  C   UNL     1      -9.792   0.467  -0.544  0.00  0.00    +0.232 A 
ATOM      4  N   UNL     1      -9.047   1.544  -0.479  0.00  0.00    -0.245 N 
ATOM      5  N   UNL     1      -7.710   1.139  -0.372  0.00  0.00    -0.144 NA
ATOM      6  N   UNL     1     -11.175   0.438  -0.651  0.00  0.00    -0.205 N 
ATOM      7  H   UNL     1     -11.703  -0.526  -0.698  0.00  0.00    +0.177 HD
ATOM      8  H   UNL     1      -9.514   2.539  -0.512  0.00  0.00    +0.192 HD
ENDROOT
BRANCH   6   9
ATOM      9  N   UNL     1     -11.899   1.637  -0.699  0.00  0.00    -0.188 NA
ATOM     10  C   UNL     1     -13.194   1.609  -0.799  0.00  0.00    +0.138 C 
BRANCH  10  11
ATOM     11  C   UNL     1     -13.956   2.870  -0.850  0.00  0.00    -0.005 A 
ATOM     12  C   UNL     1     -13.288   4.096  -0.784  0.00  0.00    +0.013 A 
ATOM     13  C   UNL     1     -14.004   5.272  -0.836  0.00  0.00    +0.046 A 
ATOM     14  C   UNL     1     -15.389   5.241  -0.943  0.00  0.00    +0.117 A 
ATOM     15  C   UNL     1     -16.057   4.025  -1.004  0.00  0.00    +0.046 A 
ATOM     16  C   UNL     1     -15.349   2.844  -0.957  0.00  0.00    +0.013 A 
BRANCH  14  17
ATOM     17  O   UNL     1     -16.091   6.403  -0.989  0.00  0.00    -0.507 OA
ATOM     18  H   UNL     1     -17.188   6.380  -1.074  0.00  0.00    +0.292 HD
ENDBRANCH  14  17
ENDBRANCH  10  11
ENDBRANCH   6   9
BRANCH   1  19
ATOM     19  S   UNL     1      -6.239  -1.178  -0.280  0.00  0.00    -0.075 S 
BRANCH  19  20
ATOM     20  C   UNL     1      -4.878   0.016  -0.166  0.00  0.00    +0.173 C 
BRANCH  20  22
ATOM     21  N   UNL     1      -2.413  -0.035   0.025  0.00  0.00    -0.284 N 
ATOM     22  C   UNL     1      -3.568  -0.722  -0.069  0.00  0.00    +0.227 C 
ATOM     23  O   UNL     1      -3.554  -1.935  -0.076  0.00  0.00    -0.275 OA
ATOM     24  H   UNL     1      -2.431   1.061   0.123  0.00  0.00    +0.155 HD
BRANCH  21  28
ATOM     25  C   UNL     1       1.228  -2.059  -0.054  0.00  0.00    +0.001 A 
ATOM     26  C   UNL     1       0.111  -2.624  -0.642  0.00  0.00    +0.002 A 
ATOM     27  C   UNL     1      -1.097  -1.956  -0.618  0.00  0.00    +0.024 A 
ATOM     28  C   UNL     1      -1.190  -0.714  -0.002  0.00  0.00    +0.045 A 
ATOM     29  C   UNL     1      -0.067  -0.150   0.588  0.00  0.00    +0.076 A 
ATOM     30  C   UNL     1       1.140  -0.821   0.555  0.00  0.00    +0.014 A 
BRANCH  29  31
ATOM     31  C   UNL     1      -0.163   1.197   1.258  0.00  0.00    +0.419 C 
ATOM     32  F   UNL     1       1.088   1.552   1.773  0.00  0.00    -0.166 F 
ATOM     33  F   UNL     1      -0.571   2.155   0.323  0.00  0.00    -0.166 F 
ATOM     34  F   UNL     1      -1.096   1.135   2.299  0.00  0.00    -0.166 F 
ENDBRANCH  29  31
ENDBRANCH  21  28
ENDBRANCH  20  22
ENDBRANCH  19  20
ENDBRANCH   1  19
TORSDOF 8
