REMARK  Name = ZINC13064469
REMARK  10 active torsions:
REMARK  status: ('A' for Active; 'I' for Inactive)
REMARK    1  A    between atoms: C_1  and  C_2
REMARK    2  A    between atoms: C_2  and  C_3
REMARK    3  A    between atoms: C_3  and  C_5
REMARK    4  A    between atoms: C_3  and  N_72
REMARK    5  A    between atoms: N_9  and  C_10
REMARK    6  A    between atoms: C_10  and  C_11
REMARK    7  A    between atoms: C_11  and  C_12
REMARK    8  A    between atoms: C_18  and  C_19
REMARK    9  A    between atoms: C_18  and  N_72
REMARK   10  A    between atoms: C_35  and  N_72
REMARK                            x       y       z     vdW  Elec       q    Type
REMARK                         _______ _______ _______ _____ _____    ______ ____
ROOT
ATOM      1  N   UNL     1       1.408   1.450   0.140  0.00  0.00    +0.391 N 
ATOM      2  H   UNL     1       1.604   2.449   0.007  0.00  0.00    -0.080 HD
ENDROOT
BRANCH   1   3
ATOM      3  C   UNL     1      -0.056   1.244   0.138  0.00  0.00    -0.067 C 
ATOM      4  C   UNL     1      -0.719   2.175   1.183  0.00  0.00    -0.015 C 
ATOM      5  C   UNL     1      -2.167   2.316   0.640  0.00  0.00    -0.002 C 
ATOM      6  C   UNL     1      -1.992   2.381  -0.891  0.00  0.00    -0.002 C 
ATOM      7  C   UNL     1      -0.650   1.700  -1.210  0.00  0.00    -0.015 C 
ENDBRANCH   1   3
BRANCH   1   8
ATOM      8  C   UNL     1       1.977   1.017   1.434  0.00  0.00    +0.003 C 
BRANCH   8   9
ATOM      9  C   UNL     1       1.290  -0.232   1.920  0.00  0.00    +0.138 A 
ATOM     10  N   UNL     1       0.002  -0.398   2.100  0.00  0.00    -0.115 NA
ATOM     11  N   UNL     1      -0.190  -1.600   2.522  0.00  0.00    -0.023 NA
ATOM     12  N   UNL     1       0.943  -2.206   2.616  0.00  0.00    -0.044 NA
ATOM     13  N   UNL     1       1.879  -1.397   2.248  0.00  0.00    -0.231 N 
BRANCH  13  14
ATOM     14  C   UNL     1       3.313  -1.691   2.200  0.00  0.00    +0.152 C 
BRANCH  14  15
ATOM     15  C   UNL     1       3.951  -1.340   3.546  0.00  0.00    +0.058 C 
BRANCH  15  16
ATOM     16  C   UNL     1       5.426  -1.643   3.497  0.00  0.00    -0.046 A 
ATOM     17  C   UNL     1       5.889  -2.890   3.872  0.00  0.00    +0.004 A 
ATOM     18  C   UNL     1       7.242  -3.169   3.821  0.00  0.00    +0.000 A 
ATOM     19  C   UNL     1       8.133  -2.197   3.407  0.00  0.00    +0.000 A 
ATOM     20  C   UNL     1       7.671  -0.948   3.038  0.00  0.00    +0.000 A 
ATOM     21  C   UNL     1       6.318  -0.670   3.083  0.00  0.00    +0.004 A 
ENDBRANCH  15  16
ENDBRANCH  14  15
ENDBRANCH  13  14
ENDBRANCH   8   9
BRANCH   8  23
ATOM     22  C   UNL     1       2.509   3.397   1.980  0.00  0.00    +0.002 C 
ATOM     23  C   UNL     1       1.779   2.139   2.455  0.00  0.00    -0.011 C 
ENDBRANCH   8  23
ENDBRANCH   1   8
BRANCH   1  24
ATOM     24  C   UNL     1       2.027   0.687  -0.965  0.00  0.00    -0.036 C 
BRANCH  24  25
ATOM     25  C   UNL     1       3.410   1.232  -1.212  0.00  0.00    +0.001 A 
ATOM     26  C   UNL     1       4.490   0.594  -0.695  0.00  0.00    +0.017 A 
ATOM     27  C   UNL     1       5.820   1.144  -0.957  0.00  0.00    +0.002 A 
ATOM     28  C   UNL     1       6.970   0.526  -0.453  0.00  0.00    +0.059 A 
ATOM     29  C   UNL     1       8.210   1.070  -0.714  0.00  0.00    +0.163 A 
ATOM     30  C   UNL     1       8.321   2.235  -1.479  0.00  0.00    +0.164 A 
ATOM     31  C   UNL     1       7.189   2.853  -1.981  0.00  0.00    +0.075 A 
ATOM     32  C   UNL     1       5.933   2.318  -1.726  0.00  0.00    +0.053 A 
ATOM     33  N   UNL     1       4.793   2.922  -2.218  0.00  0.00    -0.322 N 
ATOM     34  H   UNL     1       4.871   3.732  -2.747  0.00  0.00    +0.169 HD
ATOM     35  C   UNL     1       3.576   2.405  -1.976  0.00  0.00    +0.251 A 
ATOM     36  O   UNL     1       2.592   2.965  -2.427  0.00  0.00    -0.268 OA
ATOM     37  O   UNL     1       9.541   2.775  -1.744  0.00  0.00    -0.485 OA
ATOM     38  C   UNL     1      10.629   2.347  -0.918  0.00  0.00    +0.270 C 
ATOM     39  C   UNL     1      10.574   0.818  -0.804  0.00  0.00    +0.270 C 
ATOM     40  O   UNL     1       9.320   0.458  -0.214  0.00  0.00    -0.485 OA
ENDBRANCH  24  25
ENDBRANCH   1  24
TORSDOF 9
