REMARK  Name = ZINC16524555
REMARK  2 active torsions:
REMARK  status: ('A' for Active; 'I' for Inactive)
REMARK    1  A    between atoms: C_7  and  C_12
REMARK    2  A    between atoms: N_19  and  C_22
REMARK                            x       y       z     vdW  Elec       q    Type
REMARK                         _______ _______ _______ _____ _____    ______ ____
ROOT
ATOM      1  C   UNL     1       0.417  -2.477  -1.376  0.00  0.00    +0.126 A 
ATOM      2  C   UNL     1       0.086  -3.779  -1.144  0.00  0.00    +0.263 A 
ATOM      3  O   UNL     1      -0.350  -4.164   0.074  0.00  0.00    -0.267 OA
ATOM      4  N   UNL     1       0.200  -4.695  -2.159  0.00  0.00    -0.302 N 
ATOM      5  H   UNL     1      -0.034  -5.623  -1.998  0.00  0.00    +0.171 HD
ATOM      6  C   UNL     1       0.633  -4.316  -3.375  0.00  0.00    +0.168 A 
ATOM      7  S   UNL     1       0.765  -5.479  -4.624  0.00  0.00    -0.012 S 
ATOM      8  N   UNL     1       0.965  -3.035  -3.623  0.00  0.00    -0.256 N 
ATOM      9  C   UNL     1       0.863  -2.102  -2.656  0.00  0.00    +0.270 A 
ATOM     10  O   UNL     1       1.159  -0.943  -2.888  0.00  0.00    -0.267 OA
ENDROOT
BRANCH   1  17
ATOM     11  C   UNL     1      -2.819   0.631  -1.193  0.00  0.00    +0.000 A 
ATOM     12  C   UNL     1      -2.182   1.858  -1.245  0.00  0.00    +0.001 A 
ATOM     13  C   UNL     1      -0.828   1.951  -0.994  0.00  0.00    +0.015 A 
ATOM     14  C   UNL     1      -0.101   0.802  -0.684  0.00  0.00    +0.066 A 
ATOM     15  C   UNL     1      -0.754  -0.433  -0.633  0.00  0.00    +0.012 A 
ATOM     16  C   UNL     1      -2.103  -0.514  -0.886  0.00  0.00    +0.008 A 
ATOM     17  C   UNL     1       0.299  -1.451  -0.278  0.00  0.00    +0.248 C 
ATOM     18  O   UNL     1       1.532  -0.739  -0.139  0.00  0.00    -0.448 OA
ATOM     19  C   UNL     1       1.321   0.568  -0.371  0.00  0.00    +0.340 C 
ATOM     20  O   UNL     1       2.176   1.430  -0.328  0.00  0.00    -0.245 OA
ENDBRANCH   1  17
BRANCH   8  21
ATOM     21  C   UNL     1       1.414  -2.668  -4.899  0.00  0.00    +0.052 A 
ATOM     22  C   UNL     1       2.768  -2.715  -5.199  0.00  0.00    +0.028 A 
ATOM     23  C   UNL     1       3.208  -2.353  -6.457  0.00  0.00    +0.022 A 
ATOM     24  C   UNL     1       2.300  -1.943  -7.418  0.00  0.00    +0.041 A 
ATOM     25  C   UNL     1       0.950  -1.895  -7.121  0.00  0.00    +0.022 A 
ATOM     26  C   UNL     1       0.504  -2.262  -5.866  0.00  0.00    +0.028 A 
ATOM     27 CL   UNL     1       2.857  -1.489  -8.998  0.00  0.00    -0.084 Cl
ENDBRANCH   8  21
TORSDOF 2
