REMARK  Name = ZINC09613369
REMARK  11 active torsions:
REMARK  status: ('A' for Active; 'I' for Inactive)
REMARK    1  A    between atoms: C_1  and  C_2
REMARK    2  A    between atoms: C_3  and  C_34
REMARK    3  A    between atoms: C_4  and  C_33
REMARK    4  A    between atoms: C_7  and  C_8
REMARK    5  A    between atoms: C_8  and  C_10
REMARK    6  A    between atoms: C_10  and  S_11
REMARK    7  A    between atoms: S_11  and  C_12
REMARK    8  A    between atoms: N_22  and  C_23
REMARK    9  A    between atoms: C_26  and  O_29
REMARK   10  A    between atoms: O_29  and  C_30
REMARK   11  A    between atoms: C_34  and  C_36
REMARK                            x       y       z     vdW  Elec       q    Type
REMARK                         _______ _______ _______ _____ _____    ______ ____
ROOT
ATOM      1  C   UNL     1       4.525  -2.266   1.008  0.00  0.00    +0.177 A 
ATOM      2  N   UNL     1       3.413  -2.953   0.920  0.00  0.00    -0.223 NA
ATOM      3  C   UNL     1       3.364  -4.141   0.284  0.00  0.00    +0.079 A 
ATOM      4  C   UNL     1       2.176  -4.871   0.186  0.00  0.00    +0.028 A 
ATOM      5  C   UNL     1       2.174  -6.074  -0.462  0.00  0.00    +0.002 A 
ATOM      6  C   UNL     1       3.335  -6.584  -1.027  0.00  0.00    +0.001 A 
ATOM      7  C   UNL     1       4.513  -5.894  -0.948  0.00  0.00    +0.015 A 
ATOM      8  C   UNL     1       4.545  -4.663  -0.292  0.00  0.00    +0.065 A 
ATOM      9  C   UNL     1       5.781  -3.878  -0.175  0.00  0.00    +0.267 A 
ATOM     10  O   UNL     1       6.829  -4.276  -0.650  0.00  0.00    -0.267 OA
ATOM     11  N   UNL     1       5.711  -2.696   0.480  0.00  0.00    -0.255 N 
ENDROOT
BRANCH  11  12
ATOM     12  C   UNL     1       6.862  -1.908   0.619  0.00  0.00    +0.052 A 
ATOM     13  C   UNL     1       7.176  -0.962  -0.347  0.00  0.00    +0.030 A 
ATOM     14  C   UNL     1       8.307  -0.182  -0.207  0.00  0.00    +0.048 A 
ATOM     15  C   UNL     1       9.135  -0.351   0.893  0.00  0.00    +0.127 A 
ATOM     16  C   UNL     1       8.824  -1.300   1.857  0.00  0.00    +0.048 A 
ATOM     17  C   UNL     1       7.691  -2.077   1.720  0.00  0.00    +0.030 A 
BRANCH  15  18
ATOM     18  O   UNL     1      10.251   0.414   1.028  0.00  0.00    -0.434 OA
BRANCH  18  19
ATOM     19  C   UNL     1      10.509   1.371  -0.001  0.00  0.00    +0.541 C 
ATOM     20  F   UNL     1      10.651   0.712  -1.226  0.00  0.00    -0.166 F 
ATOM     21  F   UNL     1       9.443   2.273  -0.077  0.00  0.00    -0.166 F 
ENDBRANCH  18  19
ENDBRANCH  15  18
ENDBRANCH  11  12
BRANCH   1  22
ATOM     22  S   UNL     1       4.493  -0.719   1.851  0.00  0.00    -0.079 S 
BRANCH  22  23
ATOM     23  C   UNL     1       2.746  -0.654   2.321  0.00  0.00    +0.158 C 
BRANCH  23  24
ATOM     24  C   UNL     1       2.476   0.622   3.077  0.00  0.00    +0.190 C 
ATOM     25  O   UNL     1       3.378   1.410   3.279  0.00  0.00    -0.290 OA
BRANCH  24  32
ATOM     26  C   UNL     1       1.675   3.175   4.656  0.00  0.00    +0.047 C 
ATOM     27  C   UNL     1       0.790   2.023   4.254  0.00  0.00    -0.012 A 
ATOM     28  C   UNL     1      -0.591   1.886   4.523  0.00  0.00    +0.041 A 
ATOM     29  C   UNL     1      -0.997   0.682   3.967  0.00  0.00    +0.024 A 
ATOM     30  N   UNL     1       0.062   0.096   3.394  0.00  0.00    -0.355 N 
ATOM     31  H   UNL     1       0.050  -0.759   2.935  0.00  0.00    +0.166 HD
ATOM     32  C   UNL     1       1.172   0.901   3.553  0.00  0.00    +0.087 A 
ATOM     33  C   UNL     1      -2.397   0.125   4.004  0.00  0.00    +0.064 C 
BRANCH  28  34
ATOM     34  C   UNL     1      -1.435   2.841   5.249  0.00  0.00    +0.162 C 
ATOM     35  O   UNL     1      -1.960   3.760   4.655  0.00  0.00    -0.292 OA
ATOM     36  C   UNL     1      -1.652   2.679   6.731  0.00  0.00    +0.091 C 
ENDBRANCH  28  34
ENDBRANCH  24  32
ENDBRANCH  23  24
ENDBRANCH  22  23
ENDBRANCH   1  22
TORSDOF 8
