REMARK  Name = ZINC39610229
REMARK  7 active torsions:
REMARK  status: ('A' for Active; 'I' for Inactive)
REMARK    1  A    between atoms: C_1  and  C_2
REMARK    2  A    between atoms: C_2  and  C_3
REMARK    3  A    between atoms: C_3  and  C_5
REMARK    4  A    between atoms: C_3  and  C_11
REMARK    5  A    between atoms: C_15  and  C_24
REMARK    6  A    between atoms: N_26  and  C_27
REMARK    7  A    between atoms: C_27  and  C_28
REMARK                            x       y       z     vdW  Elec       q    Type
REMARK                         _______ _______ _______ _____ _____    ______ ____
ROOT
ATOM      1  C   UNL     1       0.836  -2.172   1.177  0.00  0.00    +0.223 C 
ATOM      2  O   UNL     1       0.405  -2.885   2.059  0.00  0.00    -0.275 OA
ATOM      3  N   UNL     1       1.528  -2.710   0.153  0.00  0.00    -0.300 N 
ATOM      4  C   UNL     1       2.132  -2.008  -1.003  0.00  0.00    +0.121 C 
ATOM      5  C   UNL     1       3.483  -2.723  -1.232  0.00  0.00    +0.100 C 
ATOM      6  C   UNL     1       3.295  -4.121  -0.619  0.00  0.00    -0.004 C 
ATOM      7  C   UNL     1       1.863  -4.138  -0.067  0.00  0.00    +0.115 C 
ATOM      8  C   UNL     1       3.462  -5.194  -1.690  0.00  0.00    -0.010 C 
ATOM      9  C   UNL     1       3.329  -6.577  -1.046  0.00  0.00    -0.082 C 
ATOM     10  N   UNL     1       4.351  -6.734  -0.004  0.00  0.00    +0.379 N 
ATOM     11  C   UNL     1       4.127  -5.757   1.068  0.00  0.00    -0.082 C 
ATOM     12  C   UNL     1       4.294  -4.340   0.513  0.00  0.00    -0.010 C 
ATOM     13  H   UNL     1       4.301  -7.667   0.377  0.00  0.00    -0.086 HD
ATOM     14  H   UNL     1       5.265  -6.587  -0.406  0.00  0.00    -0.086 HD
ENDROOT
BRANCH   5  15
ATOM     15  C   UNL     1       3.777  -2.829  -2.706  0.00  0.00    +0.218 C 
ATOM     16  O   UNL     1       2.866  -2.920  -3.502  0.00  0.00    -0.275 OA
ATOM     17  N   UNL     1       5.053  -2.823  -3.140  0.00  0.00    -0.311 N 
ATOM     18  H   UNL     1       5.782  -2.750  -2.504  0.00  0.00    +0.149 HD
BRANCH  17  19
ATOM     19  C   UNL     1       5.340  -2.925  -4.574  0.00  0.00    +0.139 C 
BRANCH  19  20
ATOM     20  C   UNL     1       6.830  -2.895  -4.791  0.00  0.00    -0.027 A 
ATOM     21  C   UNL     1       7.476  -1.687  -4.979  0.00  0.00    +0.009 A 
ATOM     22  C   UNL     1       8.843  -1.654  -5.178  0.00  0.00    +0.050 A 
ATOM     23  C   UNL     1       9.571  -2.833  -5.192  0.00  0.00    +0.166 A 
ATOM     24  C   UNL     1       8.921  -4.051  -5.003  0.00  0.00    +0.167 A 
ATOM     25  C   UNL     1       7.551  -4.075  -4.798  0.00  0.00    +0.054 A 
ATOM     26  O   UNL     1       9.846  -5.053  -5.059  0.00  0.00    -0.453 OA
ATOM     27  C   UNL     1      11.003  -4.472  -5.689  0.00  0.00    +0.466 C 
ATOM     28  O   UNL     1      10.903  -3.073  -5.366  0.00  0.00    -0.453 OA
ENDBRANCH  19  20
ENDBRANCH  17  19
ENDBRANCH   5  15
BRANCH   1  29
ATOM     29  C   UNL     1       0.596  -0.685   1.225  0.00  0.00    +0.105 C 
BRANCH  29  30
ATOM     30  C   UNL     1      -0.197  -0.344   2.461  0.00  0.00    -0.036 A 
ATOM     31  C   UNL     1      -1.450  -0.895   2.652  0.00  0.00    +0.004 A 
ATOM     32  C   UNL     1      -2.176  -0.582   3.786  0.00  0.00    +0.000 A 
ATOM     33  C   UNL     1      -1.650   0.282   4.728  0.00  0.00    +0.000 A 
ATOM     34  C   UNL     1      -0.397   0.833   4.536  0.00  0.00    +0.000 A 
ATOM     35  C   UNL     1       0.332   0.516   3.405  0.00  0.00    +0.004 A 
ENDBRANCH  29  30
BRANCH  29  37
ATOM     36  C   UNL     1      -0.322   1.270  -0.032  0.00  0.00    +0.005 C 
ATOM     37  C   UNL     1      -0.186  -0.254  -0.018  0.00  0.00    +0.014 C 
ENDBRANCH  29  37
ENDBRANCH   1  29
TORSDOF 6
