REMARK  Name = ZINC09120454
REMARK  9 active torsions:
REMARK  status: ('A' for Active; 'I' for Inactive)
REMARK    1  A    between atoms: C_4  and  N_9
REMARK    2  A    between atoms: C_5  and  C_6
REMARK    3  A    between atoms: C_10  and  C_12
REMARK    4  A    between atoms: C_12  and  O_13
REMARK    5  A    between atoms: O_13  and  C_14
REMARK    6  A    between atoms: C_14  and  C_16
REMARK    7  A    between atoms: C_16  and  N_17
REMARK    8  A    between atoms: C_18  and  C_20
REMARK    9  A    between atoms: C_20  and  C_21
REMARK                            x       y       z     vdW  Elec       q    Type
REMARK                         _______ _______ _______ _____ _____    ______ ____
ROOT
ATOM      1  C   UNL     1      -0.166   1.194   2.384  0.00  0.00    +0.325 C 
ATOM      2  O   UNL     1       0.829   0.510   2.418  0.00  0.00    -0.249 OA
ENDROOT
BRANCH   1   3
ATOM      3  O   UNL     1      -0.692   1.554   1.203  0.00  0.00    -0.454 OA
BRANCH   3   4
ATOM      4  C   UNL     1      -0.013   1.086   0.008  0.00  0.00    +0.328 C 
BRANCH   4   6
ATOM      5  N   UNL     1      -0.288   1.272  -2.443  0.00  0.00    -0.277 N 
ATOM      6  C   UNL     1      -0.742   1.585  -1.213  0.00  0.00    +0.255 C 
ATOM      7  O   UNL     1      -1.736   2.268  -1.088  0.00  0.00    -0.272 OA
ATOM      8  H   UNL     1       0.507   0.726  -2.543  0.00  0.00    +0.155 HD
BRANCH   5  12
ATOM      9  C   UNL     1      -1.528   2.120  -5.878  0.00  0.00    +0.022 A 
ATOM     10  C   UNL     1      -2.567   2.835  -5.410  0.00  0.00    +0.048 A 
ATOM     11  S   UNL     1      -2.385   2.712  -3.642  0.00  0.00    -0.081 S 
ATOM     12  C   UNL     1      -0.959   1.732  -3.566  0.00  0.00    +0.084 A 
ATOM     13  C   UNL     1      -0.646   1.522  -4.904  0.00  0.00    +0.065 A 
BRANCH  13  14
ATOM     14  C   UNL     1       0.519   0.730  -5.307  0.00  0.00    +0.244 C 
ATOM     15  O   UNL     1       1.241   0.236  -4.460  0.00  0.00    -0.270 OA
ATOM     16  N   UNL     1       0.792   0.547  -6.614  0.00  0.00    -0.325 N 
ATOM     17  H   UNL     1       0.217   0.941  -7.289  0.00  0.00    +0.145 HD
ATOM     18  H   UNL     1       1.563   0.023  -6.880  0.00  0.00    +0.145 HD
ENDBRANCH  13  14
ENDBRANCH   5  12
ENDBRANCH   4   6
ENDBRANCH   3   4
ENDBRANCH   1   3
BRANCH   1  19
ATOM     19  C   UNL     1      -0.817   1.643   3.667  0.00  0.00    +0.224 C 
BRANCH  19  20
ATOM     20  N   UNL     1      -0.058   1.123   4.807  0.00  0.00    -0.305 N 
ATOM     21  C   UNL     1      -0.458   1.399   6.064  0.00  0.00    +0.214 C 
ATOM     22  O   UNL     1      -1.445   2.077   6.252  0.00  0.00    -0.276 OA
ATOM     23  H   UNL     1       0.732   0.580   4.657  0.00  0.00    +0.149 HD
BRANCH  21  24
ATOM     24  C   UNL     1       0.323   0.864   7.237  0.00  0.00    +0.102 C 
BRANCH  24  25
ATOM     25  C   UNL     1      -0.338   1.319   8.540  0.00  0.00    -0.020 C 
ATOM     26  C   UNL     1      -0.357   2.848   8.595  0.00  0.00    +0.011 C 
ATOM     27  C   UNL     1      -1.018   3.304   9.897  0.00  0.00    -0.010 C 
ATOM     28  C   UNL     1      -0.226   2.761  11.088  0.00  0.00    +0.007 C 
ATOM     29  C   UNL     1      -0.206   1.232  11.034  0.00  0.00    -0.010 C 
ATOM     30  C   UNL     1       0.454   0.776   9.731  0.00  0.00    +0.011 C 
ATOM     31  C   UNL     1      -1.640   0.701  11.091  0.00  0.00    +0.007 C 
ATOM     32  C   UNL     1      -2.433   1.244   9.900  0.00  0.00    -0.010 C 
ATOM     33  C   UNL     1      -2.452   2.773   9.954  0.00  0.00    +0.007 C 
ATOM     34  C   UNL     1      -1.772   0.789   8.597  0.00  0.00    +0.011 C 
ENDBRANCH  24  25
ENDBRANCH  21  24
ENDBRANCH  19  20
ENDBRANCH   1  19
TORSDOF 9
