REMARK  Name = ZINC08610999
REMARK  9 active torsions:
REMARK  status: ('A' for Active; 'I' for Inactive)
REMARK    1  A    between atoms: C_1  and  C_2
REMARK    2  A    between atoms: C_4  and  C_33
REMARK    3  A    between atoms: C_6  and  N_8
REMARK    4  A    between atoms: C_9  and  C_11
REMARK    5  A    between atoms: C_11  and  N_12
REMARK    6  A    between atoms: C_14  and  C_25
REMARK    7  A    between atoms: C_20  and  C_24
REMARK    8  A    between atoms: C_21  and  C_23
REMARK    9  A    between atoms: C_25  and  C_27
REMARK                            x       y       z     vdW  Elec       q    Type
REMARK                         _______ _______ _______ _____ _____    ______ ____
ROOT
ATOM      1  N   UNL     1       0.365  -1.960   5.981  0.00  0.00    -0.337 N 
ATOM      2  C   UNL     1       1.575  -1.530   6.358  0.00  0.00    +0.102 A 
ATOM      3  C   UNL     1       1.748  -0.636   7.397  0.00  0.00    +0.086 A 
ATOM      4  C   UNL     1       0.561  -0.140   8.113  0.00  0.00    +0.200 A 
ATOM      5  O   UNL     1       0.659   0.649   9.036  0.00  0.00    -0.286 OA
ATOM      6  C   UNL     1      -0.753  -0.640   7.665  0.00  0.00    +0.046 A 
ATOM      7  C   UNL     1      -0.799  -1.545   6.591  0.00  0.00    +0.053 A 
ATOM      8  C   UNL     1      -2.034  -2.020   6.156  0.00  0.00    +0.030 A 
ATOM      9  C   UNL     1      -3.190  -1.597   6.774  0.00  0.00    -0.046 A 
ATOM     10  C   UNL     1      -3.143  -0.699   7.831  0.00  0.00    -0.047 A 
ATOM     11  C   UNL     1      -1.931  -0.225   8.285  0.00  0.00    +0.017 A 
ATOM     12  C   UNL     1      -4.420  -0.250   8.492  0.00  0.00    +0.044 C 
ATOM     13  C   UNL     1      -4.522  -2.117   6.297  0.00  0.00    +0.044 C 
ENDROOT
BRANCH   3  14
ATOM     14  C   UNL     1       3.094  -0.188   7.782  0.00  0.00    +0.198 C 
ATOM     15  O   UNL     1       3.757   0.476   7.009  0.00  0.00    -0.286 OA
BRANCH  14  16
ATOM     16  C   UNL     1       3.642  -0.545   9.111  0.00  0.00    +0.025 A 
ATOM     17  C   UNL     1       2.861  -1.226  10.050  0.00  0.00    +0.031 A 
ATOM     18  C   UNL     1       3.413  -1.540  11.277  0.00  0.00    +0.111 A 
ATOM     19  N   UNL     1       4.655  -1.205  11.567  0.00  0.00    -0.263 NA
ATOM     20  C   UNL     1       5.424  -0.563  10.710  0.00  0.00    +0.111 A 
ATOM     21  C   UNL     1       4.956  -0.216   9.458  0.00  0.00    +0.031 A 
ENDBRANCH  14  16
ENDBRANCH   3  14
BRANCH   1  22
ATOM     22  C   UNL     1       0.273  -2.909   4.869  0.00  0.00    +0.217 C 
BRANCH  22  24
ATOM     23  N   UNL     1       0.049  -2.822   2.407  0.00  0.00    -0.284 N 
ATOM     24  C   UNL     1       0.148  -2.152   3.572  0.00  0.00    +0.237 C 
ATOM     25  O   UNL     1       0.137  -0.939   3.576  0.00  0.00    -0.274 OA
ATOM     26  H   UNL     1      -0.028  -3.789   2.409  0.00  0.00    +0.155 HD
BRANCH  23  32
ATOM     27  C   UNL     1      -1.220  -2.563  -2.336  0.00  0.00    +0.044 C 
ATOM     28  C   UNL     1      -0.551  -1.975  -1.121  0.00  0.00    -0.048 A 
ATOM     29  C   UNL     1       0.072  -0.743  -1.203  0.00  0.00    +0.006 A 
ATOM     30  C   UNL     1       0.686  -0.199  -0.090  0.00  0.00    -0.048 A 
ATOM     31  C   UNL     1       0.680  -0.886   1.109  0.00  0.00    +0.026 A 
ATOM     32  C   UNL     1       0.056  -2.124   1.195  0.00  0.00    +0.034 A 
ATOM     33  C   UNL     1      -0.565  -2.664   0.076  0.00  0.00    +0.026 A 
ATOM     34  C   UNL     1       1.364   1.143  -0.184  0.00  0.00    +0.044 C 
ENDBRANCH  23  32
ENDBRANCH  22  24
ENDBRANCH   1  22
TORSDOF 5
