REMARK  Name = ZINC66932006
REMARK  9 active torsions:
REMARK  status: ('A' for Active; 'I' for Inactive)
REMARK    1  A    between atoms: C_1  and  C_2
REMARK    2  A    between atoms: C_2  and  C_3
REMARK    3  A    between atoms: C_3  and  C_5
REMARK    4  A    between atoms: C_3  and  C_6
REMARK    5  A    between atoms: C_6  and  C_8
REMARK    6  A    between atoms: C_6  and  N_26
REMARK    7  A    between atoms: C_13  and  N_16
REMARK    8  A    between atoms: C_17  and  C_19
REMARK    9  A    between atoms: C_19  and  C_20
REMARK                            x       y       z     vdW  Elec       q    Type
REMARK                         _______ _______ _______ _____ _____    ______ ____
ROOT
ATOM      1  C   UNL     1      -2.953  -2.543  -0.382  0.00  0.00    +0.236 C 
ATOM      2  O   UNL     1      -3.837  -2.852   0.388  0.00  0.00    -0.274 OA
ATOM      3  N   UNL     1      -3.163  -2.611  -1.712  0.00  0.00    -0.300 N 
ATOM      4  C   UNL     1      -2.099  -2.246  -2.657  0.00  0.00    +0.109 C 
ATOM      5  C   UNL     1      -2.643  -1.196  -3.630  0.00  0.00    +0.041 C 
ATOM      6  C   UNL     1      -3.915  -1.729  -4.292  0.00  0.00    +0.076 C 
ATOM      7  C   UNL     1      -4.977  -1.992  -3.221  0.00  0.00    +0.041 C 
ATOM      8  C   UNL     1      -4.458  -3.057  -2.243  0.00  0.00    +0.109 C 
ENDROOT
BRANCH   6   9
ATOM      9  N   UNL     1      -4.420  -0.741  -5.248  0.00  0.00    -0.312 N 
ATOM     10  C   UNL     1      -5.185  -1.135  -6.285  0.00  0.00    +0.214 C 
ATOM     11  O   UNL     1      -5.455  -2.309  -6.427  0.00  0.00    -0.276 OA
ATOM     12  H   UNL     1      -4.204   0.198  -5.134  0.00  0.00    +0.149 HD
BRANCH  10  13
ATOM     13  C   UNL     1      -5.704  -0.118  -7.268  0.00  0.00    +0.099 C 
BRANCH  13  14
ATOM     14  C   UNL     1      -6.538  -0.823  -8.339  0.00  0.00    -0.002 C 
ATOM     15  C   UNL     1      -5.638  -1.753  -9.156  0.00  0.00    +0.004 C 
ATOM     16  C   UNL     1      -6.472  -2.459 -10.227  0.00  0.00    +0.000 C 
ATOM     17  C   UNL     1      -7.102  -1.416 -11.153  0.00  0.00    +0.000 C 
ATOM     18  C   UNL     1      -8.001  -0.486 -10.336  0.00  0.00    +0.000 C 
ATOM     19  C   UNL     1      -7.167   0.220  -9.265  0.00  0.00    +0.004 C 
ENDBRANCH  13  14
ENDBRANCH  10  13
ENDBRANCH   6   9
BRANCH   1  20
ATOM     20  C   UNL     1      -1.619  -2.084   0.148  0.00  0.00    +0.163 C 
BRANCH  20  21
ATOM     21  N   UNL     1      -1.462  -2.535   1.533  0.00  0.00    -0.288 N 
ATOM     22  C   UNL     1      -0.992  -3.772   1.790  0.00  0.00    +0.298 C 
ATOM     23  O   UNL     1      -0.785  -4.546   0.875  0.00  0.00    -0.253 OA
ATOM     24  N   UNL     1      -0.751  -4.151   3.061  0.00  0.00    -0.313 N 
ATOM     25  H   UNL     1      -1.696  -1.944   2.265  0.00  0.00    +0.151 HD
ATOM     26  H   UNL     1      -0.915  -3.533   3.790  0.00  0.00    +0.146 HD
ATOM     27  H   UNL     1      -0.412  -5.040   3.245  0.00  0.00    +0.146 HD
ENDBRANCH  20  21
BRANCH  20  28
ATOM     28  C   UNL     1      -1.548  -0.557   0.097  0.00  0.00    +0.015 C 
ATOM     29  C   UNL     1      -2.653   0.034   0.976  0.00  0.00    +0.010 C 
BRANCH  28  31
ATOM     30  C   UNL     1      -0.066   1.424   0.446  0.00  0.00    +0.004 C 
ATOM     31  C   UNL     1      -0.184  -0.092   0.612  0.00  0.00    +0.002 C 
ENDBRANCH  28  31
ENDBRANCH  20  28
ENDBRANCH   1  20
TORSDOF 7
