REMARK  Name = ZINC33937368
REMARK  13 active torsions:
REMARK  status: ('A' for Active; 'I' for Inactive)
REMARK    1  A    between atoms: C_1  and  C_2
REMARK    2  A    between atoms: C_2  and  C_3
REMARK    3  A    between atoms: C_3  and  C_4
REMARK    4  A    between atoms: C_4  and  C_6
REMARK    5  A    between atoms: C_4  and  N_18
REMARK    6  A    between atoms: N_10  and  C_11
REMARK    7  A    between atoms: C_11  and  C_12
REMARK    8  A    between atoms: N_18  and  C_19
REMARK    9  A    between atoms: N_18  and  C_27
REMARK   10  A    between atoms: C_19  and  C_20
REMARK   11  A    between atoms: C_20  and  C_21
REMARK   12  A    between atoms: C_27  and  C_28
REMARK   13  A    between atoms: C_34  and  C_40
REMARK                            x       y       z     vdW  Elec       q    Type
REMARK                         _______ _______ _______ _____ _____    ______ ____
ROOT
ATOM      1  N   UNL     1       1.602  -2.681  -0.168  0.00  0.00    +0.389 N 
ATOM      2  H   UNL     1       2.502  -2.232  -0.097  0.00  0.00    -0.080 HD
ENDROOT
BRANCH   1   3
ATOM      3  C   UNL     1       0.844  -2.087  -1.278  0.00  0.00    +0.003 C 
BRANCH   3   4
ATOM      4  C   UNL     1      -0.520  -2.725  -1.352  0.00  0.00    +0.138 A 
ATOM      5  N   UNL     1      -0.792  -4.004  -1.263  0.00  0.00    -0.115 NA
ATOM      6  N   UNL     1      -2.067  -4.148  -1.373  0.00  0.00    -0.023 NA
ATOM      7  N   UNL     1      -2.616  -2.994  -1.531  0.00  0.00    -0.044 NA
ATOM      8  N   UNL     1      -1.695  -2.090  -1.518  0.00  0.00    -0.228 N 
BRANCH   8   9
ATOM      9  C   UNL     1      -1.892  -0.645  -1.660  0.00  0.00    +0.178 C 
BRANCH   9  10
ATOM     10  C   UNL     1      -1.825  -0.265  -3.140  0.00  0.00    +0.140 C 
ATOM     11  C   UNL     1      -2.120   1.245  -3.321  0.00  0.00    +0.035 C 
ATOM     12  C   UNL     1      -1.395   1.528  -4.665  0.00  0.00    +0.031 C 
ATOM     13  C   UNL     1      -0.178   0.582  -4.586  0.00  0.00    +0.160 C 
ATOM     14  O   UNL     1      -0.492  -0.452  -3.643  0.00  0.00    -0.375 OA
ENDBRANCH   9  10
ENDBRANCH   8   9
ENDBRANCH   3   4
BRANCH   3  15
ATOM     15  C   UNL     1       1.591  -2.327  -2.591  0.00  0.00    -0.008 C 
BRANCH  15  17
ATOM     16  C   UNL     1       3.730  -1.927  -3.819  0.00  0.00    +0.004 C 
ATOM     17  C   UNL     1       2.939  -1.603  -2.550  0.00  0.00    -0.005 C 
ENDBRANCH  15  17
ENDBRANCH   3  15
ENDBRANCH   1   3
BRANCH   1  18
ATOM     18  C   UNL     1       0.861  -2.494   1.087  0.00  0.00    -0.073 C 
BRANCH  18  19
ATOM     19  C   UNL     1       0.766  -1.000   1.405  0.00  0.00    +0.016 C 
BRANCH  19  20
ATOM     20  C   UNL     1       0.118  -0.814   2.753  0.00  0.00    -0.049 A 
ATOM     21  C   UNL     1      -1.255  -0.691   2.849  0.00  0.00    +0.003 A 
ATOM     22  C   UNL     1      -1.849  -0.520   4.085  0.00  0.00    +0.000 A 
ATOM     23  C   UNL     1      -1.070  -0.473   5.226  0.00  0.00    +0.000 A 
ATOM     24  C   UNL     1       0.303  -0.597   5.130  0.00  0.00    +0.000 A 
ATOM     25  C   UNL     1       0.897  -0.772   3.894  0.00  0.00    +0.003 A 
ENDBRANCH  19  20
ENDBRANCH  18  19
ENDBRANCH   1  18
BRANCH   1  26
ATOM     26  C   UNL     1       1.790  -4.117  -0.416  0.00  0.00    -0.037 C 
BRANCH  26  27
ATOM     27  C   UNL     1       2.698  -4.694   0.639  0.00  0.00    +0.001 A 
ATOM     28  C   UNL     1       2.167  -5.303   1.728  0.00  0.00    +0.017 A 
ATOM     29  C   UNL     1       3.076  -5.854   2.734  0.00  0.00    -0.001 A 
ATOM     30  C   UNL     1       2.588  -6.493   3.879  0.00  0.00    +0.010 A 
ATOM     31  C   UNL     1       3.463  -6.997   4.799  0.00  0.00    +0.001 A 
ATOM     32  C   UNL     1       4.833  -6.880   4.608  0.00  0.00    +0.005 A 
ATOM     33  C   UNL     1       5.337  -6.254   3.489  0.00  0.00    -0.026 A 
ATOM     34  C   UNL     1       4.465  -5.734   2.538  0.00  0.00    +0.052 A 
ATOM     35  N   UNL     1       4.941  -5.104   1.408  0.00  0.00    -0.322 N 
ATOM     36  H   UNL     1       5.898  -5.022   1.274  0.00  0.00    +0.169 HD
ATOM     37  C   UNL     1       4.098  -4.605   0.486  0.00  0.00    +0.251 A 
ATOM     38  O   UNL     1       4.554  -4.059  -0.503  0.00  0.00    -0.268 OA
ATOM     39  C   UNL     1       6.826  -6.133   3.295  0.00  0.00    +0.046 C 
ENDBRANCH  26  27
ENDBRANCH   1  26
TORSDOF 11
