REMARK  Name = ZINC35069377
REMARK  11 active torsions:
REMARK  status: ('A' for Active; 'I' for Inactive)
REMARK    1  A    between atoms: C_1  and  C_2
REMARK    2  A    between atoms: C_2  and  C_3
REMARK    3  A    between atoms: C_3  and  C_5
REMARK    4  A    between atoms: C_3  and  N_23
REMARK    5  A    between atoms: N_15  and  C_16
REMARK    6  A    between atoms: N_23  and  C_24
REMARK    7  A    between atoms: C_24  and  C_25
REMARK    8  A    between atoms: C_25  and  N_26
REMARK    9  A    between atoms: N_26  and  C_27
REMARK   10  A    between atoms: N_26  and  C_28
REMARK   11  A    between atoms: C_29  and  C_31
REMARK                            x       y       z     vdW  Elec       q    Type
REMARK                         _______ _______ _______ _____ _____    ______ ____
ROOT
ATOM      1  C   UNL     1      -1.418  -2.760   0.360  0.00  0.00    +0.138 A 
ATOM      2  N   UNL     1      -1.661  -3.346   1.493  0.00  0.00    -0.231 NA
ATOM      3  C   UNL     1      -1.431  -4.671   1.672  0.00  0.00    +0.078 A 
ATOM      4  C   UNL     1      -1.692  -5.302   2.890  0.00  0.00    +0.028 A 
ATOM      5  C   UNL     1      -1.444  -6.649   3.027  0.00  0.00    +0.002 A 
ATOM      6  C   UNL     1      -0.936  -7.391   1.968  0.00  0.00    +0.001 A 
ATOM      7  C   UNL     1      -0.670  -6.791   0.757  0.00  0.00    +0.015 A 
ATOM      8  C   UNL     1      -0.915  -5.428   0.597  0.00  0.00    +0.065 A 
ATOM      9  C   UNL     1      -0.651  -4.735  -0.672  0.00  0.00    +0.266 A 
ATOM     10  O   UNL     1      -0.207  -5.330  -1.637  0.00  0.00    -0.267 OA
ATOM     11  N   UNL     1      -0.926  -3.411  -0.728  0.00  0.00    -0.263 N 
ENDROOT
BRANCH  11  12
ATOM     12  C   UNL     1      -0.698  -2.704  -1.916  0.00  0.00    +0.051 A 
ATOM     13  C   UNL     1       0.601  -2.446  -2.333  0.00  0.00    +0.027 A 
ATOM     14  C   UNL     1       0.824  -1.749  -3.504  0.00  0.00    +0.017 A 
ATOM     15  C   UNL     1      -0.247  -1.306  -4.261  0.00  0.00    +0.018 A 
ATOM     16  C   UNL     1      -1.542  -1.561  -3.847  0.00  0.00    +0.017 A 
ATOM     17  C   UNL     1      -1.770  -2.264  -2.680  0.00  0.00    +0.027 A 
ATOM     18 BR   UNL     1       0.062  -0.351  -5.863  0.00  0.00    -0.050 Br
ENDBRANCH  11  12
BRANCH   1  19
ATOM     19  C   UNL     1      -1.702  -1.284   0.244  0.00  0.00    +0.142 C 
BRANCH  19  20
ATOM     20  N   UNL     1      -2.537  -0.857   1.369  0.00  0.00    -0.293 N 
ATOM     21  C   UNL     1      -2.070  -0.954   2.630  0.00  0.00    +0.219 C 
ATOM     22  O   UNL     1      -0.926  -1.307   2.828  0.00  0.00    -0.275 OA
BRANCH  21  23
ATOM     23  C   UNL     1      -2.969  -0.624   3.793  0.00  0.00    +0.075 C 
ATOM     24  C   UNL     1      -2.876   0.880   4.124  0.00  0.00    +0.013 C 
ATOM     25  C   UNL     1      -2.959   0.935   5.669  0.00  0.00    +0.001 C 
ATOM     26  C   UNL     1      -2.143  -0.309   6.100  0.00  0.00    +0.001 C 
ATOM     27  C   UNL     1      -2.503  -1.380   5.050  0.00  0.00    +0.013 C 
ENDBRANCH  21  23
BRANCH  20  28
ATOM     28  C   UNL     1      -3.879  -0.324   1.124  0.00  0.00    +0.090 C 
BRANCH  28  29
ATOM     29  C   UNL     1      -4.902  -1.459   1.212  0.00  0.00    -0.060 C 
BRANCH  29  30
ATOM     30  N   UNL     1      -6.248  -0.924   0.966  0.00  0.00    +0.377 N 
ATOM     31  C   UNL     1      -6.334  -0.429  -0.415  0.00  0.00    -0.097 C 
ATOM     32  C   UNL     1      -7.241  -1.988   1.168  0.00  0.00    -0.097 C 
ATOM     33  H   UNL     1      -6.431  -0.167   1.607  0.00  0.00    -0.083 HD
ENDBRANCH  29  30
ENDBRANCH  28  29
ENDBRANCH  20  28
ENDBRANCH  19  20
BRANCH  19  35
ATOM     34  C   UNL     1      -0.667   0.985   0.092  0.00  0.00    +0.006 C 
ATOM     35  C   UNL     1      -0.383  -0.509   0.264  0.00  0.00    +0.027 C 
ENDBRANCH  19  35
ENDBRANCH   1  19
TORSDOF 8
