REMARK  Name = ZINC32961391
REMARK  8 active torsions:
REMARK  status: ('A' for Active; 'I' for Inactive)
REMARK    1  A    between atoms: C_1  and  C_2
REMARK    2  A    between atoms: C_2  and  C_4
REMARK    3  A    between atoms: C_2  and  C_17
REMARK    4  A    between atoms: C_4  and  C_5
REMARK    5  A    between atoms: C_17  and  C_18
REMARK    6  A    between atoms: N_23  and  C_26
REMARK    7  A    between atoms: C_26  and  C_27
REMARK    8  A    between atoms: C_26  and  C_33
REMARK                            x       y       z     vdW  Elec       q    Type
REMARK                         _______ _______ _______ _____ _____    ______ ____
ROOT
ATOM      1  C   UNL     1      -0.030  -0.130   2.478  0.00  0.00    +0.216 C 
ATOM      2  O   UNL     1      -1.069   0.487   2.378  0.00  0.00    -0.276 OA
ATOM      3  N   UNL     1       0.435  -0.473   3.696  0.00  0.00    -0.299 N 
ATOM      4  C   UNL     1       1.697  -1.216   3.840  0.00  0.00    +0.123 C 
ATOM      5  C   UNL     1       2.582  -0.480   4.852  0.00  0.00    +0.104 C 
ATOM      6  N   UNL     1       1.832  -0.281   6.099  0.00  0.00    -0.289 NA
ATOM      7  C   UNL     1       0.658   0.576   5.885  0.00  0.00    +0.104 C 
ATOM      8  C   UNL     1      -0.302  -0.111   4.916  0.00  0.00    +0.123 C 
ENDROOT
BRANCH   1   9
ATOM      9  C   UNL     1       0.742  -0.511   1.242  0.00  0.00    +0.099 C 
BRANCH   9  11
ATOM     10  C   UNL     1      -0.019   1.526   0.010  0.00  0.00    +0.008 C 
ATOM     11  C   UNL     1       0.002  -0.004   0.002  0.00  0.00    +0.002 C 
BRANCH  11  12
ATOM     12  C   UNL     1       0.718  -0.497  -1.257  0.00  0.00    +0.077 C 
BRANCH  12  13
ATOM     13  C   UNL     1      -0.077  -0.103  -2.474  0.00  0.00    +0.122 C 
ATOM     14  N   UNL     1       0.419  -0.471  -3.681  0.00  0.00    -0.300 N 
ATOM     15  C   UNL     1       0.064   0.116  -4.892  0.00  0.00    +0.059 A 
ATOM     16  C   UNL     1       0.870  -0.033  -6.014  0.00  0.00    +0.025 A 
ATOM     17  C   UNL     1       0.502   0.554  -7.209  0.00  0.00    +0.002 A 
ATOM     18  C   UNL     1      -0.667   1.289  -7.296  0.00  0.00    +0.002 A 
ATOM     19  C   UNL     1      -1.473   1.441  -6.181  0.00  0.00    +0.031 A 
ATOM     20  C   UNL     1      -1.108   0.860  -4.988  0.00  0.00    +0.134 A 
ATOM     21  S   UNL     1      -2.109   1.040  -3.547  0.00  0.00    +0.102 S 
ATOM     22  O   UNL     1      -2.339   2.432  -3.378  0.00  0.00    -0.146 OA
ATOM     23  O   UNL     1      -3.166   0.097  -3.660  0.00  0.00    -0.146 OA
ATOM     24  N   UNL     1      -1.166   0.547  -2.276  0.00  0.00    -0.118 NA
ATOM     25  H   UNL     1       1.067  -1.192  -3.702  0.00  0.00    +0.153 HD
ENDBRANCH  12  13
ENDBRANCH  11  12
ENDBRANCH   9  11
ENDBRANCH   1   9
BRANCH   6  26
ATOM     26  C   UNL     1       2.698   0.266   7.152  0.00  0.00    +0.117 C 
BRANCH  26  27
ATOM     27  C   UNL     1       1.896   0.456   8.414  0.00  0.00    -0.026 A 
ATOM     28  C   UNL     1       0.967  -0.495   8.792  0.00  0.00    +0.005 A 
ATOM     29  C   UNL     1       0.231  -0.321   9.949  0.00  0.00    +0.000 A 
ATOM     30  C   UNL     1       0.424   0.804  10.729  0.00  0.00    +0.000 A 
ATOM     31  C   UNL     1       1.354   1.755  10.351  0.00  0.00    +0.000 A 
ATOM     32  C   UNL     1       2.093   1.579   9.196  0.00  0.00    +0.005 A 
ENDBRANCH  26  27
BRANCH  26  33
ATOM     33  C   UNL     1       3.832  -0.691   7.418  0.00  0.00    -0.026 A 
ATOM     34  C   UNL     1       3.599  -2.053   7.427  0.00  0.00    +0.005 A 
ATOM     35  C   UNL     1       4.639  -2.930   7.670  0.00  0.00    +0.000 A 
ATOM     36  C   UNL     1       5.912  -2.445   7.903  0.00  0.00    +0.000 A 
ATOM     37  C   UNL     1       6.145  -1.083   7.893  0.00  0.00    +0.000 A 
ATOM     38  C   UNL     1       5.106  -0.206   7.645  0.00  0.00    +0.005 A 
ENDBRANCH  26  33
ENDBRANCH   6  26
TORSDOF 7
