REMARK  Name = ZINC39226302
REMARK  7 active torsions:
REMARK  status: ('A' for Active; 'I' for Inactive)
REMARK    1  A    between atoms: C_1  and  N_2
REMARK    2  A    between atoms: C_13  and  C_18
REMARK    3  A    between atoms: C_21  and  C_24
REMARK    4  A    between atoms: N_26  and  C_27
REMARK    5  A    between atoms: C_27  and  C_28
REMARK    6  A    between atoms: C_28  and  C_29
REMARK    7  A    between atoms: C_28  and  C_35
REMARK                            x       y       z     vdW  Elec       q    Type
REMARK                         _______ _______ _______ _____ _____    ______ ____
ROOT
ATOM      1  C   UNL     1       7.090  -5.227  -2.906  0.00  0.00    -0.018 A 
ATOM      2  C   UNL     1       7.102  -6.579  -3.250  0.00  0.00    +0.009 A 
ATOM      3  C   UNL     1       7.889  -7.019  -4.289  0.00  0.00    +0.013 A 
ATOM      4  C   UNL     1       8.678  -6.110  -5.001  0.00  0.00    +0.037 A 
ATOM      5  C   UNL     1       8.665  -4.756  -4.656  0.00  0.00    +0.013 A 
ATOM      6  C   UNL     1       7.873  -4.318  -3.619  0.00  0.00    +0.009 A 
ENDROOT
BRANCH   1  19
ATOM      7  C   UNL     1       0.072  -0.885   1.465  0.00  0.00    -0.096 C 
ATOM      8  N   UNL     1       0.625  -2.227   1.690  0.00  0.00    +0.378 N 
ATOM      9  C   UNL     1       1.214  -2.728   0.443  0.00  0.00    -0.075 C 
ATOM     10  C   UNL     1       1.718  -4.158   0.650  0.00  0.00    +0.030 C 
ATOM     11  C   UNL     1       2.775  -4.164   1.757  0.00  0.00    +0.114 C 
ATOM     12  C   UNL     1       2.175  -3.569   3.033  0.00  0.00    +0.030 C 
ATOM     13  C   UNL     1       1.653  -2.162   2.736  0.00  0.00    -0.075 C 
ATOM     14  C   UNL     1       3.217  -5.609   2.029  0.00  0.00    +0.127 C 
ATOM     15  C   UNL     1       3.826  -6.140   0.743  0.00  0.00    +0.170 C 
ATOM     16  O   UNL     1       3.630  -7.276   0.366  0.00  0.00    -0.292 OA
ATOM     17  C   UNL     1       4.668  -5.203  -0.023  0.00  0.00    +0.060 A 
ATOM     18  C   UNL     1       5.462  -5.660  -1.074  0.00  0.00    +0.023 A 
ATOM     19  C   UNL     1       6.242  -4.755  -1.786  0.00  0.00    -0.017 A 
ATOM     20  C   UNL     1       6.225  -3.400  -1.444  0.00  0.00    +0.012 A 
ATOM     21  C   UNL     1       5.443  -2.950  -0.403  0.00  0.00    +0.047 A 
ATOM     22  C   UNL     1       4.659  -3.841   0.321  0.00  0.00    +0.132 A 
ATOM     23  O   UNL     1       3.902  -3.391   1.349  0.00  0.00    -0.485 OA
ATOM     24  H   UNL     1      -0.114  -2.849   1.984  0.00  0.00    -0.082 HD
ENDBRANCH   1  19
BRANCH   4  25
ATOM     25  C   UNL     1       9.524  -6.581  -6.116  0.00  0.00    +0.244 C 
ATOM     26  O   UNL     1       9.534  -7.759  -6.416  0.00  0.00    -0.270 OA
ATOM     27  N   UNL     1      10.284  -5.704  -6.802  0.00  0.00    -0.310 N 
ATOM     28  H   UNL     1      10.275  -4.764  -6.563  0.00  0.00    +0.149 HD
BRANCH  27  29
ATOM     29  C   UNL     1      11.123  -6.171  -7.908  0.00  0.00    +0.117 C 
BRANCH  29  30
ATOM     30  C   UNL     1      11.877  -4.984  -8.512  0.00  0.00    +0.066 C 
BRANCH  30  31
ATOM     31  C   UNL     1      12.831  -5.481  -9.567  0.00  0.00    -0.038 A 
ATOM     32  C   UNL     1      14.165  -5.119  -9.518  0.00  0.00    +0.004 A 
ATOM     33  C   UNL     1      15.040  -5.574 -10.487  0.00  0.00    +0.000 A 
ATOM     34  C   UNL     1      14.582  -6.391 -11.504  0.00  0.00    +0.000 A 
ATOM     35  C   UNL     1      13.249  -6.753 -11.552  0.00  0.00    +0.000 A 
ATOM     36  C   UNL     1      12.374  -6.301 -10.582  0.00  0.00    +0.004 A 
ENDBRANCH  30  31
BRANCH  30  37
ATOM     37  C   UNL     1      10.893  -4.027  -9.134  0.00  0.00    -0.038 A 
ATOM     38  C   UNL     1       9.954  -4.491 -10.036  0.00  0.00    +0.004 A 
ATOM     39  C   UNL     1       9.051  -3.614 -10.607  0.00  0.00    +0.000 A 
ATOM     40  C   UNL     1       9.087  -2.272 -10.275  0.00  0.00    +0.000 A 
ATOM     41  C   UNL     1      10.026  -1.808  -9.372  0.00  0.00    +0.000 A 
ATOM     42  C   UNL     1      10.926  -2.687  -8.799  0.00  0.00    +0.004 A 
ENDBRANCH  30  37
ENDBRANCH  29  30
ENDBRANCH  27  29
ENDBRANCH   4  25
TORSDOF 6
