REMARK  Name = ZINC36848557
REMARK  8 active torsions:
REMARK  status: ('A' for Active; 'I' for Inactive)
REMARK    1  A    between atoms: C_1  and  C_2
REMARK    2  A    between atoms: C_2  and  C_3
REMARK    3  A    between atoms: C_3  and  C_27
REMARK    4  A    between atoms: N_6  and  C_10
REMARK    5  A    between atoms: C_10  and  C_11
REMARK    6  A    between atoms: N_13  and  C_14
REMARK    7  A    between atoms: C_19  and  O_20
REMARK    8  A    between atoms: O_20  and  C_21
REMARK                            x       y       z     vdW  Elec       q    Type
REMARK                         _______ _______ _______ _____ _____    ______ ____
ROOT
ATOM      1  C   UNL     1      -4.212   1.407  -1.631  0.00  0.00    +0.214 C 
ENDROOT
BRANCH   1   5
ATOM      2  C   UNL     1      -0.931  -0.267  -1.150  0.00  0.00    +0.138 C 
ATOM      3  C   UNL     1      -1.950   0.449  -2.015  0.00  0.00    +0.251 C 
ATOM      4  O   UNL     1      -1.849   0.722  -3.192  0.00  0.00    -0.272 OA
ATOM      5  N   UNL     1      -2.993   0.717  -1.204  0.00  0.00    -0.215 N 
ATOM      6  C   UNL     1      -2.776   0.275   0.041  0.00  0.00    +0.310 C 
ATOM      7  O   UNL     1      -3.572   0.401   0.950  0.00  0.00    -0.252 OA
ATOM      8  N   UNL     1      -1.579  -0.323   0.172  0.00  0.00    -0.281 N 
ATOM      9  H   UNL     1      -1.213  -0.716   0.980  0.00  0.00    +0.152 HD
BRANCH   2  10
ATOM     10  C   UNL     1      -0.669  -1.656  -1.672  0.00  0.00    -0.015 A 
ATOM     11  C   UNL     1       0.376  -1.878  -2.549  0.00  0.00    +0.007 A 
ATOM     12  C   UNL     1       0.617  -3.152  -3.029  0.00  0.00    +0.020 A 
ATOM     13  C   UNL     1      -0.188  -4.204  -2.630  0.00  0.00    +0.041 A 
ATOM     14  C   UNL     1      -1.234  -3.981  -1.752  0.00  0.00    +0.020 A 
ATOM     15  C   UNL     1      -1.470  -2.708  -1.269  0.00  0.00    +0.007 A 
ATOM     16 CL   UNL     1       0.113  -5.804  -3.232  0.00  0.00    -0.084 Cl
ENDBRANCH   2  10
BRANCH   2  18
ATOM     17  C   UNL     1       0.088   1.913  -0.479  0.00  0.00    +0.007 C 
ATOM     18  C   UNL     1       0.370   0.534  -1.078  0.00  0.00    +0.037 C 
ENDBRANCH   2  18
ENDBRANCH   1   5
BRANCH   1  19
ATOM     19  C   UNL     1      -5.217   0.396  -2.119  0.00  0.00    +0.235 C 
ATOM     20  O   UNL     1      -4.942  -0.785  -2.111  0.00  0.00    -0.274 OA
ATOM     21  N   UNL     1      -6.421   0.804  -2.565  0.00  0.00    -0.281 N 
ATOM     22  H   UNL     1      -6.650   1.747  -2.551  0.00  0.00    +0.155 HD
BRANCH  21  23
ATOM     23  C   UNL     1      -7.344  -0.133  -3.049  0.00  0.00    +0.076 A 
ATOM     24  C   UNL     1      -7.244  -1.464  -2.674  0.00  0.00    +0.027 A 
ATOM     25  C   UNL     1      -8.155  -2.387  -3.153  0.00  0.00    +0.002 A 
ATOM     26  C   UNL     1      -9.167  -1.986  -4.006  0.00  0.00    +0.004 A 
ATOM     27  C   UNL     1      -9.273  -0.661  -4.384  0.00  0.00    +0.048 A 
ATOM     28  C   UNL     1      -8.367   0.272  -3.904  0.00  0.00    +0.150 A 
BRANCH  28  29
ATOM     29  O   UNL     1      -8.473   1.576  -4.271  0.00  0.00    -0.454 OA
BRANCH  29  30
ATOM     30  C   UNL     1      -9.544   1.942  -5.023  0.00  0.00    +0.129 A 
ATOM     31  C   UNL     1     -10.798   2.054  -4.439  0.00  0.00    +0.046 A 
ATOM     32  C   UNL     1     -11.885   2.426  -5.206  0.00  0.00    +0.004 A 
ATOM     33  C   UNL     1     -11.724   2.688  -6.554  0.00  0.00    +0.000 A 
ATOM     34  C   UNL     1     -10.476   2.578  -7.138  0.00  0.00    +0.004 A 
ATOM     35  C   UNL     1      -9.384   2.212  -6.375  0.00  0.00    +0.046 A 
ENDBRANCH  29  30
ENDBRANCH  28  29
ENDBRANCH  21  23
ENDBRANCH   1  19
TORSDOF 7
