REMARK  Name = ZINC06170947
REMARK  8 active torsions:
REMARK  status: ('A' for Active; 'I' for Inactive)
REMARK    1  A    between atoms: C_1  and  C_2
REMARK    2  A    between atoms: C_2  and  C_3
REMARK    3  A    between atoms: C_2  and  C_4
REMARK    4  A    between atoms: C_4  and  C_5
REMARK    5  A    between atoms: C_5  and  N_6
REMARK    6  A    between atoms: N_14  and  N_15
REMARK    7  A    between atoms: C_16  and  C_18
REMARK    8  A    between atoms: C_20  and  C_28
REMARK                            x       y       z     vdW  Elec       q    Type
REMARK                         _______ _______ _______ _____ _____    ______ ____
ROOT
ATOM      1  N   UNL     1       3.585   0.842   6.343  0.00  0.00    -0.202 N 
ATOM      2  C   UNL     1       4.522   1.160   7.259  0.00  0.00    +0.264 C 
ATOM      3  O   UNL     1       4.821   0.362   8.125  0.00  0.00    -0.268 OA
ATOM      4  H   UNL     1       3.346   1.479   5.652  0.00  0.00    +0.178 HD
ENDROOT
BRANCH   1  13
ATOM      5  N   UNL     1       0.626  -0.587   3.718  0.00  0.00    -0.266 N 
ATOM      6  C   UNL     1       0.434  -1.841   4.286  0.00  0.00    +0.046 A 
ATOM      7  C   UNL     1      -0.412  -2.891   3.945  0.00  0.00    +0.024 A 
ATOM      8  C   UNL     1      -0.410  -4.053   4.689  0.00  0.00    +0.002 A 
ATOM      9  C   UNL     1       0.430  -4.190   5.781  0.00  0.00    +0.001 A 
ATOM     10  C   UNL     1       1.277  -3.159   6.135  0.00  0.00    +0.012 A 
ATOM     11  C   UNL     1       1.282  -1.984   5.392  0.00  0.00    +0.028 A 
ATOM     12  C   UNL     1       2.046  -0.719   5.499  0.00  0.00    +0.153 C 
ATOM     13  N   UNL     1       2.957  -0.409   6.389  0.00  0.00    -0.174 NA
ATOM     14  C   UNL     1       1.562   0.114   4.380  0.00  0.00    +0.271 C 
ATOM     15  O   UNL     1       1.942   1.237   4.107  0.00  0.00    -0.268 OA
BRANCH   5  16
ATOM     16  C   UNL     1      -0.095  -0.095   2.542  0.00  0.00    +0.114 C 
BRANCH  16  17
ATOM     17  C   UNL     1       0.674  -0.476   1.275  0.00  0.00    +0.022 C 
BRANCH  17  19
ATOM     18  C   UNL     1      -0.099   1.568   0.064  0.00  0.00    +0.007 C 
ATOM     19  C   UNL     1      -0.079   0.038   0.047  0.00  0.00    -0.016 C 
ATOM     20  C   UNL     1       0.622  -0.448  -1.223  0.00  0.00    +0.007 C 
ENDBRANCH  17  19
ENDBRANCH  16  17
ENDBRANCH   5  16
ENDBRANCH   1  13
BRANCH   2  21
ATOM     21  C   UNL     1       5.184   2.480   7.210  0.00  0.00    +0.050 A 
ATOM     22  C   UNL     1       4.950   3.366   6.168  0.00  0.00    +0.042 A 
ATOM     23  C   UNL     1       5.602   4.612   6.162  0.00  0.00    +0.079 A 
ATOM     24  N   UNL     1       6.436   4.974   7.119  0.00  0.00    -0.246 NA
ATOM     25  C   UNL     1       6.717   4.184   8.156  0.00  0.00    +0.072 A 
ATOM     26  C   UNL     1       6.108   2.908   8.262  0.00  0.00    +0.013 A 
ATOM     27  C   UNL     1       6.402   2.085   9.354  0.00  0.00    +0.011 A 
ATOM     28  C   UNL     1       7.269   2.521  10.312  0.00  0.00    +0.001 A 
ATOM     29  C   UNL     1       7.865   3.776  10.217  0.00  0.00    +0.002 A 
ATOM     30  C   UNL     1       7.610   4.597   9.162  0.00  0.00    +0.028 A 
BRANCH  23  31
ATOM     31  C   UNL     1       5.346   5.545   5.049  0.00  0.00    +0.038 A 
ATOM     32  C   UNL     1       5.866   6.795   4.832  0.00  0.00    +0.017 A 
ATOM     33  C   UNL     1       5.477   7.488   3.710  0.00  0.00    +0.008 A 
ATOM     34  C   UNL     1       4.591   6.915   2.852  0.00  0.00    +0.046 A 
ATOM     35  S   UNL     1       4.284   5.338   3.628  0.00  0.00    -0.095 S 
ENDBRANCH  23  31
ENDBRANCH   2  21
TORSDOF 6
