REMARK  Name = ZINC19941356
REMARK  9 active torsions:
REMARK  status: ('A' for Active; 'I' for Inactive)
REMARK    1  A    between atoms: C_1  and  C_2
REMARK    2  A    between atoms: C_9  and  C_14
REMARK    3  A    between atoms: C_14  and  C_16
REMARK    4  A    between atoms: C_14  and  N_28
REMARK    5  A    between atoms: N_20  and  C_21
REMARK    6  A    between atoms: C_21  and  C_22
REMARK    7  A    between atoms: N_31  and  C_34
REMARK    8  A    between atoms: C_36  and  C_41
REMARK    9  A    between atoms: C_39  and  C_40
REMARK                            x       y       z     vdW  Elec       q    Type
REMARK                         _______ _______ _______ _____ _____    ______ ____
ROOT
ATOM      1  C   UNL     1       5.213   6.997   0.031  0.00  0.00    +0.162 C 
ENDROOT
BRANCH   1  10
ATOM      2  C   UNL     1       9.418   8.011   6.106  0.00  0.00    +0.044 C 
ATOM      3  C   UNL     1       8.151   8.257   5.329  0.00  0.00    -0.050 A 
ATOM      4  C   UNL     1       7.154   9.055   5.874  0.00  0.00    +0.005 A 
ATOM      5  C   UNL     1       5.987   9.293   5.182  0.00  0.00    +0.026 A 
ATOM      6  C   UNL     1       5.803   8.729   3.923  0.00  0.00    +0.049 A 
ATOM      7  C   UNL     1       6.816   7.920   3.374  0.00  0.00    -0.001 A 
ATOM      8  C   UNL     1       7.992   7.692   4.095  0.00  0.00    +0.013 A 
ATOM      9  C   UNL     1       6.614   7.332   2.049  0.00  0.00    +0.021 A 
ATOM     10  C   UNL     1       5.453   7.588   1.397  0.00  0.00    +0.042 A 
ATOM     11  C   UNL     1       4.471   8.411   1.989  0.00  0.00    +0.254 A 
ATOM     12  O   UNL     1       3.437   8.633   1.383  0.00  0.00    -0.268 OA
ATOM     13  N   UNL     1       4.646   8.952   3.208  0.00  0.00    -0.322 N 
ATOM     14  H   UNL     1       3.849   9.580   3.633  0.00  0.00    +0.169 HD
ENDBRANCH   1  10
BRANCH   1  15
ATOM     15  N   UNL     1       3.952   6.243   0.039  0.00  0.00    -0.286 NA
ATOM     16  C   UNL     1       3.800   5.460  -1.195  0.00  0.00    +0.104 C 
ATOM     17  C   UNL     1       2.442   4.753  -1.183  0.00  0.00    +0.120 C 
ATOM     18  N   UNL     1       2.353   3.888   0.001  0.00  0.00    -0.327 N 
ATOM     19  C   UNL     1       2.506   4.671   1.235  0.00  0.00    +0.120 C 
ATOM     20  C   UNL     1       3.863   5.378   1.223  0.00  0.00    +0.104 C 
BRANCH  18  21
ATOM     21  C   UNL     1       1.155   3.171   0.008  0.00  0.00    +0.033 A 
ATOM     22  C   UNL     1      -0.060   3.845   0.023  0.00  0.00    +0.026 A 
ATOM     23  C   UNL     1      -1.243   3.133   0.031  0.00  0.00    -0.049 A 
ATOM     24  C   UNL     1      -1.220   1.750   0.017  0.00  0.00    +0.004 A 
ATOM     25  C   UNL     1      -0.013   1.076   0.008  0.00  0.00    +0.005 A 
ATOM     26  C   UNL     1       1.175   1.782   0.000  0.00  0.00    -0.029 A 
ATOM     27  C   UNL     1       2.490   1.046  -0.017  0.00  0.00    +0.045 C 
ATOM     28  C   UNL     1      -2.561   3.863   0.047  0.00  0.00    +0.044 C 
ENDBRANCH  18  21
ENDBRANCH   1  15
BRANCH   1  29
ATOM     29  C   UNL     1       5.130   8.105  -0.988  0.00  0.00    +0.173 A 
ATOM     30  N   UNL     1       4.122   8.922  -1.175  0.00  0.00    -0.111 NA
ATOM     31  N   UNL     1       4.434   9.725  -2.132  0.00  0.00    -0.023 NA
ATOM     32  N   UNL     1       5.611   9.436  -2.567  0.00  0.00    -0.044 NA
ATOM     33  N   UNL     1       6.073   8.443  -1.886  0.00  0.00    -0.223 N 
BRANCH  33  34
ATOM     34  C   UNL     1       7.379   7.802  -2.059  0.00  0.00    +0.182 C 
BRANCH  34  35
ATOM     35  C   UNL     1       7.259   6.677  -3.055  0.00  0.00    -0.026 A 
ATOM     36  C   UNL     1       6.955   5.400  -2.622  0.00  0.00    +0.005 A 
ATOM     37  C   UNL     1       6.840   4.370  -3.536  0.00  0.00    +0.000 A 
ATOM     38  C   UNL     1       7.040   4.614  -4.882  0.00  0.00    +0.000 A 
ATOM     39  C   UNL     1       7.349   5.890  -5.314  0.00  0.00    +0.000 A 
ATOM     40  C   UNL     1       7.459   6.921  -4.401  0.00  0.00    +0.005 A 
ENDBRANCH  34  35
ENDBRANCH  33  34
ENDBRANCH   1  29
TORSDOF 6
