REMARK  Name = ZINC12100298
REMARK  12 active torsions:
REMARK  status: ('A' for Active; 'I' for Inactive)
REMARK    1  A    between atoms: C_1  and  C_2
REMARK    2  A    between atoms: C_4  and  C_36
REMARK    3  A    between atoms: N_5  and  C_7
REMARK    4  A    between atoms: C_11  and  C_13
REMARK    5  A    between atoms: N_15  and  C_16
REMARK    6  A    between atoms: C_19  and  C_32
REMARK    7  A    between atoms: C_22  and  C_23
REMARK    8  A    between atoms: C_22  and  N_67
REMARK    9  A    between atoms: C_23  and  C_31
REMARK   10  A    between atoms: C_24  and  C_25
REMARK   11  A    between atoms: C_32  and  O_34
REMARK   12  A    between atoms: O_34  and  C_35
REMARK                            x       y       z     vdW  Elec       q    Type
REMARK                         _______ _______ _______ _____ _____    ______ ____
ROOT
ATOM      1  C   UNL     1      -0.838   0.841   1.638  0.00  0.00    +0.056 C 
ATOM      2  C   UNL     1      -2.287   1.136   1.186  0.00  0.00    +0.016 C 
ATOM      3  C   UNL     1      -2.247   1.073  -0.356  0.00  0.00    +0.045 C 
ATOM      4  C   UNL     1      -0.049   0.625   0.329  0.00  0.00    -0.055 C 
ATOM      5  N   UNL     1      -0.839   1.338  -0.672  0.00  0.00    +0.392 N 
ATOM      6  H   UNL     1      -0.649   2.346  -0.615  0.00  0.00    -0.080 HD
ENDROOT
BRANCH   1   9
ATOM      7  C   UNL     1       0.230  -0.572   3.311  0.00  0.00    +0.244 C 
ATOM      8  O   UNL     1       1.123   0.249   3.393  0.00  0.00    -0.270 OA
ATOM      9  N   UNL     1      -0.797  -0.370   2.463  0.00  0.00    -0.310 N 
ATOM     10  H   UNL     1      -1.509  -1.025   2.398  0.00  0.00    +0.149 HD
BRANCH   7  15
ATOM     11  C   UNL     1       1.366  -3.153   5.799  0.00  0.00    +0.066 A 
ATOM     12  C   UNL     1       0.343  -4.088   5.701  0.00  0.00    +0.028 A 
ATOM     13  C   UNL     1      -0.710  -3.878   4.830  0.00  0.00    +0.003 A 
ATOM     14  C   UNL     1      -0.751  -2.739   4.052  0.00  0.00    +0.013 A 
ATOM     15  C   UNL     1       0.272  -1.794   4.143  0.00  0.00    +0.039 A 
ATOM     16  C   UNL     1       1.337  -2.009   5.018  0.00  0.00    +0.040 A 
BRANCH  11  21
ATOM     17  C   UNL     1       5.944  -3.169   7.710  0.00  0.00    +0.067 C 
ATOM     18  C   UNL     1       4.463  -3.371   7.519  0.00  0.00    +0.061 A 
ATOM     19  C   UNL     1       3.595  -3.986   8.428  0.00  0.00    +0.047 A 
ATOM     20  C   UNL     1       2.352  -3.968   7.895  0.00  0.00    +0.042 A 
ATOM     21  N   UNL     1       2.432  -3.370   6.684  0.00  0.00    -0.237 N 
ATOM     22  N   UNL     1       3.767  -3.002   6.473  0.00  0.00    -0.171 NA
ATOM     23  C   UNL     1       1.102  -4.518   8.533  0.00  0.00    +0.066 C 
ENDBRANCH  11  21
ENDBRANCH   7  15
ENDBRANCH   1   9
BRANCH   3  24
ATOM     24  C   UNL     1      -3.150   2.124  -0.948  0.00  0.00    +0.293 C 
ATOM     25  O   UNL     1      -2.681   3.026  -1.601  0.00  0.00    -0.253 OA
BRANCH  24  26
ATOM     26  O   UNL     1      -4.476   2.058  -0.750  0.00  0.00    -0.469 OA
ATOM     27  C   UNL     1      -5.285   3.104  -1.350  0.00  0.00    +0.280 C 
ENDBRANCH  24  26
ENDBRANCH   3  24
BRANCH   5  28
ATOM     28  C   UNL     1      -0.512   0.854  -2.050  0.00  0.00    -0.046 C 
BRANCH  28  29
ATOM     29  C   UNL     1      -1.065  -0.538  -2.215  0.00  0.00    -0.089 C 
ATOM     30  C   UNL     1      -2.253  -0.718  -2.773  0.00  0.00    +0.005 C 
ATOM     31  C   UNL     1      -0.266  -1.726  -1.744  0.00  0.00    +0.037 C 
BRANCH  30  32
ATOM     32  C   UNL     1      -2.866  -2.063  -2.791  0.00  0.00    -0.025 A 
ATOM     33  C   UNL     1      -3.648  -2.463  -3.875  0.00  0.00    +0.008 A 
ATOM     34  C   UNL     1      -4.213  -3.722  -3.888  0.00  0.00    +0.001 A 
ATOM     35  C   UNL     1      -4.014  -4.583  -2.824  0.00  0.00    +0.000 A 
ATOM     36  C   UNL     1      -3.244  -4.191  -1.743  0.00  0.00    +0.001 A 
ATOM     37  C   UNL     1      -2.670  -2.937  -1.720  0.00  0.00    +0.008 A 
ENDBRANCH  30  32
ENDBRANCH  28  29
ENDBRANCH   5  28
TORSDOF 8
