REMARK  Name = ZINC12370035
REMARK  9 active torsions:
REMARK  status: ('A' for Active; 'I' for Inactive)
REMARK    1  A    between atoms: C_1  and  O_2
REMARK    2  A    between atoms: O_2  and  C_3
REMARK    3  A    between atoms: C_3  and  C_5
REMARK    4  A    between atoms: C_7  and  N_29
REMARK    5  A    between atoms: C_8  and  S_11
REMARK    6  A    between atoms: S_11  and  C_12
REMARK    7  A    between atoms: C_17  and  N_18
REMARK    8  A    between atoms: N_18  and  S_19
REMARK    9  A    between atoms: S_19  and  C_22
REMARK                            x       y       z     vdW  Elec       q    Type
REMARK                         _______ _______ _______ _____ _____    ______ ____
ROOT
ATOM      1  C   UNL     1      -0.308   5.939  -0.009  0.00  0.00    +0.037 A 
ATOM      2  C   UNL     1      -1.648   6.284   0.093  0.00  0.00    +0.017 A 
ATOM      3  C   UNL     1      -2.011   7.610   0.226  0.00  0.00    +0.001 A 
ATOM      4  C   UNL     1      -1.043   8.597   0.257  0.00  0.00    +0.002 A 
ATOM      5  C   UNL     1       0.294   8.263   0.156  0.00  0.00    +0.025 A 
ATOM      6  C   UNL     1       0.669   6.934   0.028  0.00  0.00    +0.062 A 
ENDROOT
BRANCH   6   7
ATOM      7  N   UNL     1       2.023   6.593  -0.069  0.00  0.00    -0.215 N 
ATOM      8  H   UNL     1       2.297   5.852  -0.633  0.00  0.00    +0.174 HD
BRANCH   7   9
ATOM      9  S   UNL     1       3.156   7.453   0.777  0.00  0.00    +0.072 S 
ATOM     10  O   UNL     1       4.399   6.792   0.580  0.00  0.00    -0.150 OA
ATOM     11  O   UNL     1       2.960   8.820   0.446  0.00  0.00    -0.150 OA
BRANCH   9  12
ATOM     12  C   UNL     1       2.765   7.288   2.487  0.00  0.00    +0.109 A 
ATOM     13  C   UNL     1       1.924   8.202   3.095  0.00  0.00    +0.030 A 
ATOM     14  C   UNL     1       1.613   8.070   4.435  0.00  0.00    +0.022 A 
ATOM     15  C   UNL     1       2.151   7.030   5.171  0.00  0.00    +0.041 A 
ATOM     16  C   UNL     1       2.997   6.119   4.564  0.00  0.00    +0.022 A 
ATOM     17  C   UNL     1       3.304   6.248   3.222  0.00  0.00    +0.030 A 
ATOM     18 CL   UNL     1       1.765   6.867   6.856  0.00  0.00    -0.084 Cl
ENDBRANCH   9  12
ENDBRANCH   7   9
ENDBRANCH   6   7
BRANCH   1  19
ATOM     19  S   UNL     1       0.159   4.248  -0.177  0.00  0.00    -0.066 S 
BRANCH  19  23
ATOM     20  C   UNL     1       1.128   4.167  -4.555  0.00  0.00    +0.079 A 
ATOM     21  C   UNL     1       1.372   3.015  -3.789  0.00  0.00    +0.052 A 
ATOM     22  C   UNL     1       1.079   3.045  -2.454  0.00  0.00    +0.159 A 
ATOM     23  C   UNL     1       0.545   4.207  -1.896  0.00  0.00    +0.132 A 
ATOM     24  N   UNL     1       0.329   5.284  -2.641  0.00  0.00    -0.245 NA
ATOM     25  C   UNL     1       0.597   5.297  -3.930  0.00  0.00    +0.127 A 
BRANCH  22  26
ATOM     26  N   UNL     1       1.320   1.854  -1.609  0.00  0.00    +0.059 N 
ATOM     27  O   UNL     1       1.782   0.840  -2.102  0.00  0.00    -0.126 OA
ATOM     28  O   UNL     1       1.062   1.888  -0.419  0.00  0.00    -0.126 OA
ENDBRANCH  22  26
BRANCH  20  29
ATOM     29  C   UNL     1       1.427   4.182  -5.998  0.00  0.00    +0.340 C 
ATOM     30  O   UNL     1       1.889   3.193  -6.533  0.00  0.00    -0.245 OA
BRANCH  29  32
ATOM     31  C   UNL     1       1.508   5.236  -8.139  0.00  0.00    +0.280 C 
ATOM     32  O   UNL     1       1.189   5.292  -6.723  0.00  0.00    -0.464 OA
ENDBRANCH  29  32
ENDBRANCH  20  29
ENDBRANCH  19  23
ENDBRANCH   1  19
TORSDOF 8
