REMARK  Name = ZINC34708033
REMARK  4 active torsions:
REMARK  status: ('A' for Active; 'I' for Inactive)
REMARK    1  A    between atoms: C_1  and  C_2
REMARK    2  A    between atoms: N_8  and  C_9
REMARK    3  A    between atoms: C_9  and  C_10
REMARK    4  A    between atoms: C_25  and  C_28
REMARK                            x       y       z     vdW  Elec       q    Type
REMARK                         _______ _______ _______ _____ _____    ______ ____
ROOT
ATOM      1  C   UNL     1       7.659  -6.408  -0.718  0.00  0.00    -0.012 C 
ATOM      2  C   UNL     1       6.604  -5.447  -1.270  0.00  0.00    -0.054 C 
ATOM      3  C   UNL     1       5.229  -6.123  -1.234  0.00  0.00    +0.092 C 
ATOM      4  N   UNL     1       4.215  -5.140  -1.646  0.00  0.00    -0.304 N 
ATOM      5  C   UNL     1       4.216  -3.826  -0.985  0.00  0.00    +0.089 C 
ATOM      6  C   UNL     1       5.638  -3.258  -1.033  0.00  0.00    -0.059 C 
ATOM      7  N   UNL     1       6.572  -4.230  -0.450  0.00  0.00    +0.386 N 
ATOM      8  C   UNL     1       3.294  -5.440  -2.620  0.00  0.00    +0.206 A 
ATOM      9  N   UNL     1       3.725  -5.843  -3.787  0.00  0.00    -0.215 NA
ATOM     10  C   UNL     1       2.879  -6.159  -4.799  0.00  0.00    +0.078 A 
ATOM     11  C   UNL     1       3.357  -6.588  -6.039  0.00  0.00    +0.028 A 
ATOM     12  C   UNL     1       2.469  -6.900  -7.043  0.00  0.00    +0.002 A 
ATOM     13  C   UNL     1       1.099  -6.793  -6.840  0.00  0.00    +0.001 A 
ATOM     14  C   UNL     1       0.603  -6.371  -5.626  0.00  0.00    +0.014 A 
ATOM     15  C   UNL     1       1.484  -6.051  -4.596  0.00  0.00    +0.045 A 
ATOM     16  C   UNL     1       1.014  -5.598  -3.282  0.00  0.00    +0.173 A 
ATOM     17  N   UNL     1       1.964  -5.311  -2.327  0.00  0.00    -0.246 N 
ATOM     18  C   UNL     1       1.262  -4.925  -1.216  0.00  0.00    +0.171 A 
ATOM     19  N   UNL     1      -0.018  -4.995  -1.522  0.00  0.00    -0.128 NA
ATOM     20  N   UNL     1      -0.162  -5.382  -2.741  0.00  0.00    -0.128 NA
ATOM     21  H   UNL     1       6.272  -4.464   0.485  0.00  0.00    -0.081 HD
ENDROOT
BRANCH  18  22
ATOM     22  C   UNL     1       1.832  -4.509   0.082  0.00  0.00    +0.020 A 
ATOM     23  C   UNL     1       2.744  -5.334   0.743  0.00  0.00    +0.013 A 
ATOM     24  C   UNL     1       3.273  -4.941   1.955  0.00  0.00    +0.021 A 
ATOM     25  C   UNL     1       2.902  -3.730   2.515  0.00  0.00    +0.041 A 
ATOM     26  C   UNL     1       1.997  -2.908   1.864  0.00  0.00    +0.021 A 
ATOM     27  C   UNL     1       1.466  -3.288   0.650  0.00  0.00    +0.013 A 
ATOM     28 CL   UNL     1       3.572  -3.242   4.040  0.00  0.00    -0.084 Cl
ENDBRANCH  18  22
BRANCH   7  29
ATOM     29  C   UNL     1       7.917  -3.643  -0.396  0.00  0.00    -0.042 C 
BRANCH  29  30
ATOM     30  C   UNL     1       7.913  -2.465   0.544  0.00  0.00    -0.057 A 
ATOM     31  C   UNL     1       7.628  -1.196   0.076  0.00  0.00    +0.009 A 
ATOM     32  C   UNL     1       7.633  -0.157   0.948  0.00  0.00    +0.045 A 
ATOM     33  S   UNL     1       8.050  -0.967   2.484  0.00  0.00    -0.105 S 
ATOM     34  C   UNL     1       8.184  -2.635   1.861  0.00  0.00    +0.047 A 
ENDBRANCH  29  30
ENDBRANCH   7  29
TORSDOF 3
