REMARK  Name = ZINC38592680
REMARK  5 active torsions:
REMARK  status: ('A' for Active; 'I' for Inactive)
REMARK    1  A    between atoms: C_1  and  C_2
REMARK    2  A    between atoms: C_2  and  C_3
REMARK    3  A    between atoms: C_2  and  C_4
REMARK    4  A    between atoms: C_2  and  C_5
REMARK    5  A    between atoms: N_17  and  N_18
REMARK                            x       y       z     vdW  Elec       q    Type
REMARK                         _______ _______ _______ _____ _____    ______ ____
ROOT
ATOM      1  C   UNL     1       0.668  -0.625  -1.227  0.00  0.00    -0.004 C 
ATOM      2  C   UNL     1       0.437  -2.131  -1.206  0.00  0.00    +0.008 C 
ATOM      3  C   UNL     1       0.842  -2.740  -2.555  0.00  0.00    +0.033 C 
ATOM      4  C   UNL     1       2.057  -1.948  -3.035  0.00  0.00    -0.042 C 
ATOM      5  C   UNL     1       2.388  -1.780  -4.314  0.00  0.00    +0.069 C 
ATOM      6  C   UNL     1       3.563  -0.927  -4.634  0.00  0.00    +0.089 C 
ATOM      7  N   UNL     1       3.950  -0.696  -5.864  0.00  0.00    -0.323 N 
ATOM      8  C   UNL     1       3.243  -1.260  -6.855  0.00  0.00    +0.200 C 
ATOM      9  N   UNL     1       2.187  -2.031  -6.690  0.00  0.00    -0.144 NA
ATOM     10  C   UNL     1       1.666  -2.360  -5.498  0.00  0.00    +0.273 C 
ATOM     11  O   UNL     1       0.684  -3.074  -5.384  0.00  0.00    -0.268 OA
ATOM     12  N   UNL     1       3.654  -1.016  -8.143  0.00  0.00    -0.255 N 
ATOM     13  S   UNL     1       4.181  -0.407  -3.066  0.00  0.00    -0.099 S 
ATOM     14  C   UNL     1       2.968  -1.287  -2.002  0.00  0.00    +0.080 C 
ATOM     15  C   UNL     1       2.148  -0.268  -1.219  0.00  0.00    +0.023 C 
ATOM     16  H   UNL     1       4.719  -0.136  -6.052  0.00  0.00    +0.169 HD
ATOM     17  H   UNL     1       4.427  -0.454  -8.308  0.00  0.00    +0.169 HD
ENDROOT
BRANCH   1  19
ATOM     18  C   UNL     1       0.293   1.498   0.036  0.00  0.00    +0.011 C 
ATOM     19  C   UNL     1       0.002  -0.004   0.002  0.00  0.00    -0.035 C 
ATOM     20  C   UNL     1       0.556  -0.660   1.268  0.00  0.00    +0.011 C 
ATOM     21  C   UNL     1      -1.510  -0.229  -0.069  0.00  0.00    +0.011 C 
ENDBRANCH   1  19
BRANCH  12  22
ATOM     22  N   UNL     1       2.972  -1.565  -9.193  0.00  0.00    -0.254 NA
ATOM     23  H   UNL     1       3.388  -1.298 -10.073  0.00  0.00    +0.140 HD
ATOM     24  H   UNL     1       2.922  -2.569  -9.106  0.00  0.00    +0.140 HD
ENDBRANCH  12  22
TORSDOF 2
