REMARK  Name = ZINC13077011
REMARK  12 active torsions:
REMARK  status: ('A' for Active; 'I' for Inactive)
REMARK    1  A    between atoms: C_1  and  C_2
REMARK    2  A    between atoms: C_2  and  C_3
REMARK    3  A    between atoms: C_3  and  N_4
REMARK    4  A    between atoms: C_5  and  C_7
REMARK    5  A    between atoms: N_10  and  S_18
REMARK    6  A    between atoms: S_18  and  C_21
REMARK    7  A    between atoms: C_23  and  C_31
REMARK    8  A    between atoms: C_25  and  O_29
REMARK    9  A    between atoms: C_26  and  O_27
REMARK   10  A    between atoms: O_27  and  C_28
REMARK   11  A    between atoms: O_29  and  C_30
REMARK   12  A    between atoms: C_32  and  C_33
REMARK                            x       y       z     vdW  Elec       q    Type
REMARK                         _______ _______ _______ _____ _____    ______ ____
ROOT
ATOM      1  S   UNL     1      -1.107  -1.001   2.447  0.00  0.00    +0.079 S 
ATOM      2  O   UNL     1      -0.355   0.026   3.077  0.00  0.00    -0.150 OA
ATOM      3  O   UNL     1      -1.446  -2.212   3.107  0.00  0.00    -0.150 OA
ENDROOT
BRANCH   1   6
ATOM      4  C   UNL     1       1.944  -1.451   0.095  0.00  0.00    +0.277 C 
ATOM      5  C   UNL     1       0.775  -0.553   0.525  0.00  0.00    +0.186 C 
ATOM      6  N   UNL     1      -0.276  -1.425   1.079  0.00  0.00    -0.195 N 
ATOM      7  C   UNL     1      -0.544  -2.630   0.410  0.00  0.00    +0.093 A 
ATOM      8  C   UNL     1      -1.696  -3.344   0.704  0.00  0.00    +0.028 A 
ATOM      9  C   UNL     1      -1.958  -4.529   0.041  0.00  0.00    +0.002 A 
ATOM     10  C   UNL     1      -1.077  -4.997  -0.916  0.00  0.00    +0.004 A 
ATOM     11  C   UNL     1       0.069  -4.285  -1.216  0.00  0.00    +0.047 A 
ATOM     12  C   UNL     1       0.340  -3.095  -0.558  0.00  0.00    +0.144 A 
ATOM     13  O   UNL     1       1.468  -2.400  -0.863  0.00  0.00    -0.476 OA
BRANCH   4  15
ATOM     14  N   UNL     1       3.686   0.300   0.223  0.00  0.00    -0.312 N 
ATOM     15  C   UNL     1       3.028  -0.608  -0.525  0.00  0.00    +0.255 C 
ATOM     16  O   UNL     1       3.308  -0.746  -1.697  0.00  0.00    -0.272 OA
ATOM     17  H   UNL     1       3.462   0.410   1.161  0.00  0.00    +0.149 HD
BRANCH  14  18
ATOM     18  C   UNL     1       4.740   1.120  -0.380  0.00  0.00    +0.104 C 
BRANCH  18  20
ATOM     19  C   UNL     1       6.422   2.917   0.048  0.00  0.00    +0.005 C 
ATOM     20  C   UNL     1       5.321   2.061   0.677  0.00  0.00    +0.015 C 
ENDBRANCH  18  20
ENDBRANCH  14  18
ENDBRANCH   4  15
ENDBRANCH   1   6
BRANCH   1  21
ATOM     21  C   UNL     1      -2.624  -0.269   1.929  0.00  0.00    +0.154 A 
ATOM     22  C   UNL     1      -2.781   0.134   0.621  0.00  0.00    +0.040 A 
ATOM     23  C   UNL     1      -3.985   0.715   0.208  0.00  0.00    -0.019 A 
ATOM     24  C   UNL     1      -5.027   0.887   1.128  0.00  0.00    +0.057 A 
ATOM     25  C   UNL     1      -4.862   0.476   2.436  0.00  0.00    +0.164 A 
ATOM     26  C   UNL     1      -3.657  -0.098   2.840  0.00  0.00    +0.188 A 
BRANCH  26  27
ATOM     27  O   UNL     1      -3.496  -0.496   4.129  0.00  0.00    -0.490 OA
ATOM     28  C   UNL     1      -3.079   0.498   5.068  0.00  0.00    +0.277 C 
ENDBRANCH  26  27
BRANCH  25  29
ATOM     29  O   UNL     1      -5.873   0.636   3.330  0.00  0.00    -0.491 OA
ATOM     30  C   UNL     1      -7.079   1.230   2.847  0.00  0.00    +0.277 C 
ENDBRANCH  25  29
BRANCH  23  31
ATOM     31  C   UNL     1      -4.155   1.146  -1.187  0.00  0.00    +0.015 C 
ATOM     32  C   UNL     1      -5.319   1.707  -1.583  0.00  0.00    +0.096 C 
BRANCH  32  33
ATOM     33  C   UNL     1      -5.483   2.122  -2.929  0.00  0.00    +0.380 C 
ATOM     34  O   UNL     1      -4.577   1.973  -3.727  0.00  0.00    -0.241 OA
ATOM     35  O   UNL     1      -6.645   2.683  -3.325  0.00  0.00    -0.241 OA
ENDBRANCH  32  33
ENDBRANCH  23  31
ENDBRANCH   1  21
TORSDOF 9
