REMARK  Name = ZINC55850429
REMARK  5 active torsions:
REMARK  status: ('A' for Active; 'I' for Inactive)
REMARK    1  A    between atoms: C_4  and  C_23
REMARK    2  A    between atoms: C_6  and  N_7
REMARK    3  A    between atoms: N_7  and  C_8
REMARK    4  A    between atoms: C_8  and  C_9
REMARK    5  A    between atoms: C_17  and  N_20
REMARK                            x       y       z     vdW  Elec       q    Type
REMARK                         _______ _______ _______ _____ _____    ______ ____
ROOT
ATOM      1  C   UNL     1      -2.478  -0.003   0.027  0.00  0.00    +0.198 C 
ENDROOT
BRANCH   1   2
ATOM      2  C   UNL     1      -3.610  -0.997   0.033  0.00  0.00    +0.237 C 
ATOM      3  O   UNL     1      -3.373  -2.187   0.024  0.00  0.00    -0.274 OA
ATOM      4  N   UNL     1      -4.887  -0.565   0.048  0.00  0.00    -0.269 N 
ATOM      5  C   UNL     1      -5.297   0.842   0.053  0.00  0.00    +0.118 C 
ATOM      6  C   UNL     1      -6.834   0.814   0.070  0.00  0.00    +0.056 C 
ATOM      7  C   UNL     1      -7.188  -0.656   0.074  0.00  0.00    -0.024 A 
ATOM      8  C   UNL     1      -6.014  -1.393   0.054  0.00  0.00    +0.042 A 
ATOM      9  C   UNL     1      -6.088  -2.786   0.048  0.00  0.00    +0.056 A 
ATOM     10  C   UNL     1      -7.314  -3.417   0.056  0.00  0.00    +0.128 A 
ATOM     11  C   UNL     1      -8.479  -2.674   0.071  0.00  0.00    +0.033 A 
ATOM     12  C   UNL     1      -8.414  -1.293   0.087  0.00  0.00    +0.008 A 
BRANCH  10  13
ATOM     13  N   UNL     1      -7.382  -4.896   0.049  0.00  0.00    +0.056 N 
ATOM     14  O   UNL     1      -6.364  -5.548   0.036  0.00  0.00    -0.126 OA
ATOM     15  O   UNL     1      -8.456  -5.452   0.056  0.00  0.00    -0.126 OA
ENDBRANCH  10  13
ENDBRANCH   1   2
BRANCH   1  16
ATOM     16  N   UNL     1      -1.200  -0.719   0.010  0.00  0.00    -0.335 N 
ATOM     17  H   UNL     1      -1.187  -1.689   0.005  0.00  0.00    +0.147 HD
BRANCH  16  23
ATOM     18  C   UNL     1      -0.017   1.386   0.010  0.00  0.00    +0.026 A 
ATOM     19  C   UNL     1       1.167   2.099   0.002  0.00  0.00    +0.041 A 
ATOM     20  C   UNL     1       2.379   1.433  -0.013  0.00  0.00    +0.136 A 
ATOM     21  C   UNL     1       2.408   0.035  -0.021  0.00  0.00    +0.073 A 
ATOM     22  C   UNL     1       1.210  -0.682  -0.013  0.00  0.00    +0.038 A 
ATOM     23  C   UNL     1       0.002  -0.004   0.002  0.00  0.00    +0.028 A 
ATOM     24  F   UNL     1       3.535   2.134  -0.021  0.00  0.00    -0.205 F 
BRANCH  21  25
ATOM     25  C   UNL     1       3.700  -0.680  -0.037  0.00  0.00    +0.244 C 
ATOM     26  O   UNL     1       4.742  -0.053  -0.044  0.00  0.00    -0.270 OA
ATOM     27  N   UNL     1       3.725  -2.027  -0.045  0.00  0.00    -0.325 N 
ATOM     28  H   UNL     1       2.894  -2.527  -0.039  0.00  0.00    +0.145 HD
ATOM     29  H   UNL     1       4.574  -2.497  -0.056  0.00  0.00    +0.145 HD
ENDBRANCH  21  25
ENDBRANCH  16  23
ENDBRANCH   1  16
TORSDOF 5
