REMARK  Name = ZINC12636636
REMARK  6 active torsions:
REMARK  status: ('A' for Active; 'I' for Inactive)
REMARK    1  A    between atoms: C_1  and  C_2
REMARK    2  A    between atoms: C_8  and  C_10
REMARK    3  A    between atoms: C_10  and  S_11
REMARK    4  A    between atoms: S_11  and  C_12
REMARK    5  A    between atoms: C_19  and  C_21
REMARK    6  A    between atoms: C_32  and  C_36
REMARK                            x       y       z     vdW  Elec       q    Type
REMARK                         _______ _______ _______ _____ _____    ______ ____
ROOT
ATOM      1  C   UNL     1       0.002  -0.004   0.002  0.00  0.00    +0.109 A 
ATOM      2  C   UNL     1       1.255  -0.679  -0.013  0.00  0.00    +0.043 A 
ATOM      3  C   UNL     1       1.520  -2.119  -0.022  0.00  0.00    -0.025 A 
ATOM      4  C   UNL     1       2.813  -2.503  -0.037  0.00  0.00    -0.004 A 
ATOM      5  S   UNL     1       3.743  -0.994  -0.039  0.00  0.00    -0.073 S 
ATOM      6  C   UNL     1       2.391   0.154  -0.020  0.00  0.00    +0.113 A 
ATOM      7  N   UNL     1       2.282   1.469  -0.012  0.00  0.00    -0.224 NA
ATOM      8  C   UNL     1       1.093   2.038   0.003  0.00  0.00    +0.138 A 
ATOM      9  N   UNL     1      -0.016   1.320   0.009  0.00  0.00    -0.225 NA
ATOM     10  C   UNL     1       3.343  -3.904  -0.049  0.00  0.00    +0.046 C 
ATOM     11  C   UNL     1       2.194  -4.854  -0.415  0.00  0.00    -0.009 C 
ATOM     12  C   UNL     1       0.972  -4.498   0.436  0.00  0.00    +0.008 C 
ATOM     13  C   UNL     1       0.399  -3.154  -0.015  0.00  0.00    +0.037 C 
ATOM     14  C   UNL     1       2.613  -6.299  -0.133  0.00  0.00    +0.008 C 
ENDROOT
BRANCH   8  15
ATOM     15  C   UNL     1       0.996   3.542   0.012  0.00  0.00    +0.031 C 
ATOM     16  C   UNL     1       1.695   4.091   1.257  0.00  0.00    +0.018 C 
ATOM     17  C   UNL     1       1.596   5.617   1.266  0.00  0.00    -0.010 C 
ATOM     18  C   UNL     1       0.124   6.034   1.283  0.00  0.00    +0.007 C 
ATOM     19  C   UNL     1      -0.575   5.485   0.037  0.00  0.00    -0.010 C 
ATOM     20  C   UNL     1      -0.476   3.958   0.028  0.00  0.00    +0.018 C 
ATOM     21  C   UNL     1       0.100   6.047  -1.215  0.00  0.00    +0.007 C 
ATOM     22  C   UNL     1       1.572   5.631  -1.232  0.00  0.00    -0.010 C 
ATOM     23  C   UNL     1       2.271   6.180   0.014  0.00  0.00    +0.007 C 
ATOM     24  C   UNL     1       1.671   4.104  -1.241  0.00  0.00    +0.018 C 
ENDBRANCH   8  15
BRANCH   1  25
ATOM     25  S   UNL     1      -1.504  -0.918   0.012  0.00  0.00    -0.096 S 
BRANCH  25  26
ATOM     26  C   UNL     1      -2.697   0.444   0.031  0.00  0.00    +0.172 C 
BRANCH  26  34
ATOM     27  C   UNL     1     -10.505  -0.551   0.102  0.00  0.00    +0.075 C 
ATOM     28  C   UNL     1      -9.004  -0.425   0.087  0.00  0.00    +0.101 A 
ATOM     29  N   UNL     1      -8.076  -1.362   0.074  0.00  0.00    -0.145 NA
ATOM     30  N   UNL     1      -6.852  -1.055   0.064  0.00  0.00    -0.126 NA
ATOM     31  C   UNL     1      -6.447   0.203   0.066  0.00  0.00    +0.188 A 
ATOM     32  S   UNL     1      -7.973   1.037   0.092  0.00  0.00    -0.036 S 
ATOM     33  N   UNL     1      -5.155   0.719   0.056  0.00  0.00    -0.263 N 
ATOM     34  C   UNL     1      -4.097  -0.115   0.041  0.00  0.00    +0.229 C 
ATOM     35  O   UNL     1      -4.271  -1.315   0.037  0.00  0.00    -0.275 OA
ATOM     36  H   UNL     1      -5.016   1.679   0.060  0.00  0.00    +0.157 HD
ENDBRANCH  26  34
ENDBRANCH  25  26
ENDBRANCH   1  25
TORSDOF 4
