REMARK  Name = ZINC39563714
REMARK  8 active torsions:
REMARK  status: ('A' for Active; 'I' for Inactive)
REMARK    1  A    between atoms: C_1  and  C_2
REMARK    2  A    between atoms: C_4  and  C_34
REMARK    3  A    between atoms: C_5  and  S_9
REMARK    4  A    between atoms: C_6  and  C_8
REMARK    5  A    between atoms: S_9  and  N_12
REMARK    6  A    between atoms: C_15  and  C_18
REMARK    7  A    between atoms: N_24  and  C_27
REMARK    8  A    between atoms: C_27  and  C_28
REMARK                            x       y       z     vdW  Elec       q    Type
REMARK                         _______ _______ _______ _____ _____    ______ ____
ROOT
ATOM      1  N   UNL     1      -1.638  -2.041  -0.797  0.00  0.00    -0.177 NA
ATOM      2  C   UNL     1      -0.546  -2.655  -1.564  0.00  0.00    +0.110 C 
ATOM      3  C   UNL     1      -0.452  -4.137  -1.190  0.00  0.00    +0.030 C 
ATOM      4  C   UNL     1      -0.304  -4.268   0.327  0.00  0.00    +0.078 C 
ATOM      5  C   UNL     1      -1.536  -3.674   1.014  0.00  0.00    +0.030 C 
ATOM      6  C   UNL     1      -1.639  -2.181   0.666  0.00  0.00    +0.110 C 
ENDROOT
BRANCH   4   7
ATOM      7  C   UNL     1      -0.177  -5.724   0.696  0.00  0.00    +0.219 C 
ATOM      8  O   UNL     1      -0.500  -6.581  -0.099  0.00  0.00    -0.275 OA
ATOM      9  N   UNL     1       0.295  -6.073   1.909  0.00  0.00    -0.303 N 
ATOM     10  C   UNL     1       0.568  -5.012   2.899  0.00  0.00    +0.106 C 
ATOM     11  C   UNL     1       0.101  -5.433   4.304  0.00  0.00    +0.000 C 
ATOM     12  C   UNL     1      -1.219  -6.165   4.198  0.00  0.00    -0.077 C 
ATOM     13  N   UNL     1      -0.968  -7.602   4.113  0.00  0.00    +0.381 N 
ATOM     14  C   UNL     1      -0.763  -8.095   2.805  0.00  0.00    -0.060 C 
ATOM     15  C   UNL     1       0.511  -7.476   2.196  0.00  0.00    +0.089 C 
ATOM     16  H   UNL     1      -0.150  -7.816   4.665  0.00  0.00    -0.082 HD
BRANCH  13  17
ATOM     17  C   UNL     1      -2.114  -8.308   4.700  0.00  0.00    -0.075 C 
BRANCH  17  18
ATOM     18  C   UNL     1      -2.163  -8.038   6.205  0.00  0.00    -0.028 C 
ATOM     19  C   UNL     1      -0.938  -8.663   6.876  0.00  0.00    +0.002 C 
ATOM     20  C   UNL     1      -0.987  -8.393   8.381  0.00  0.00    +0.000 C 
ATOM     21  C   UNL     1      -2.258  -9.008   8.968  0.00  0.00    +0.000 C 
ATOM     22  C   UNL     1      -3.484  -8.383   8.298  0.00  0.00    +0.000 C 
ATOM     23  C   UNL     1      -3.435  -8.653   6.793  0.00  0.00    +0.002 C 
ENDBRANCH  17  18
ENDBRANCH  13  17
ENDBRANCH   4   7
BRANCH   1  24
ATOM     24  S   UNL     1      -2.842  -1.203  -1.565  0.00  0.00    +0.061 S 
ATOM     25  O   UNL     1      -3.969  -1.225  -0.699  0.00  0.00    -0.153 OA
ATOM     26  O   UNL     1      -2.895  -1.697  -2.896  0.00  0.00    -0.153 OA
BRANCH  24  31
ATOM     27  C   UNL     1      -1.057   4.549  -1.927  0.00  0.00    +0.044 C 
ATOM     28  C   UNL     1      -1.503   3.112  -1.837  0.00  0.00    -0.050 A 
ATOM     29  C   UNL     1      -2.205   2.675  -0.729  0.00  0.00    +0.008 A 
ATOM     30  C   UNL     1      -2.615   1.357  -0.646  0.00  0.00    -0.024 A 
ATOM     31  C   UNL     1      -2.322   0.477  -1.671  0.00  0.00    +0.111 A 
ATOM     32  C   UNL     1      -1.620   0.914  -2.779  0.00  0.00    -0.024 A 
ATOM     33  C   UNL     1      -1.215   2.233  -2.864  0.00  0.00    +0.008 A 
ATOM     34  C   UNL     1      -1.301  -0.046  -3.896  0.00  0.00    +0.046 C 
ATOM     35  C   UNL     1      -3.379   0.880   0.561  0.00  0.00    +0.046 C 
ENDBRANCH  24  31
ENDBRANCH   1  24
TORSDOF 5
