REMARK  Name = ZINC03670437
REMARK  10 active torsions:
REMARK  status: ('A' for Active; 'I' for Inactive)
REMARK    1  A    between atoms: C_1  and  C_2
REMARK    2  A    between atoms: C_2  and  C_3
REMARK    3  A    between atoms: C_6  and  N_9
REMARK    4  A    between atoms: C_19  and  C_20
REMARK    5  A    between atoms: C_19  and  O_28
REMARK    6  A    between atoms: N_22  and  C_23
REMARK    7  A    between atoms: C_23  and  C_24
REMARK    8  A    between atoms: C_24  and  N_25
REMARK    9  A    between atoms: N_25  and  C_26
REMARK   10  A    between atoms: N_25  and  C_27
REMARK                            x       y       z     vdW  Elec       q    Type
REMARK                         _______ _______ _______ _____ _____    ______ ____
ROOT
ATOM      1  N   UNL     1       2.746  -1.885   4.598  0.00  0.00    -0.214 N 
ATOM      2  C   UNL     1       4.057  -2.179   4.535  0.00  0.00    +0.314 C 
ATOM      3  O   UNL     1       4.634  -2.032   3.475  0.00  0.00    -0.252 OA
ATOM      4  N   UNL     1       4.756  -2.627   5.586  0.00  0.00    -0.269 N 
ATOM      5  C   UNL     1       4.189  -2.830   6.845  0.00  0.00    +0.043 A 
ATOM      6  C   UNL     1       4.958  -3.296   7.902  0.00  0.00    +0.025 A 
ATOM      7  C   UNL     1       4.379  -3.491   9.141  0.00  0.00    +0.017 A 
ATOM      8  C   UNL     1       3.035  -3.224   9.333  0.00  0.00    +0.018 A 
ATOM      9  C   UNL     1       2.263  -2.758   8.281  0.00  0.00    +0.025 A 
ATOM     10  C   UNL     1       2.839  -2.563   7.047  0.00  0.00    +0.034 A 
ATOM     11  C   UNL     1       2.033  -2.051   5.876  0.00  0.00    +0.247 C 
ATOM     12 BR   UNL     1       2.251  -3.495  11.033  0.00  0.00    -0.050 Br
ATOM     13  H   UNL     1       5.699  -2.819   5.466  0.00  0.00    +0.156 HD
ENDROOT
BRANCH   1  17
ATOM     14  C   UNL     1       0.732  -0.502   1.223  0.00  0.00    -0.048 A 
ATOM     15  C   UNL     1       1.238   0.399   2.142  0.00  0.00    +0.005 A 
ATOM     16  C   UNL     1       1.906  -0.056   3.261  0.00  0.00    +0.024 A 
ATOM     17  C   UNL     1       2.069  -1.420   3.464  0.00  0.00    +0.041 A 
ATOM     18  C   UNL     1       1.559  -2.322   2.540  0.00  0.00    +0.024 A 
ATOM     19  C   UNL     1       0.888  -1.861   1.425  0.00  0.00    +0.005 A 
BRANCH  14  21
ATOM     20  C   UNL     1      -1.487   0.134   0.316  0.00  0.00    +0.009 C 
ATOM     21  C   UNL     1       0.004  -0.002   0.002  0.00  0.00    +0.032 C 
ENDBRANCH  14  21
ENDBRANCH   1  17
BRANCH  11  22
ATOM     22  C   UNL     1       0.891  -3.009   5.650  0.00  0.00    +0.269 C 
ATOM     23  O   UNL     1      -0.250  -2.650   5.851  0.00  0.00    -0.270 OA
ATOM     24  N   UNL     1       1.138  -4.263   5.223  0.00  0.00    -0.313 N 
ATOM     25  H   UNL     1       2.050  -4.550   5.062  0.00  0.00    +0.149 HD
BRANCH  24  26
ATOM     26  C   UNL     1       0.028  -5.194   5.004  0.00  0.00    +0.086 C 
BRANCH  26  27
ATOM     27  C   UNL     1       0.578  -6.539   4.526  0.00  0.00    -0.061 C 
BRANCH  27  28
ATOM     28  N   UNL     1      -0.535  -7.472   4.305  0.00  0.00    +0.377 N 
ATOM     29  C   UNL     1      -1.375  -6.982   3.204  0.00  0.00    -0.097 C 
ATOM     30  C   UNL     1      -0.003  -8.797   3.962  0.00  0.00    -0.097 C 
ATOM     31  H   UNL     1      -1.089  -7.540   5.146  0.00  0.00    -0.083 HD
ENDBRANCH  27  28
ENDBRANCH  26  27
ENDBRANCH  24  26
ENDBRANCH  11  22
BRANCH  11  32
ATOM     32  O   UNL     1       1.476  -0.786   6.238  0.00  0.00    -0.360 OA
ATOM     33  H   UNL     1       0.985  -0.796   7.071  0.00  0.00    +0.213 HD
ENDBRANCH  11  32
TORSDOF 7
