REMARK  Name = ZINC64131227
REMARK  6 active torsions:
REMARK  status: ('A' for Active; 'I' for Inactive)
REMARK    1  A    between atoms: C_1  and  C_2
REMARK    2  A    between atoms: C_3  and  C_18
REMARK    3  A    between atoms: C_5  and  C_8
REMARK    4  A    between atoms: C_11  and  C_14
REMARK    5  A    between atoms: N_20  and  C_21
REMARK    6  A    between atoms: C_25  and  C_27
REMARK                            x       y       z     vdW  Elec       q    Type
REMARK                         _______ _______ _______ _____ _____    ______ ____
ROOT
ATOM      1  C   UNL     1      -0.081   1.468   0.686  0.00  0.00    +0.061 C 
ATOM      2  C   UNL     1      -0.098  -0.036   0.782  0.00  0.00    +0.020 C 
ATOM      3  C   UNL     1      -1.260  -0.691   0.565  0.00  0.00    +0.089 C 
ATOM      4  S   UNL     1      -0.815  -2.408   0.779  0.00  0.00    -0.092 S 
ATOM      5  C   UNL     1       0.968  -2.155   1.162  0.00  0.00    +0.164 C 
ATOM      6  N   UNL     1       1.050  -0.682   1.077  0.00  0.00    -0.331 N 
ATOM      7  H   UNL     1       1.881  -0.205   1.227  0.00  0.00    +0.147 HD
ENDROOT
BRANCH   3   8
ATOM      8  C   UNL     1      -2.529  -0.146   0.244  0.00  0.00    +0.259 C 
ATOM      9  O   UNL     1      -2.696   1.060   0.267  0.00  0.00    -0.269 OA
ATOM     10  N   UNL     1      -3.549  -0.962  -0.086  0.00  0.00    -0.256 N 
ATOM     11  C   UNL     1      -3.352  -2.414  -0.095  0.00  0.00    +0.140 C 
ATOM     12  C   UNL     1      -4.772  -0.433  -0.415  0.00  0.00    +0.132 C 
ATOM     13  N   UNL     1      -5.096   0.829  -0.457  0.00  0.00    -0.138 NA
ATOM     14  N   UNL     1      -6.423   1.021  -0.829  0.00  0.00    -0.152 NA
ATOM     15  C   UNL     1      -7.042  -0.104  -1.051  0.00  0.00    +0.078 C 
ATOM     16  C   UNL     1      -6.021  -1.198  -0.808  0.00  0.00    +0.131 C 
BRANCH  15  17
ATOM     17  C   UNL     1      -8.445  -0.278  -1.459  0.00  0.00    -0.002 A 
ATOM     18  C   UNL     1      -8.967  -1.560  -1.653  0.00  0.00    +0.010 A 
ATOM     19  C   UNL     1     -10.283  -1.715  -2.035  0.00  0.00    +0.001 A 
ATOM     20  C   UNL     1     -11.087  -0.604  -2.226  0.00  0.00    +0.000 A 
ATOM     21  C   UNL     1     -10.578   0.669  -2.036  0.00  0.00    +0.001 A 
ATOM     22  C   UNL     1      -9.265   0.839  -1.649  0.00  0.00    +0.010 A 
ENDBRANCH  15  17
ENDBRANCH   3   8
BRANCH   5  23
ATOM     23  C   UNL     1       1.304  -2.647   2.546  0.00  0.00    -0.017 A 
ATOM     24  C   UNL     1       1.175  -1.801   3.631  0.00  0.00    +0.007 A 
ATOM     25  C   UNL     1       1.483  -2.252   4.900  0.00  0.00    +0.013 A 
ATOM     26  C   UNL     1       1.921  -3.551   5.085  0.00  0.00    +0.055 A 
ATOM     27  C   UNL     1       2.049  -4.397   4.000  0.00  0.00    +0.013 A 
ATOM     28  C   UNL     1       1.736  -3.947   2.731  0.00  0.00    +0.007 A 
BRANCH  26  29
ATOM     29  C   UNL     1       2.258  -4.043   6.469  0.00  0.00    +0.417 C 
ATOM     30  F   UNL     1       1.115  -4.592   7.060  0.00  0.00    -0.166 F 
ATOM     31  F   UNL     1       3.256  -5.020   6.386  0.00  0.00    -0.166 F 
ATOM     32  F   UNL     1       2.717  -2.973   7.245  0.00  0.00    -0.166 F 
ENDBRANCH  26  29
ENDBRANCH   5  23
TORSDOF 4
