REMARK  Name = ZINC43553877
REMARK  16 active torsions:
REMARK  status: ('A' for Active; 'I' for Inactive)
REMARK    1  A    between atoms: C_1  and  C_2
REMARK    2  A    between atoms: C_2  and  C_3
REMARK    3  A    between atoms: C_3  and  N_4
REMARK    4  A    between atoms: C_5  and  O_7
REMARK    5  A    between atoms: O_7  and  C_8
REMARK    6  A    between atoms: C_12  and  C_39
REMARK    7  A    between atoms: C_15  and  C_16
REMARK    8  A    between atoms: C_15  and  C_17
REMARK    9  A    between atoms: C_17  and  O_18
REMARK   10  A    between atoms: C_21  and  O_38
REMARK   11  A    between atoms: C_23  and  C_25
REMARK   12  A    between atoms: C_25  and  C_26
REMARK   13  A    between atoms: N_28  and  C_29
REMARK   14  A    between atoms: C_29  and  C_30
REMARK   15  A    between atoms: C_35  and  O_36
REMARK   16  A    between atoms: O_36  and  C_37
REMARK                            x       y       z     vdW  Elec       q    Type
REMARK                         _______ _______ _______ _____ _____    ______ ____
ROOT
ATOM      1  C   UNL     1       2.052  -4.833   3.318  0.00  0.00    +0.186 C 
ATOM      2  C   UNL     1       3.523  -5.033   2.986  0.00  0.00    +0.046 C 
ATOM      3  C   UNL     1       3.674  -6.029   1.833  0.00  0.00    +0.011 C 
ATOM      4  C   UNL     1       3.090  -7.379   2.236  0.00  0.00    -0.023 C 
ATOM      5  C   UNL     1       1.611  -7.225   2.581  0.00  0.00    +0.007 C 
ATOM      6  C   UNL     1       1.333  -6.143   3.615  0.00  0.00    +0.031 C 
ATOM      7  C   UNL     1       1.676  -6.610   5.037  0.00  0.00    +0.017 C 
ATOM      8  C   UNL     1       0.809  -6.937   1.307  0.00  0.00    +0.007 C 
ATOM      9  C   UNL     1       0.997  -8.055   0.278  0.00  0.00    +0.032 C 
ATOM     10  C   UNL     1       2.471  -8.140  -0.112  0.00  0.00    +0.119 C 
ATOM     11  C   UNL     1       3.293  -8.422   1.135  0.00  0.00    +0.032 C 
ATOM     12  C   UNL     1       3.884  -7.921   3.441  0.00  0.00    +0.012 C 
ENDROOT
BRANCH  10  13
ATOM     13  O   UNL     1       2.889  -6.939  -0.753  0.00  0.00    -0.391 OA
ATOM     14  H   UNL     1       2.401  -6.735  -1.563  0.00  0.00    +0.210 HD
ENDBRANCH  10  13
BRANCH   1  15
ATOM     15  O   UNL     1       1.399  -4.150   2.243  0.00  0.00    -0.446 OA
BRANCH  15  17
ATOM     16  N   UNL     1       0.823  -2.100   1.289  0.00  0.00    -0.281 N 
ATOM     17  C   UNL     1       1.420  -2.804   2.272  0.00  0.00    +0.401 C 
ATOM     18  O   UNL     1       1.976  -2.224   3.183  0.00  0.00    -0.226 OA
ATOM     19  H   UNL     1       0.379  -2.563   0.562  0.00  0.00    +0.152 HD
BRANCH  16  20
ATOM     20  C   UNL     1       0.845  -0.636   1.321  0.00  0.00    +0.107 C 
BRANCH  20  22
ATOM     21  C   UNL     1       0.126   1.441   0.132  0.00  0.00    +0.005 C 
ATOM     22  C   UNL     1       0.103  -0.089   0.099  0.00  0.00    +0.015 C 
ENDBRANCH  20  22
ENDBRANCH  16  20
ENDBRANCH  15  17
ENDBRANCH   1  15
BRANCH   6  23
ATOM     23  C   UNL     1      -0.181  -5.829   3.646  0.00  0.00    +0.166 C 
BRANCH  23  24
ATOM     24  O   UNL     1      -0.447  -4.864   4.665  0.00  0.00    -0.394 OA
ATOM     25  H   UNL     1      -1.380  -4.620   4.742  0.00  0.00    +0.209 HD
ENDBRANCH  23  24
ENDBRANCH   6  23
BRANCH  11  26
ATOM     26  C   UNL     1       4.774  -8.543   0.775  0.00  0.00    +0.102 C 
BRANCH  26  27
ATOM     27  C   UNL     1       4.960  -9.659  -0.220  0.00  0.00    +0.214 C 
ATOM     28  O   UNL     1       4.001 -10.295  -0.604  0.00  0.00    -0.276 OA
ATOM     29  N   UNL     1       6.191  -9.950  -0.684  0.00  0.00    -0.311 N 
ATOM     30  H   UNL     1       6.958  -9.441  -0.377  0.00  0.00    +0.149 HD
BRANCH  29  31
ATOM     31  C   UNL     1       6.372 -11.035  -1.652  0.00  0.00    +0.143 C 
BRANCH  31  32
ATOM     32  C   UNL     1       7.832 -11.154  -2.006  0.00  0.00    +0.011 A 
ATOM     33  C   UNL     1       8.306 -10.598  -3.179  0.00  0.00    +0.009 A 
ATOM     34  C   UNL     1       9.645 -10.708  -3.505  0.00  0.00    +0.001 A 
ATOM     35  C   UNL     1      10.513 -11.373  -2.659  0.00  0.00    +0.004 A 
ATOM     36  C   UNL     1      10.043 -11.931  -1.485  0.00  0.00    +0.046 A 
ATOM     37  C   UNL     1       8.701 -11.818  -1.153  0.00  0.00    +0.125 A 
BRANCH  37  38
ATOM     38  O   UNL     1       8.238 -12.360   0.004  0.00  0.00    -0.495 OA
ATOM     39  C   UNL     1       9.190 -13.029   0.833  0.00  0.00    +0.277 C 
ENDBRANCH  37  38
ENDBRANCH  31  32
ENDBRANCH  29  31
ENDBRANCH  26  27
ENDBRANCH  11  26
TORSDOF 12
