REMARK  Name = ZINC39975737
REMARK  5 active torsions:
REMARK  status: ('A' for Active; 'I' for Inactive)
REMARK    1  A    between atoms: C_1  and  C_2
REMARK    2  A    between atoms: C_2  and  C_3
REMARK    3  A    between atoms: C_5  and  C_17
REMARK    4  A    between atoms: C_7  and  C_15
REMARK    5  A    between atoms: C_8  and  N_14
REMARK                            x       y       z     vdW  Elec       q    Type
REMARK                         _______ _______ _______ _____ _____    ______ ____
ROOT
ATOM      1  C   UNL     1       0.834  -0.503   1.154  0.00  0.00    +0.068 C 
ATOM      2  C   UNL     1       0.352  -0.946   2.290  0.00  0.00    +0.026 C 
ATOM      3  C   UNL     1      -1.029  -0.992   2.883  0.00  0.00    +0.075 C 
ATOM      4  C   UNL     1      -0.862  -0.589   4.336  0.00  0.00    +0.094 C 
ATOM      5  C   UNL     1       0.357  -0.451   4.899  0.00  0.00    +0.195 C 
ATOM      6  O   UNL     1       1.545  -0.612   4.290  0.00  0.00    -0.448 OA
ATOM      7  C   UNL     1       1.574  -1.395   3.093  0.00  0.00    +0.343 C 
ATOM      8  N   UNL     1       2.678  -1.012   2.207  0.00  0.00    -0.138 NA
ATOM      9  N   UNL     1       2.190  -0.562   1.163  0.00  0.00    -0.155 NA
ENDROOT
BRANCH   3  10
ATOM     10  C   UNL     1      -1.948  -0.005   2.160  0.00  0.00    +0.024 C 
ATOM     11  C   UNL     1      -1.317   1.389   2.187  0.00  0.00    +0.009 C 
ATOM     12  C   UNL     1      -2.358   2.402   1.695  0.00  0.00    +0.005 C 
ATOM     13  C   UNL     1      -3.484   2.480   2.728  0.00  0.00    +0.027 C 
ATOM     14  C   UNL     1      -3.955   1.101   3.083  0.00  0.00    -0.031 C 
ATOM     15  C   UNL     1      -3.284   0.023   2.842  0.00  0.00    -0.027 C 
ENDBRANCH   3  10
BRANCH   5  16
ATOM     16  N   UNL     1       0.387  -0.113   6.228  0.00  0.00    -0.329 N 
ATOM     17  H   UNL     1      -0.442   0.016   6.715  0.00  0.00    +0.145 HD
ATOM     18  H   UNL     1       1.237  -0.001   6.681  0.00  0.00    +0.145 HD
ENDBRANCH   5  16
BRANCH   1  20
ATOM     19  C   UNL     1       0.540   1.345  -0.472  0.00  0.00    +0.010 C 
ATOM     20  C   UNL     1       0.001  -0.006   0.001  0.00  0.00    +0.054 C 
ENDBRANCH   1  20
BRANCH   4  21
ATOM     21  C   UNL     1      -2.028  -0.347   5.132  0.00  0.00    +0.100 C 
ATOM     22  N   UNL     1      -2.953  -0.155   5.763  0.00  0.00    -0.191 NA
ENDBRANCH   4  21
TORSDOF 4
