REMARK  Name = ZINC39943218
REMARK  9 active torsions:
REMARK  status: ('A' for Active; 'I' for Inactive)
REMARK    1  A    between atoms: C_1  and  C_2
REMARK    2  A    between atoms: C_2  and  O_3
REMARK    3  A    between atoms: O_3  and  C_4
REMARK    4  A    between atoms: C_4  and  C_6
REMARK    5  A    between atoms: C_8  and  N_19
REMARK    6  A    between atoms: C_15  and  C_18
REMARK    7  A    between atoms: C_20  and  C_22
REMARK    8  A    between atoms: C_22  and  S_23
REMARK    9  A    between atoms: S_23  and  C_24
REMARK                            x       y       z     vdW  Elec       q    Type
REMARK                         _______ _______ _______ _____ _____    ______ ____
ROOT
ATOM      1  N   UNL     1       3.451  -1.578   1.151  0.00  0.00    -0.301 N 
ATOM      2  C   UNL     1       4.130  -0.440   0.906  0.00  0.00    +0.224 C 
ATOM      3  O   UNL     1       4.351   0.340   1.808  0.00  0.00    -0.275 OA
ATOM      4  H   UNL     1       3.275  -2.202   0.430  0.00  0.00    +0.150 HD
ENDROOT
BRANCH   1   6
ATOM      5  C   UNL     1       1.516  -2.381   2.500  0.00  0.00    +0.155 C 
ATOM      6  C   UNL     1       2.978  -1.872   2.506  0.00  0.00    +0.153 C 
ATOM      7  S   UNL     1       3.793  -3.371   3.198  0.00  0.00    -0.106 S 
ATOM      8  C   UNL     1       2.542  -4.563   2.778  0.00  0.00    -0.012 C 
ATOM      9  C   UNL     1       1.454  -3.886   2.436  0.00  0.00    -0.044 C 
ATOM     10  C   UNL     1       0.185  -4.612   1.996  0.00  0.00    +0.033 C 
ATOM     11  C   UNL     1       0.247  -6.063   2.471  0.00  0.00    +0.008 C 
ATOM     12  C   UNL     1       1.565  -6.695   2.014  0.00  0.00    -0.009 C 
ATOM     13  C   UNL     1       2.707  -6.056   2.808  0.00  0.00    +0.045 C 
ATOM     14  C   UNL     1       1.531  -8.202   2.278  0.00  0.00    +0.008 C 
BRANCH   5  15
ATOM     15  C   UNL     1       0.801  -1.808   1.304  0.00  0.00    +0.317 C 
ATOM     16  O   UNL     1       0.324  -2.546   0.475  0.00  0.00    -0.250 OA
BRANCH  15  17
ATOM     17  O   UNL     1       0.693  -0.477   1.160  0.00  0.00    -0.464 OA
BRANCH  17  19
ATOM     18  C   UNL     1      -0.019   1.526   0.010  0.00  0.00    +0.048 C 
ATOM     19  C   UNL     1       0.002  -0.004   0.002  0.00  0.00    +0.229 C 
ENDBRANCH  17  19
ENDBRANCH  15  17
ENDBRANCH   5  15
ENDBRANCH   1   6
BRANCH   2  20
ATOM     20  C   UNL     1       4.617  -0.138  -0.487  0.00  0.00    +0.168 C 
BRANCH  20  21
ATOM     21  S   UNL     1       5.489   1.452  -0.492  0.00  0.00    -0.102 S 
BRANCH  21  22
ATOM     22  C   UNL     1       6.004   1.666  -2.218  0.00  0.00    +0.290 C 
ATOM     23  N   UNL     1       7.459   1.492  -2.349  0.00  0.00    -0.147 NA
ATOM     24  N   UNL     1       7.943   2.544  -2.769  0.00  0.00    -0.112 NA
ATOM     25  C   UNL     1       7.021   3.528  -2.982  0.00  0.00    +0.253 A 
ATOM     26  N   UNL     1       5.772   3.047  -2.658  0.00  0.00    -0.274 N 
ATOM     27  C   UNL     1       4.861   4.047  -2.881  0.00  0.00    +0.073 A 
ATOM     28  C   UNL     1       3.483   4.155  -2.739  0.00  0.00    +0.028 A 
ATOM     29  C   UNL     1       2.852   5.337  -3.059  0.00  0.00    +0.002 A 
ATOM     30  C   UNL     1       3.583   6.424  -3.523  0.00  0.00    +0.002 A 
ATOM     31  C   UNL     1       4.937   6.340  -3.670  0.00  0.00    +0.030 A 
ATOM     32  C   UNL     1       5.602   5.149  -3.352  0.00  0.00    +0.091 A 
ATOM     33  N   UNL     1       6.902   4.774  -3.390  0.00  0.00    -0.209 NA
ENDBRANCH  21  22
ENDBRANCH  20  21
ENDBRANCH   2  20
TORSDOF 7
