REMARK  Name = ZINC17073027
REMARK  9 active torsions:
REMARK  status: ('A' for Active; 'I' for Inactive)
REMARK    1  A    between atoms: C_1  and  C_2
REMARK    2  A    between atoms: C_2  and  C_3
REMARK    3  A    between atoms: C_3  and  C_4
REMARK    4  A    between atoms: N_6  and  C_20
REMARK    5  A    between atoms: C_7  and  O_8
REMARK    6  A    between atoms: C_9  and  C_10
REMARK    7  A    between atoms: C_10  and  C_11
REMARK    8  A    between atoms: N_12  and  C_13
REMARK    9  A    between atoms: C_14  and  C_19
REMARK                            x       y       z     vdW  Elec       q    Type
REMARK                         _______ _______ _______ _____ _____    ______ ____
ROOT
ATOM      1  C   UNL     1      -1.562  -2.246  -0.144  0.00  0.00    +0.076 A 
ATOM      2  N   UNL     1      -1.514  -3.155  -1.077  0.00  0.00    -0.168 NA
ATOM      3  N   UNL     1      -1.338  -4.412  -0.488  0.00  0.00    -0.200 N 
ATOM      4  C   UNL     1      -1.277  -4.252   0.852  0.00  0.00    +0.225 A 
ATOM      5  C   UNL     1      -1.409  -2.890   1.108  0.00  0.00    +0.080 A 
ENDROOT
BRANCH   3   6
ATOM      6  C   UNL     1      -1.241  -5.631  -1.172  0.00  0.00    +0.069 A 
ATOM      7  C   UNL     1      -0.410  -6.634  -0.692  0.00  0.00    +0.031 A 
ATOM      8  C   UNL     1      -0.316  -7.835  -1.367  0.00  0.00    +0.040 A 
ATOM      9  C   UNL     1      -1.051  -8.039  -2.523  0.00  0.00    +0.124 A 
ATOM     10  C   UNL     1      -1.880  -7.040  -3.004  0.00  0.00    +0.040 A 
ATOM     11  C   UNL     1      -1.980  -5.840  -2.329  0.00  0.00    +0.031 A 
ATOM     12  F   UNL     1      -0.958  -9.215  -3.183  0.00  0.00    -0.205 F 
ENDBRANCH   3   6
BRANCH   5  13
ATOM     13  C   UNL     1      -1.397  -2.246   2.424  0.00  0.00    +0.055 C 
ATOM     14  C   UNL     1      -0.097  -1.769   3.017  0.00  0.00    +0.066 C 
ATOM     15  N   UNL     1      -2.515  -2.084   3.083  0.00  0.00    -0.232 NA
BRANCH  15  16
ATOM     16  C   UNL     1      -2.521  -1.388   4.258  0.00  0.00    +0.156 A 
ATOM     17  C   UNL     1      -2.445  -2.076   5.472  0.00  0.00    -0.006 A 
ATOM     18  C   UNL     1      -2.451  -1.356   6.652  0.00  0.00    +0.008 A 
ATOM     19  C   UNL     1      -2.532   0.029   6.585  0.00  0.00    +0.020 A 
ATOM     20  C   UNL     1      -2.604   0.646   5.351  0.00  0.00    +0.113 A 
ATOM     21  N   UNL     1      -2.592  -0.060   4.239  0.00  0.00    -0.236 NA
ATOM     22  C   UNL     1      -2.359  -3.580   5.495  0.00  0.00    +0.047 C 
ENDBRANCH  15  16
ENDBRANCH   5  13
BRANCH   4  23
ATOM     23  O   UNL     1      -1.112  -5.231   1.772  0.00  0.00    -0.492 OA
ATOM     24  H   UNL     1      -0.188  -5.417   1.987  0.00  0.00    +0.294 HD
ENDBRANCH   4  23
BRANCH   1  25
ATOM     25  C   UNL     1      -1.742  -0.766  -0.360  0.00  0.00    +0.058 C 
BRANCH  25  27
ATOM     26  C   UNL     1      -0.554   1.399  -0.745  0.00  0.00    +0.004 C 
ATOM     27  C   UNL     1      -0.372  -0.104  -0.525  0.00  0.00    +0.003 C 
ENDBRANCH  25  27
ENDBRANCH   1  25
TORSDOF 6
