REMARK  Name = ZINC15004118
REMARK  11 active torsions:
REMARK  status: ('A' for Active; 'I' for Inactive)
REMARK    1  A    between atoms: C_1  and  O_2
REMARK    2  A    between atoms: O_2  and  C_3
REMARK    3  A    between atoms: C_3  and  C_4
REMARK    4  A    between atoms: C_4  and  C_5
REMARK    5  A    between atoms: C_5  and  N_6
REMARK    6  A    between atoms: C_17  and  N_67
REMARK    7  A    between atoms: C_21  and  C_22
REMARK    8  A    between atoms: C_21  and  N_67
REMARK    9  A    between atoms: C_22  and  C_23
REMARK   10  A    between atoms: C_23  and  C_24
REMARK   11  A    between atoms: C_23  and  C_30
REMARK                            x       y       z     vdW  Elec       q    Type
REMARK                         _______ _______ _______ _____ _____    ______ ____
ROOT
ATOM      1  N   UNL     1       3.938  -7.922  -1.422  0.00  0.00    -0.299 N 
ATOM      2  C   UNL     1       2.918  -8.415  -2.166  0.00  0.00    +0.203 A 
ATOM      3  N   UNL     1       1.895  -7.685  -2.551  0.00  0.00    -0.230 NA
ATOM      4  C   UNL     1       1.882  -6.407  -2.182  0.00  0.00    +0.116 A 
ATOM      5  C   UNL     1       2.897  -5.802  -1.408  0.00  0.00    +0.076 A 
ATOM      6  C   UNL     1       3.996  -6.634  -1.008  0.00  0.00    +0.262 A 
ATOM      7  O   UNL     1       4.922  -6.209  -0.340  0.00  0.00    -0.267 OA
ATOM      8  C   UNL     1       2.714  -4.395  -1.100  0.00  0.00    -0.023 A 
ATOM      9  C   UNL     1       1.593  -3.808  -1.584  0.00  0.00    -0.006 A 
ATOM     10  S   UNL     1       0.740  -5.092  -2.464  0.00  0.00    -0.073 S 
ATOM     11  C   UNL     1       1.168  -2.383  -1.410  0.00  0.00    +0.027 C 
ATOM     12  C   UNL     1       2.006  -1.759  -0.285  0.00  0.00    -0.067 C 
ATOM     13  C   UNL     1       3.479  -2.100  -0.525  0.00  0.00    -0.011 C 
ATOM     14  C   UNL     1       3.715  -3.590  -0.276  0.00  0.00    +0.035 C 
ENDROOT
BRANCH  12  15
ATOM     15  N   UNL     1       1.837  -0.294  -0.296  0.00  0.00    +0.381 N 
ATOM     16  H   UNL     1       1.722   0.027  -1.264  0.00  0.00    -0.086 HD
ATOM     17  H   UNL     1       2.669   0.146   0.115  0.00  0.00    -0.086 HD
BRANCH  15  18
ATOM     18  C   UNL     1       0.647   0.090   0.488  0.00  0.00    -0.081 C 
BRANCH  18  19
ATOM     19  C   UNL     1       0.497   1.612   0.459  0.00  0.00    -0.006 C 
BRANCH  19  20
ATOM     20  C   UNL     1      -0.735   2.019   1.269  0.00  0.00    +0.047 C 
BRANCH  20  21
ATOM     21  C   UNL     1      -0.813   3.522   1.344  0.00  0.00    -0.040 A 
ATOM     22  C   UNL     1      -0.955   4.147   2.569  0.00  0.00    +0.004 A 
ATOM     23  C   UNL     1      -1.021   5.526   2.638  0.00  0.00    +0.000 A 
ATOM     24  C   UNL     1      -0.957   6.280   1.481  0.00  0.00    +0.000 A 
ATOM     25  C   UNL     1      -0.822   5.655   0.255  0.00  0.00    +0.000 A 
ATOM     26  C   UNL     1      -0.749   4.276   0.187  0.00  0.00    +0.004 A 
ENDBRANCH  20  21
BRANCH  20  27
ATOM     27  C   UNL     1      -1.975   1.484   0.601  0.00  0.00    -0.040 A 
ATOM     28  C   UNL     1      -2.202   1.738  -0.739  0.00  0.00    +0.004 A 
ATOM     29  C   UNL     1      -3.337   1.243  -1.353  0.00  0.00    +0.000 A 
ATOM     30  C   UNL     1      -4.250   0.503  -0.626  0.00  0.00    +0.000 A 
ATOM     31  C   UNL     1      -4.025   0.253   0.715  0.00  0.00    +0.000 A 
ATOM     32  C   UNL     1      -2.888   0.744   1.328  0.00  0.00    +0.004 A 
ENDBRANCH  20  27
ENDBRANCH  19  20
ENDBRANCH  18  19
ENDBRANCH  15  18
ENDBRANCH  12  15
BRANCH   1  33
ATOM     33  C   UNL     1       5.028  -8.826  -1.047  0.00  0.00    +0.128 C 
BRANCH  33  34
ATOM     34  C   UNL     1       4.699  -9.495   0.288  0.00  0.00    +0.050 C 
BRANCH  34  35
ATOM     35  C   UNL     1       5.838 -10.439   0.680  0.00  0.00    +0.161 C 
BRANCH  35  37
ATOM     36  C   UNL     1       6.536 -11.971   2.387  0.00  0.00    +0.193 C 
ATOM     37  O   UNL     1       5.531 -11.065   1.928  0.00  0.00    -0.383 OA
ENDBRANCH  35  37
ENDBRANCH  34  35
ENDBRANCH  33  34
ENDBRANCH   1  33
TORSDOF 10
