REMARK  Name = ZINC24852313
REMARK  14 active torsions:
REMARK  status: ('A' for Active; 'I' for Inactive)
REMARK    1  A    between atoms: C_1  and  C_2
REMARK    2  A    between atoms: C_2  and  N_3
REMARK    3  A    between atoms: N_3  and  C_4
REMARK    4  A    between atoms: N_3  and  C_6
REMARK    5  A    between atoms: C_4  and  C_5
REMARK    6  A    between atoms: C_6  and  C_8
REMARK    7  A    between atoms: C_6  and  C_32
REMARK    8  A    between atoms: C_8  and  N_9
REMARK    9  A    between atoms: C_10  and  C_12
REMARK   10  A    between atoms: C_12  and  S_13
REMARK   11  A    between atoms: S_13  and  C_14
REMARK   12  A    between atoms: C_17  and  C_26
REMARK   13  A    between atoms: N_18  and  C_19
REMARK   14  A    between atoms: C_24  and  C_25
REMARK                            x       y       z     vdW  Elec       q    Type
REMARK                         _______ _______ _______ _____ _____    ______ ____
ROOT
ATOM      1  S   UNL     1       2.248  -5.399  -0.608  0.00  0.00    -0.076 S 
ENDROOT
BRANCH   1   2
ATOM      2  C   UNL     1       1.298  -4.157  -1.420  0.00  0.00    +0.197 A 
ATOM      3  N   UNL     1       0.177  -4.341  -2.082  0.00  0.00    -0.122 NA
ATOM      4  N   UNL     1      -0.251  -3.222  -2.546  0.00  0.00    -0.128 NA
ATOM      5  C   UNL     1       0.569  -2.253  -2.211  0.00  0.00    +0.171 A 
ATOM      6  N   UNL     1       1.591  -2.822  -1.483  0.00  0.00    -0.270 N 
BRANCH   6   7
ATOM      7  C   UNL     1       2.698  -2.170  -0.922  0.00  0.00    +0.053 A 
ATOM      8  C   UNL     1       2.627  -1.665   0.369  0.00  0.00    +0.026 A 
ATOM      9  C   UNL     1       3.719  -1.024   0.919  0.00  0.00    +0.002 A 
ATOM     10  C   UNL     1       4.883  -0.884   0.185  0.00  0.00    +0.000 A 
ATOM     11  C   UNL     1       4.956  -1.386  -1.101  0.00  0.00    +0.005 A 
ATOM     12  C   UNL     1       3.869  -2.034  -1.655  0.00  0.00    -0.026 A 
ATOM     13  C   UNL     1       3.952  -2.586  -3.054  0.00  0.00    +0.046 C 
ENDBRANCH   6   7
BRANCH   5  14
ATOM     14  C   UNL     1       0.426  -0.822  -2.554  0.00  0.00    +0.038 A 
ATOM     15  C   UNL     1      -0.793  -0.322  -3.027  0.00  0.00    +0.014 A 
ATOM     16  C   UNL     1      -0.875   1.024  -3.334  0.00  0.00    +0.020 A 
ATOM     17  C   UNL     1       0.241   1.826  -3.167  0.00  0.00    +0.111 A 
ATOM     18  N   UNL     1       1.377   1.327  -2.719  0.00  0.00    -0.263 NA
ATOM     19  C   UNL     1       1.504   0.052  -2.413  0.00  0.00    +0.122 A 
ENDBRANCH   5  14
ENDBRANCH   1   2
BRANCH   1  20
ATOM     20  C   UNL     1       1.239  -6.857  -0.975  0.00  0.00    +0.173 C 
BRANCH  20  22
ATOM     21  N   UNL     1       1.297  -9.285  -0.505  0.00  0.00    -0.316 N 
ATOM     22  C   UNL     1       1.877  -8.076  -0.361  0.00  0.00    +0.223 C 
ATOM     23  O   UNL     1       2.912  -7.971   0.262  0.00  0.00    -0.275 OA
ATOM     24  H   UNL     1       0.358  -9.380  -1.071  0.00  0.00    +0.149 HD
BRANCH  21  25
ATOM     25  C   UNL     1       1.917 -10.470   0.091  0.00  0.00    +0.096 C 
BRANCH  25  26
ATOM     26  C   UNL     1       1.001 -11.679  -0.107  0.00  0.00    +0.016 C 
BRANCH  26  27
ATOM     27  C   UNL     1      -0.274 -11.476   0.670  0.00  0.00    +0.093 A 
ATOM     28  C   UNL     1      -0.561 -12.019   1.867  0.00  0.00    +0.043 A 
ATOM     29  C   UNL     1      -1.851 -11.564   2.225  0.00  0.00    +0.041 A 
ATOM     30  C   UNL     1      -2.278 -10.776   1.222  0.00  0.00    +0.195 A 
ATOM     31  O   UNL     1      -1.319 -10.727   0.283  0.00  0.00    -0.469 OA
ENDBRANCH  26  27
BRANCH  26  32
ATOM     32  N   UNL     1       0.686 -11.826  -1.534  0.00  0.00    +0.387 N 
ATOM     33  H   UNL     1       0.118 -10.938  -1.848  0.00  0.00    -0.081 HD
BRANCH  32  35
ATOM     34  C   UNL     1       2.755 -13.084  -1.899  0.00  0.00    -0.017 C 
ATOM     35  C   UNL     1       1.912 -11.886  -2.341  0.00  0.00    -0.081 C 
ENDBRANCH  32  35
BRANCH  32  36
ATOM     36  C   UNL     1      -0.156 -13.007  -1.769  0.00  0.00    -0.081 C 
ATOM     37  C   UNL     1      -0.762 -12.930  -3.172  0.00  0.00    -0.017 C 
ENDBRANCH  32  36
ENDBRANCH  26  32
ENDBRANCH  25  26
ENDBRANCH  21  25
ENDBRANCH  20  22
ENDBRANCH   1  20
TORSDOF 11
