REMARK  Name = ZINC63571880
REMARK  7 active torsions:
REMARK  status: ('A' for Active; 'I' for Inactive)
REMARK    1  A    between atoms: C_1  and  C_2
REMARK    2  A    between atoms: C_2  and  O_3
REMARK    3  A    between atoms: O_3  and  C_4
REMARK    4  A    between atoms: C_4  and  C_6
REMARK    5  A    between atoms: C_6  and  C_7
REMARK    6  A    between atoms: C_7  and  N_13
REMARK    7  A    between atoms: C_29  and  C_31
REMARK                            x       y       z     vdW  Elec       q    Type
REMARK                         _______ _______ _______ _____ _____    ______ ____
ROOT
ATOM      1  N   UNL     1       1.039  -6.235  -0.393  0.00  0.00    -0.293 N 
ATOM      2  C   UNL     1       0.793  -5.276   0.522  0.00  0.00    +0.303 C 
ATOM      3  O   UNL     1      -0.227  -4.618   0.454  0.00  0.00    -0.253 OA
ATOM      4  N   UNL     1       1.677  -5.048   1.514  0.00  0.00    -0.276 N 
ATOM      5  C   UNL     1       2.961  -5.757   1.519  0.00  0.00    +0.114 C 
ATOM      6  C   UNL     1       4.111  -4.733   1.519  0.00  0.00    +0.052 C 
ATOM      7  C   UNL     1       3.759  -3.687   2.547  0.00  0.00    -0.035 C 
ATOM      8  C   UNL     1       4.446  -3.197   3.572  0.00  0.00    -0.001 A 
ATOM      9  C   UNL     1       5.834  -3.411   4.013  0.00  0.00    +0.010 A 
ATOM     10  C   UNL     1       6.214  -2.752   5.139  0.00  0.00    +0.001 A 
ATOM     11  C   UNL     1       5.362  -1.911   5.862  0.00  0.00    +0.002 A 
ATOM     12  C   UNL     1       4.074  -1.650   5.525  0.00  0.00    +0.026 A 
ATOM     13  C   UNL     1       3.562  -2.280   4.353  0.00  0.00    +0.043 A 
ATOM     14  N   UNL     1       2.391  -2.191   3.794  0.00  0.00    -0.375 N 
ATOM     15  C   UNL     1       2.406  -2.985   2.565  0.00  0.00    +0.131 C 
ATOM     16  C   UNL     1       1.346  -4.085   2.576  0.00  0.00    +0.134 C 
ATOM     17  H   UNL     1       1.813  -6.811  -0.295  0.00  0.00    +0.151 HD
ATOM     18  H   UNL     1       1.637  -1.685   4.134  0.00  0.00    +0.160 HD
ENDROOT
BRANCH  16  19
ATOM     19  C   UNL     1      -0.011  -3.484   2.316  0.00  0.00    -0.025 A 
ATOM     20  C   UNL     1      -0.187  -2.602   1.267  0.00  0.00    +0.008 A 
ATOM     21  C   UNL     1      -1.431  -2.051   1.027  0.00  0.00    +0.038 A 
ATOM     22  C   UNL     1      -2.503  -2.383   1.839  0.00  0.00    +0.123 A 
ATOM     23  C   UNL     1      -2.326  -3.267   2.890  0.00  0.00    +0.038 A 
ATOM     24  C   UNL     1      -1.082  -3.821   3.124  0.00  0.00    +0.008 A 
ATOM     25  F   UNL     1      -3.720  -1.845   1.606  0.00  0.00    -0.205 F 
ENDBRANCH  16  19
BRANCH   1  26
ATOM     26  C   UNL     1       0.138  -6.406  -1.535  0.00  0.00    +0.046 C 
ATOM     27  C   UNL     1       0.633  -7.562  -2.406  0.00  0.00    +0.026 C 
ATOM     28  C   UNL     1       2.044  -7.254  -2.911  0.00  0.00    +0.002 C 
ATOM     29  C   UNL     1       2.019  -5.967  -3.738  0.00  0.00    +0.000 C 
ATOM     30  C   UNL     1       1.524  -4.810  -2.868  0.00  0.00    +0.002 C 
ATOM     31  C   UNL     1       0.114  -5.119  -2.362  0.00  0.00    +0.026 C 
BRANCH  26  32
ATOM     32  C   UNL     1      -1.272  -6.715  -1.030  0.00  0.00    +0.146 C 
BRANCH  32  33
ATOM     33  C   UNL     1      -1.225  -7.900  -0.101  0.00  0.00    +0.309 C 
ATOM     34  O   UNL     1      -0.161  -8.369   0.227  0.00  0.00    -0.251 OA
BRANCH  33  35
ATOM     35  O   UNL     1      -2.365  -8.436   0.362  0.00  0.00    -0.465 OA
BRANCH  35  37
ATOM     36  C   UNL     1      -3.636  -9.881   1.825  0.00  0.00    +0.048 C 
ATOM     37  C   UNL     1      -2.245  -9.484   1.326  0.00  0.00    +0.229 C 
ENDBRANCH  35  37
ENDBRANCH  33  35
ENDBRANCH  32  33
ENDBRANCH  26  32
ENDBRANCH   1  26
TORSDOF 6
