REMARK  Name = ZINC26288055
REMARK  6 active torsions:
REMARK  status: ('A' for Active; 'I' for Inactive)
REMARK    1  A    between atoms: C_1  and  C_2
REMARK    2  A    between atoms: C_3  and  C_11
REMARK    3  A    between atoms: C_11  and  S_12
REMARK    4  A    between atoms: S_12  and  C_13
REMARK    5  A    between atoms: C_13  and  C_14
REMARK    6  A    between atoms: C_14  and  N_15
REMARK                            x       y       z     vdW  Elec       q    Type
REMARK                         _______ _______ _______ _____ _____    ______ ____
ROOT
ATOM      1  C   UNL     1      -1.566   0.417  -4.813  0.00  0.00    +0.088 C 
ENDROOT
BRANCH   1   2
ATOM      2  S   UNL     1      -1.722  -0.150  -3.096  0.00  0.00    -0.153 S 
BRANCH   2   3
ATOM      3  C   UNL     1      -0.006  -0.315  -2.531  0.00  0.00    +0.124 C 
BRANCH   3   6
ATOM      4  C   UNL     1      -0.018   1.503   0.010  0.00  0.00    +0.067 C 
ATOM      5  C   UNL     1       0.002  -0.004   0.002  0.00  0.00    +0.061 A 
ATOM      6  C   UNL     1       0.008  -0.786  -1.100  0.00  0.00    +0.056 A 
ATOM      7  N   UNL     1       0.028  -2.086  -0.672  0.00  0.00    -0.303 N 
ATOM      8  C   UNL     1       0.042  -3.277  -1.339  0.00  0.00    +0.093 A 
ATOM      9  C   UNL     1       0.062  -4.444  -0.661  0.00  0.00    +0.018 A 
ATOM     10  C   UNL     1       0.069  -4.447   0.743  0.00  0.00    +0.005 A 
ATOM     11  C   UNL     1       0.055  -3.267   1.420  0.00  0.00    +0.047 A 
ATOM     12  C   UNL     1       0.034  -2.057   0.698  0.00  0.00    +0.138 A 
ATOM     13  N   UNL     1       0.024  -0.789   1.082  0.00  0.00    -0.233 NA
ENDBRANCH   3   6
ENDBRANCH   2   3
ENDBRANCH   1   2
BRANCH   1  14
ATOM     14  C   UNL     1      -2.959   0.599  -5.418  0.00  0.00    +0.113 C 
BRANCH  14  15
ATOM     15  N   UNL     1      -2.833   1.057  -6.804  0.00  0.00    -0.325 N 
ATOM     16  C   UNL     1      -3.963   1.291  -7.558  0.00  0.00    +0.170 A 
ATOM     17  C   UNL     1      -3.897   1.745  -8.954  0.00  0.00    +0.144 A 
ATOM     18  N   UNL     1      -5.046   1.923  -9.534  0.00  0.00    -0.272 N 
ATOM     19  S   UNL     1      -6.166   1.530  -8.357  0.00  0.00    +0.247 S 
ATOM     20  O   UNL     1      -6.694   0.283  -8.788  0.00  0.00    -0.209 OA
ATOM     21  N   UNL     1      -5.162   1.120  -7.086  0.00  0.00    -0.149 NA
ATOM     22  N   UNL     1      -2.701   1.968  -9.602  0.00  0.00    -0.341 N 
ATOM     23  H   UNL     1      -1.955   1.195  -7.191  0.00  0.00    +0.148 HD
ATOM     24  H   UNL     1      -1.863   1.824  -9.135  0.00  0.00    +0.144 HD
ATOM     25  H   UNL     1      -2.698   2.267 -10.524  0.00  0.00    +0.144 HD
ATOM     26  H   UNL     1      -5.216   2.217 -10.443  0.00  0.00    +0.179 HD
ENDBRANCH  14  15
ENDBRANCH   1  14
TORSDOF 5
