REMARK  Name = ZINC33170598
REMARK  12 active torsions:
REMARK  status: ('A' for Active; 'I' for Inactive)
REMARK    1  A    between atoms: C_1  and  C_2
REMARK    2  A    between atoms: C_2  and  O_3
REMARK    3  A    between atoms: O_3  and  C_4
REMARK    4  A    between atoms: C_9  and  N_10
REMARK    5  A    between atoms: N_10  and  S_11
REMARK    6  A    between atoms: S_11  and  C_14
REMARK    7  A    between atoms: C_16  and  C_21
REMARK    8  A    between atoms: C_19  and  C_20
REMARK    9  A    between atoms: C_22  and  C_23
REMARK   10  A    between atoms: C_24  and  N_29
REMARK   11  A    between atoms: C_25  and  C_28
REMARK   12  A    between atoms: C_30  and  C_32
REMARK                            x       y       z     vdW  Elec       q    Type
REMARK                         _______ _______ _______ _____ _____    ______ ____
ROOT
ATOM      1  C   UNL     1       1.502   0.355   0.517  0.00  0.00    +0.112 A 
ATOM      2  C   UNL     1       0.888   1.573   0.724  0.00  0.00    +0.037 A 
ATOM      3  C   UNL     1       0.926   2.549  -0.276  0.00  0.00    -0.023 A 
ATOM      4  C   UNL     1       1.591   2.285  -1.478  0.00  0.00    +0.008 A 
ATOM      5  C   UNL     1       2.205   1.065  -1.667  0.00  0.00    +0.006 A 
ATOM      6  C   UNL     1       2.164   0.103  -0.672  0.00  0.00    -0.024 A 
ATOM      7  C   UNL     1       2.837  -1.228  -0.888  0.00  0.00    +0.046 C 
ENDROOT
BRANCH   1   8
ATOM      8  S   UNL     1       1.450  -0.880   1.772  0.00  0.00    +0.073 S 
ATOM      9  O   UNL     1       2.781  -1.351   1.934  0.00  0.00    -0.150 OA
ATOM     10  O   UNL     1       0.700  -0.334   2.848  0.00  0.00    -0.150 OA
BRANCH   8  11
ATOM     11  N   UNL     1       0.568  -2.148   1.175  0.00  0.00    -0.213 N 
ATOM     12  H   UNL     1       1.077  -3.069   0.855  0.00  0.00    +0.174 HD
BRANCH  11  18
ATOM     13  C   UNL     1      -1.617  -3.186   1.201  0.00  0.00    +0.143 A 
ATOM     14  C   UNL     1      -2.995  -3.081   1.104  0.00  0.00    +0.047 A 
ATOM     15  C   UNL     1      -3.581  -1.847   0.886  0.00  0.00    +0.004 A 
ATOM     16  C   UNL     1      -2.795  -0.717   0.764  0.00  0.00    +0.002 A 
ATOM     17  C   UNL     1      -1.419  -0.813   0.865  0.00  0.00    +0.028 A 
ATOM     18  C   UNL     1      -0.825  -2.047   1.078  0.00  0.00    +0.090 A 
BRANCH  13  19
ATOM     19  O   UNL     1      -1.040  -4.399   1.417  0.00  0.00    -0.490 OA
BRANCH  19  21
ATOM     20  C   UNL     1      -1.090  -6.789   1.770  0.00  0.00    +0.048 C 
ATOM     21  C   UNL     1      -1.915  -5.523   1.532  0.00  0.00    +0.226 C 
ENDBRANCH  19  21
ENDBRANCH  13  19
ENDBRANCH  11  18
ENDBRANCH   8  11
ENDBRANCH   1   8
BRANCH   3  22
ATOM     22  C   UNL     1       0.267   3.849  -0.066  0.00  0.00    +0.012 C 
ATOM     23  C   UNL     1       1.009   4.968   0.055  0.00  0.00    +0.051 C 
BRANCH  23  24
ATOM     24  C   UNL     1       2.448   4.870   0.297  0.00  0.00    +0.182 A 
ATOM     25  C   UNL     1       3.392   5.880   0.164  0.00  0.00    +0.103 A 
ATOM     26  C   UNL     1       4.607   5.248   0.519  0.00  0.00    +0.102 A 
ATOM     27  N   UNL     1       4.314   4.013   0.811  0.00  0.00    -0.081 NA
ATOM     28  O   UNL     1       3.133   3.780   0.703  0.00  0.00    -0.353 OA
ATOM     29  C   UNL     1       5.974   5.881   0.553  0.00  0.00    +0.071 C 
BRANCH  25  30
ATOM     30  N   UNL     1       3.189   7.210  -0.229  0.00  0.00    -0.281 N 
ATOM     31  C   UNL     1       3.887   8.201   0.362  0.00  0.00    +0.214 C 
ATOM     32  O   UNL     1       4.733   7.937   1.190  0.00  0.00    -0.276 OA
ATOM     33  C   UNL     1       3.615   9.637  -0.007  0.00  0.00    +0.109 C 
ATOM     34  H   UNL     1       2.461   7.445  -1.018  0.00  0.00    +0.155 HD
ENDBRANCH  25  30
ENDBRANCH  23  24
ENDBRANCH   3  22
TORSDOF 8
