REMARK  Name = ZINC09090190
REMARK  6 active torsions:
REMARK  status: ('A' for Active; 'I' for Inactive)
REMARK    1  A    between atoms: C_1  and  C_2
REMARK    2  A    between atoms: C_2  and  O_3
REMARK    3  A    between atoms: O_3  and  C_4
REMARK    4  A    between atoms: C_4  and  C_6
REMARK    5  A    between atoms: C_7  and  C_28
REMARK    6  A    between atoms: C_19  and  C_21
REMARK                            x       y       z     vdW  Elec       q    Type
REMARK                         _______ _______ _______ _____ _____    ______ ____
ROOT
ATOM      1  C   UNL     1       1.216  -0.509  -0.458  0.00  0.00    +0.065 C 
ATOM      2  C   UNL     1       2.357   0.197  -0.527  0.00  0.00    +0.017 C 
ATOM      3  N   UNL     1       2.407   1.496  -0.101  0.00  0.00    -0.304 N 
ATOM      4  C   UNL     1       1.249   2.218   0.057  0.00  0.00    +0.111 A 
ATOM      5  C   UNL     1       0.046   1.584   0.152  0.00  0.00    +0.067 A 
ATOM      6  C   UNL     1      -1.121   2.354   0.312  0.00  0.00    +0.258 A 
ATOM      7  O   UNL     1      -2.208   1.809   0.401  0.00  0.00    -0.267 OA
ATOM      8  N   UNL     1      -1.029   3.697   0.360  0.00  0.00    -0.302 N 
ATOM      9  H   UNL     1      -1.833   4.231   0.465  0.00  0.00    +0.171 HD
ATOM     10  C   UNL     1       0.168   4.305   0.269  0.00  0.00    +0.159 A 
ATOM     11  S   UNL     1       0.254   6.013   0.344  0.00  0.00    -0.013 S 
ATOM     12  N   UNL     1       1.298   3.590   0.120  0.00  0.00    -0.323 N 
ATOM     13  H   UNL     1       2.152   4.045   0.057  0.00  0.00    +0.169 HD
ATOM     14  C   UNL     1      -0.047   0.085   0.094  0.00  0.00    +0.096 C 
ATOM     15  C   UNL     1       3.600  -0.451  -1.081  0.00  0.00    +0.061 C 
ATOM     16  H   UNL     1       3.263   1.909   0.089  0.00  0.00    +0.153 HD
ENDROOT
BRANCH  14  17
ATOM     17  C   UNL     1      -0.281  -0.450   1.483  0.00  0.00    -0.035 A 
ATOM     18  C   UNL     1       0.645  -0.212   2.481  0.00  0.00    +0.005 A 
ATOM     19  C   UNL     1       0.428  -0.699   3.756  0.00  0.00    +0.015 A 
ATOM     20  C   UNL     1      -0.711  -1.434   4.031  0.00  0.00    +0.018 A 
ATOM     21  C   UNL     1      -1.635  -1.677   3.031  0.00  0.00    +0.015 A 
ATOM     22  C   UNL     1      -1.420  -1.185   1.758  0.00  0.00    +0.005 A 
ATOM     23 BR   UNL     1      -1.004  -2.107   5.774  0.00  0.00    -0.050 Br
ENDBRANCH  14  17
BRANCH   1  24
ATOM     24  C   UNL     1       1.205  -1.847  -0.917  0.00  0.00    +0.338 C 
ATOM     25  O   UNL     1       0.773  -2.106  -2.025  0.00  0.00    -0.245 OA
BRANCH  24  26
ATOM     26  O   UNL     1       1.673  -2.835  -0.127  0.00  0.00    -0.462 OA
BRANCH  26  28
ATOM     27  C   UNL     1       2.200  -5.140   0.376  0.00  0.00    +0.048 C 
ATOM     28  C   UNL     1       1.631  -4.162  -0.655  0.00  0.00    +0.229 C 
ENDBRANCH  26  28
ENDBRANCH  24  26
ENDBRANCH   1  24
TORSDOF 4
