REMARK  Name = ZINC10100313
REMARK  12 active torsions:
REMARK  status: ('A' for Active; 'I' for Inactive)
REMARK    1  A    between atoms: C_1  and  C_2
REMARK    2  A    between atoms: C_2  and  C_3
REMARK    3  A    between atoms: C_3  and  N_62
REMARK    4  A    between atoms: C_9  and  N_14
REMARK    5  A    between atoms: C_10  and  C_11
REMARK    6  A    between atoms: C_15  and  C_17
REMARK    7  A    between atoms: C_20  and  S_23
REMARK    8  A    between atoms: S_23  and  N_26
REMARK    9  A    between atoms: N_26  and  C_27
REMARK   10  A    between atoms: N_26  and  C_28
REMARK   11  A    between atoms: C_28  and  C_29
REMARK   12  A    between atoms: C_28  and  C_30
REMARK                            x       y       z     vdW  Elec       q    Type
REMARK                         _______ _______ _______ _____ _____    ______ ____
ROOT
ATOM      1  C   UNL     1      -5.491   1.750  12.354  0.00  0.00    -0.074 C 
ATOM      2  C   UNL     1      -5.848   1.200  10.970  0.00  0.00    +0.018 C 
ATOM      3  C   UNL     1      -5.054   1.982   9.930  0.00  0.00    -0.027 A 
ATOM      4  C   UNL     1      -4.499   3.172  10.254  0.00  0.00    -0.021 A 
ATOM      5  S   UNL     1      -3.681   3.704   8.779  0.00  0.00    -0.079 S 
ATOM      6  C   UNL     1      -4.078   2.373   7.742  0.00  0.00    +0.085 A 
ATOM      7  C   UNL     1      -4.829   1.543   8.566  0.00  0.00    +0.068 A 
ATOM      8  C   UNL     1      -4.576   3.856  11.582  0.00  0.00    -0.035 C 
ATOM      9  N   UNL     1      -5.666   3.217  12.359  0.00  0.00    +0.383 N 
ATOM     10  H   UNL     1      -6.567   3.447  11.923  0.00  0.00    -0.081 HD
ENDROOT
BRANCH   7  11
ATOM     11  C   UNL     1      -5.372   0.273   8.075  0.00  0.00    +0.244 C 
ATOM     12  O   UNL     1      -4.717  -0.748   8.175  0.00  0.00    -0.270 OA
ATOM     13  N   UNL     1      -6.596   0.236   7.512  0.00  0.00    -0.325 N 
ATOM     14  H   UNL     1      -7.118   1.050   7.433  0.00  0.00    +0.145 HD
ATOM     15  H   UNL     1      -6.956  -0.604   7.188  0.00  0.00    +0.145 HD
ENDBRANCH   7  11
BRANCH   6  16
ATOM     16  N   UNL     1      -3.727   2.181   6.416  0.00  0.00    -0.275 N 
ATOM     17  C   UNL     1      -2.986   3.105   5.774  0.00  0.00    +0.249 C 
ATOM     18  O   UNL     1      -2.626   4.108   6.358  0.00  0.00    -0.270 OA
ATOM     19  H   UNL     1      -4.015   1.380   5.949  0.00  0.00    +0.156 HD
BRANCH  17  20
ATOM     20  C   UNL     1      -2.612   2.900   4.359  0.00  0.00    +0.037 A 
ATOM     21  C   UNL     1      -1.845   3.856   3.691  0.00  0.00    +0.015 A 
ATOM     22  C   UNL     1      -1.498   3.658   2.370  0.00  0.00    +0.029 A 
ATOM     23  C   UNL     1      -1.910   2.514   1.708  0.00  0.00    +0.106 A 
ATOM     24  C   UNL     1      -2.675   1.566   2.363  0.00  0.00    +0.029 A 
ATOM     25  C   UNL     1      -3.024   1.749   3.685  0.00  0.00    +0.015 A 
BRANCH  23  26
ATOM     26  S   UNL     1      -1.463   2.269   0.021  0.00  0.00    +0.061 S 
ATOM     27  O   UNL     1      -1.212   3.557  -0.524  0.00  0.00    -0.153 OA
ATOM     28  O   UNL     1      -2.428   1.384  -0.530  0.00  0.00    -0.153 OA
BRANCH  26  29
ATOM     29  N   UNL     1      -0.018   1.461   0.010  0.00  0.00    -0.177 NA
ATOM     30  C   UNL     1       1.241   2.211   0.002  0.00  0.00    +0.132 C 
BRANCH  29  31
ATOM     31  C   UNL     1       0.002  -0.004   0.002  0.00  0.00    +0.073 C 
ATOM     32  C   UNL     1       0.718  -0.497  -1.257  0.00  0.00    +0.025 C 
ATOM     33  C   UNL     1       0.742  -0.511   1.242  0.00  0.00    +0.025 C 
ENDBRANCH  29  31
ENDBRANCH  26  29
ENDBRANCH  23  26
ENDBRANCH  17  20
ENDBRANCH   6  16
BRANCH   9  34
ATOM     34  C   UNL     1      -5.661   3.723  13.749  0.00  0.00    -0.079 C 
BRANCH  34  36
ATOM     35  C   UNL     1      -4.394   3.837  15.899  0.00  0.00    +0.002 C 
ATOM     36  C   UNL     1      -4.375   3.305  14.465  0.00  0.00    -0.022 C 
ENDBRANCH  34  36
ENDBRANCH   9  34
TORSDOF 8
