REMARK  Name = ZINC38918739
REMARK  6 active torsions:
REMARK  status: ('A' for Active; 'I' for Inactive)
REMARK    1  A    between atoms: C_1  and  C_2
REMARK    2  A    between atoms: C_2  and  C_3
REMARK    3  A    between atoms: C_2  and  C_4
REMARK    4  A    between atoms: C_2  and  C_5
REMARK    5  A    between atoms: C_8  and  C_11
REMARK    6  A    between atoms: N_19  and  C_20
REMARK                            x       y       z     vdW  Elec       q    Type
REMARK                         _______ _______ _______ _____ _____    ______ ____
ROOT
ATOM      1  C   UNL     1       2.707  -1.867  -4.749  0.00  0.00    +0.223 C 
ATOM      2  N   UNL     1       3.394  -0.763  -5.460  0.00  0.00    -0.166 NA
ATOM      3  N   UNL     1       4.599  -0.808  -5.568  0.00  0.00    -0.130 NA
ATOM      4  C   UNL     1       5.391  -1.821  -5.074  0.00  0.00    +0.185 C 
ATOM      5  N   UNL     1       6.703  -1.961  -5.139  0.00  0.00    -0.247 N 
ATOM      6  C   UNL     1       7.448  -1.029  -5.758  0.00  0.00    +0.310 C 
ATOM      7  O   UNL     1       6.913  -0.056  -6.258  0.00  0.00    -0.252 OA
ATOM      8  N   UNL     1       8.786  -1.172  -5.824  0.00  0.00    -0.269 N 
ATOM      9  S   UNL     1       4.174  -2.900  -4.319  0.00  0.00    -0.055 S 
ATOM     10  H   UNL     1       9.218  -1.911  -5.368  0.00  0.00    +0.156 HD
ATOM     11  H   UNL     1       7.128  -2.736  -4.740  0.00  0.00    +0.158 HD
ENDROOT
BRANCH   8  12
ATOM     12  C   UNL     1       9.553  -0.253  -6.551  0.00  0.00    +0.035 A 
ATOM     13  C   UNL     1      10.677  -0.680  -7.244  0.00  0.00    +0.026 A 
ATOM     14  C   UNL     1      11.432   0.228  -7.960  0.00  0.00    +0.040 A 
ATOM     15  C   UNL     1      11.068   1.563  -7.987  0.00  0.00    +0.124 A 
ATOM     16  C   UNL     1       9.947   1.992  -7.297  0.00  0.00    +0.040 A 
ATOM     17  C   UNL     1       9.186   1.086  -6.584  0.00  0.00    +0.026 A 
ATOM     18  F   UNL     1      11.808   2.450  -8.688  0.00  0.00    -0.205 F 
ENDBRANCH   8  12
BRANCH   1  22
ATOM     19  C   UNL     1       0.705  -0.465  -1.246  0.00  0.00    -0.042 A 
ATOM     20  C   UNL     1       0.035  -1.267  -2.151  0.00  0.00    +0.004 A 
ATOM     21  C   UNL     1       0.683  -1.721  -3.285  0.00  0.00    +0.007 A 
ATOM     22  C   UNL     1       2.001  -1.372  -3.514  0.00  0.00    -0.011 A 
ATOM     23  C   UNL     1       2.670  -0.569  -2.610  0.00  0.00    +0.007 A 
ATOM     24  C   UNL     1       2.021  -0.112  -1.478  0.00  0.00    +0.004 A 
BRANCH  19  26
ATOM     25  C   UNL     1      -0.024   1.559  -0.014  0.00  0.00    +0.015 C 
ATOM     26  C   UNL     1      -0.002   0.029  -0.011  0.00  0.00    -0.013 C 
ATOM     27  C   UNL     1       0.738  -0.467   1.233  0.00  0.00    +0.015 C 
ATOM     28  C   UNL     1      -1.436  -0.502   0.004  0.00  0.00    +0.015 C 
ENDBRANCH  19  26
ENDBRANCH   1  22
TORSDOF 3
