REMARK  Name = ZINC41682604
REMARK  9 active torsions:
REMARK  status: ('A' for Active; 'I' for Inactive)
REMARK    1  A    between atoms: C_1  and  C_2
REMARK    2  A    between atoms: C_2  and  C_4
REMARK    3  A    between atoms: C_4  and  N_5
REMARK    4  A    between atoms: N_10  and  C_13
REMARK    5  A    between atoms: C_13  and  C_14
REMARK    6  A    between atoms: C_14  and  C_16
REMARK    7  A    between atoms: N_17  and  C_18
REMARK    8  A    between atoms: C_21  and  N_24
REMARK    9  A    between atoms: C_27  and  C_29
REMARK                            x       y       z     vdW  Elec       q    Type
REMARK                         _______ _______ _______ _____ _____    ______ ____
ROOT
ATOM      1  N   UNL     1      -2.022  -1.084   1.310  0.00  0.00    -0.253 N 
ATOM      2  C   UNL     1      -1.508  -2.067   2.077  0.00  0.00    +0.297 A 
ATOM      3  O   UNL     1      -0.659  -2.817   1.632  0.00  0.00    -0.264 OA
ATOM      4  C   UNL     1      -1.988  -2.220   3.461  0.00  0.00    +0.209 A 
ATOM      5  N   UNL     1      -2.901  -1.397   3.909  0.00  0.00    -0.146 NA
ATOM      6  N   UNL     1      -3.403  -0.393   3.073  0.00  0.00    -0.209 N 
ATOM      7  C   UNL     1      -2.957  -0.255   1.812  0.00  0.00    +0.349 A 
ATOM      8  O   UNL     1      -3.409   0.630   1.111  0.00  0.00    -0.245 OA
ATOM      9  N   UNL     1      -1.477  -3.227   4.280  0.00  0.00    -0.294 N 
ATOM     10  H   UNL     1      -0.860  -3.881   3.918  0.00  0.00    +0.154 HD
ENDROOT
BRANCH   9  11
ATOM     11  C   UNL     1      -1.854  -3.292   5.625  0.00  0.00    +0.033 A 
ATOM     12  C   UNL     1      -1.951  -4.524   6.261  0.00  0.00    +0.025 A 
ATOM     13  C   UNL     1      -2.323  -4.588   7.588  0.00  0.00    +0.029 A 
ATOM     14  C   UNL     1      -2.602  -3.421   8.288  0.00  0.00    +0.065 A 
ATOM     15  C   UNL     1      -2.505  -2.190   7.653  0.00  0.00    +0.029 A 
ATOM     16  C   UNL     1      -2.128  -2.125   6.327  0.00  0.00    +0.025 A 
BRANCH  14  17
ATOM     17  N   UNL     1      -2.981  -3.487   9.637  0.00  0.00    -0.239 N 
ATOM     18  C   UNL     1      -3.283  -2.435  10.431  0.00  0.00    +0.115 A 
ATOM     19  C   UNL     1      -3.596  -2.919  11.655  0.00  0.00    +0.054 A 
ATOM     20  C   UNL     1      -3.482  -4.312  11.609  0.00  0.00    +0.166 A 
ATOM     21  N   UNL     1      -3.118  -4.654  10.399  0.00  0.00    -0.162 NA
BRANCH  20  22
ATOM     22  C   UNL     1      -3.739  -5.258  12.755  0.00  0.00    +0.436 C 
ATOM     23  F   UNL     1      -5.084  -5.643  12.749  0.00  0.00    -0.164 F 
ATOM     24  F   UNL     1      -2.929  -6.390  12.615  0.00  0.00    -0.164 F 
ATOM     25  F   UNL     1      -3.442  -4.618  13.963  0.00  0.00    -0.164 F 
ENDBRANCH  20  22
ENDBRANCH  14  17
ENDBRANCH   9  11
BRANCH   1  26
ATOM     26  C   UNL     1      -1.559  -0.914  -0.070  0.00  0.00    +0.160 C 
BRANCH  26  28
ATOM     27  C   UNL     1      -0.600   1.513  -0.135  0.00  0.00    +0.040 C 
ATOM     28  C   UNL     1      -0.379   0.023  -0.091  0.00  0.00    -0.060 C 
ATOM     29  C   UNL     1       0.840  -0.458  -0.072  0.00  0.00    +0.009 C 
ENDBRANCH  26  28
ENDBRANCH   1  26
BRANCH   6  30
ATOM     30  C   UNL     1      -4.426   0.524   3.581  0.00  0.00    +0.179 C 
BRANCH  30  31
ATOM     31  C   UNL     1      -5.793  -0.045   3.304  0.00  0.00    -0.058 C 
ATOM     32  C   UNL     1      -6.410  -0.744   4.225  0.00  0.00    +0.009 C 
ATOM     33  C   UNL     1      -6.452   0.191   1.969  0.00  0.00    +0.040 C 
ENDBRANCH  30  31
ENDBRANCH   6  30
TORSDOF 7
