REMARK  Name = ZINC35338120
REMARK  13 active torsions:
REMARK  status: ('A' for Active; 'I' for Inactive)
REMARK    1  A    between atoms: C_1  and  C_2
REMARK    2  A    between atoms: C_2  and  O_3
REMARK    3  A    between atoms: O_3  and  C_4
REMARK    4  A    between atoms: C_4  and  C_5
REMARK    5  A    between atoms: C_5  and  C_6
REMARK    6  A    between atoms: C_6  and  N_7
REMARK    7  A    between atoms: N_7  and  C_8
REMARK    8  A    between atoms: C_8  and  C_9
REMARK    9  A    between atoms: N_11  and  C_12
REMARK   10  A    between atoms: N_11  and  C_26
REMARK   11  A    between atoms: C_12  and  C_13
REMARK   12  A    between atoms: N_17  and  C_18
REMARK   13  A    between atoms: C_18  and  C_19
REMARK                            x       y       z     vdW  Elec       q    Type
REMARK                         _______ _______ _______ _____ _____    ______ ____
ROOT
ATOM      1  C   UNL     1       2.738  -6.101   5.428  0.00  0.00    +0.199 C 
ATOM      2  O   UNL     1       2.239  -5.851   4.351  0.00  0.00    -0.278 OA
ATOM      3  N   UNL     1       3.018  -7.377   5.761  0.00  0.00    -0.294 N 
ENDROOT
BRANCH   3   4
ATOM      4  C   UNL     1       2.832  -8.448   4.779  0.00  0.00    +0.076 C 
ATOM      5  C   UNL     1       3.644  -8.134   3.522  0.00  0.00    +0.022 C 
ATOM      6  C   UNL     1       3.450  -9.253   2.496  0.00  0.00    +0.002 C 
ATOM      7  C   UNL     1       1.968  -9.359   2.132  0.00  0.00    +0.000 C 
ATOM      8  C   UNL     1       1.155  -9.673   3.390  0.00  0.00    +0.002 C 
ATOM      9  C   UNL     1       1.349  -8.555   4.415  0.00  0.00    +0.022 C 
ENDBRANCH   3   4
BRANCH   1  10
ATOM     10  C   UNL     1       3.045  -4.986   6.393  0.00  0.00    +0.015 C 
BRANCH  10  11
ATOM     11  N   UNL     1       2.765  -3.693   5.753  0.00  0.00    +0.385 N 
ATOM     12  H   UNL     1       1.777  -3.620   5.563  0.00  0.00    -0.085 HD
ATOM     13  H   UNL     1       3.280  -3.628   4.888  0.00  0.00    -0.085 HD
BRANCH  11  14
ATOM     14  C   UNL     1       3.173  -2.604   6.651  0.00  0.00    -0.080 C 
BRANCH  14  15
ATOM     15  C   UNL     1       2.770  -1.261   6.038  0.00  0.00    +0.009 C 
BRANCH  15  16
ATOM     16  C   UNL     1       3.083  -0.136   7.026  0.00  0.00    +0.158 C 
BRANCH  16  17
ATOM     17  O   UNL     1       2.707   1.119   6.454  0.00  0.00    -0.380 OA
BRANCH  17  19
ATOM     18  C   UNL     1       2.521   3.524   6.590  0.00  0.00    +0.034 C 
ATOM     19  C   UNL     1       2.959   2.242   7.300  0.00  0.00    +0.156 C 
ENDBRANCH  17  19
ENDBRANCH  16  17
ENDBRANCH  15  16
ENDBRANCH  14  15
ENDBRANCH  11  14
ENDBRANCH  10  11
ENDBRANCH   1  10
BRANCH   3  20
ATOM     20  C   UNL     1       3.508  -7.692   7.105  0.00  0.00    +0.161 C 
BRANCH  20  21
ATOM     21  C   UNL     1       2.337  -7.865   8.039  0.00  0.00    +0.036 A 
ATOM     22  C   UNL     1       1.825  -6.916   8.849  0.00  0.00    +0.024 A 
ATOM     23  C   UNL     1       0.746  -7.494   9.546  0.00  0.00    +0.019 A 
ATOM     24  C   UNL     1       0.639  -8.774   9.136  0.00  0.00    +0.086 A 
ATOM     25  N   UNL     1       1.610  -9.006   8.206  0.00  0.00    -0.345 N 
BRANCH  25  26
ATOM     26  C   UNL     1       1.836 -10.273   7.506  0.00  0.00    +0.156 C 
BRANCH  26  27
ATOM     27  C   UNL     1       2.802 -11.118   8.296  0.00  0.00    -0.028 A 
ATOM     28  C   UNL     1       4.163 -10.979   8.098  0.00  0.00    +0.006 A 
ATOM     29  C   UNL     1       5.049 -11.754   8.822  0.00  0.00    +0.015 A 
ATOM     30  C   UNL     1       4.574 -12.668   9.746  0.00  0.00    +0.018 A 
ATOM     31  C   UNL     1       3.212 -12.806   9.944  0.00  0.00    +0.015 A 
ATOM     32  C   UNL     1       2.327 -12.027   9.223  0.00  0.00    +0.006 A 
ATOM     33 BR   UNL     1       5.787 -13.728  10.737  0.00  0.00    -0.050 Br
ENDBRANCH  26  27
ENDBRANCH  25  26
ENDBRANCH  20  21
ENDBRANCH   3  20
TORSDOF 12
