REMARK  Name = ZINC10066866
REMARK  9 active torsions:
REMARK  status: ('A' for Active; 'I' for Inactive)
REMARK    1  A    between atoms: C_1  and  C_2
REMARK    2  A    between atoms: C_2  and  N_56
REMARK    3  A    between atoms: C_3  and  C_4
REMARK    4  A    between atoms: C_3  and  N_56
REMARK    5  A    between atoms: C_5  and  C_6
REMARK    6  A    between atoms: C_5  and  N_56
REMARK    7  A    between atoms: C_6  and  N_7
REMARK    8  A    between atoms: C_20  and  C_22
REMARK    9  A    between atoms: C_26  and  N_31
REMARK                            x       y       z     vdW  Elec       q    Type
REMARK                         _______ _______ _______ _____ _____    ______ ____
ROOT
ATOM      1  N   UNL     1      -1.968  -6.137   0.525  0.00  0.00    -0.248 N 
ATOM      2  C   UNL     1      -1.049  -5.195   0.093  0.00  0.00    +0.168 A 
ATOM      3  N   UNL     1      -1.127  -3.885   0.143  0.00  0.00    -0.224 NA
ATOM      4  C   UNL     1      -0.145  -3.080  -0.321  0.00  0.00    +0.084 A 
ATOM      5  C   UNL     1      -0.107  -1.667  -0.326  0.00  0.00    +0.078 A 
ATOM      6  C   UNL     1       0.975  -0.990  -0.837  0.00  0.00    +0.168 A 
ATOM      7  C   UNL     1       2.068  -1.681  -1.367  0.00  0.00    +0.167 A 
ATOM      8  C   UNL     1       2.060  -3.064  -1.377  0.00  0.00    +0.066 A 
ATOM      9  C   UNL     1       0.979  -3.740  -0.865  0.00  0.00    +0.044 A 
ATOM     10  S   UNL     1       0.545  -5.452  -0.673  0.00  0.00    -0.052 S 
ATOM     11  O   UNL     1       2.993  -0.776  -1.800  0.00  0.00    -0.453 OA
ATOM     12  C   UNL     1       2.642   0.466  -1.162  0.00  0.00    +0.466 C 
ATOM     13  O   UNL     1       1.224   0.352  -0.944  0.00  0.00    -0.453 OA
ATOM     14  C   UNL     1      -1.702  -7.450   0.386  0.00  0.00    +0.259 C 
ATOM     15  O   UNL     1      -0.684  -7.809  -0.176  0.00  0.00    -0.269 OA
ENDROOT
BRANCH  14  16
ATOM     16  C   UNL     1      -2.640  -8.450   0.913  0.00  0.00    +0.076 A 
ATOM     17  C   UNL     1      -2.487  -9.799   0.990  0.00  0.00    +0.029 A 
ATOM     18  C   UNL     1      -3.511 -10.592   1.538  0.00  0.00    -0.008 A 
ATOM     19  C   UNL     1      -3.537 -12.000   1.708  0.00  0.00    +0.041 A 
ATOM     20  C   UNL     1      -4.617 -12.614   2.255  0.00  0.00    +0.127 A 
ATOM     21  C   UNL     1      -5.733 -11.896   2.667  0.00  0.00    +0.034 A 
ATOM     22  C   UNL     1      -5.750 -10.524   2.520  0.00  0.00    +0.018 A 
ATOM     23  C   UNL     1      -4.661  -9.886   1.967  0.00  0.00    +0.020 A 
ATOM     24  S   UNL     1      -4.266  -8.194   1.603  0.00  0.00    -0.084 S 
BRANCH  20  25
ATOM     25  N   UNL     1      -4.606 -14.086   2.415  0.00  0.00    +0.056 N 
ATOM     26  O   UNL     1      -3.636 -14.730   2.059  0.00  0.00    -0.126 OA
ATOM     27  O   UNL     1      -5.568 -14.652   2.904  0.00  0.00    -0.126 OA
ENDBRANCH  20  25
ENDBRANCH  14  16
BRANCH   1  28
ATOM     28  C   UNL     1      -3.229  -5.705   1.133  0.00  0.00    +0.097 C 
BRANCH  28  29
ATOM     29  C   UNL     1      -4.333  -5.711   0.075  0.00  0.00    -0.059 C 
BRANCH  29  30
ATOM     30  N   UNL     1      -5.602  -5.294   0.708  0.00  0.00    +0.380 N 
ATOM     31  H   UNL     1      -5.761  -5.867   1.546  0.00  0.00    -0.082 HD
BRANCH  30  33
ATOM     32  C   UNL     1      -5.142  -3.001  -0.091  0.00  0.00    -0.017 C 
ATOM     33  C   UNL     1      -5.525  -3.873   1.106  0.00  0.00    -0.082 C 
ENDBRANCH  30  33
BRANCH  30  34
ATOM     34  C   UNL     1      -6.726  -5.496  -0.231  0.00  0.00    -0.082 C 
ATOM     35  C   UNL     1      -8.037  -5.172   0.488  0.00  0.00    -0.017 C 
ENDBRANCH  30  34
ENDBRANCH  29  30
ENDBRANCH  28  29
ENDBRANCH   1  28
TORSDOF 7
