REMARK  Name = ZINC00902287
REMARK  8 active torsions:
REMARK  status: ('A' for Active; 'I' for Inactive)
REMARK    1  A    between atoms: C_1  and  C_2
REMARK    2  A    between atoms: C_2  and  C_3
REMARK    3  A    between atoms: C_8  and  N_9
REMARK    4  A    between atoms: C_10  and  C_12
REMARK    5  A    between atoms: C_12  and  S_13
REMARK    6  A    between atoms: S_13  and  C_14
REMARK    7  A    between atoms: C_16  and  C_24
REMARK    8  A    between atoms: C_18  and  C_20
REMARK                            x       y       z     vdW  Elec       q    Type
REMARK                         _______ _______ _______ _____ _____    ______ ____
ROOT
ATOM      1  C   UNL     1      -1.714   1.434   3.284  0.00  0.00    +0.190 A 
ATOM      2  N   UNL     1      -1.957   2.717   3.505  0.00  0.00    -0.219 NA
ATOM      3  C   UNL     1      -1.575   3.641   2.623  0.00  0.00    +0.111 A 
ATOM      4  C   UNL     1      -0.907   3.234   1.460  0.00  0.00    +0.064 A 
ATOM      5  C   UNL     1      -0.679   1.884   1.271  0.00  0.00    +0.149 A 
ATOM      6  N   UNL     1      -1.087   1.022   2.190  0.00  0.00    -0.218 NA
ENDROOT
BRANCH   3   7
ATOM      7  C   UNL     1      -1.847   5.070   2.869  0.00  0.00    +0.153 A 
ATOM      8  C   UNL     1      -2.485   5.587   3.955  0.00  0.00    +0.051 A 
ATOM      9  C   UNL     1      -2.520   6.982   3.779  0.00  0.00    +0.042 A 
ATOM     10  C   UNL     1      -1.917   7.248   2.602  0.00  0.00    +0.196 A 
ATOM     11  O   UNL     1      -1.512   6.091   2.056  0.00  0.00    -0.461 OA
ENDBRANCH   3   7
BRANCH   5  12
ATOM     12  C   UNL     1       0.031   1.399   0.034  0.00  0.00    +0.434 C 
ATOM     13  F   UNL     1       0.044  -0.000   0.023  0.00  0.00    -0.164 F 
ATOM     14  F   UNL     1       1.346   1.877   0.034  0.00  0.00    -0.164 F 
ATOM     15  F   UNL     1      -0.636   1.868  -1.102  0.00  0.00    -0.164 F 
ENDBRANCH   5  12
BRANCH   1  16
ATOM     16  S   UNL     1      -2.235   0.244   4.474  0.00  0.00    -0.077 S 
BRANCH  16  17
ATOM     17  C   UNL     1      -1.658  -1.274   3.675  0.00  0.00    +0.173 C 
BRANCH  17  19
ATOM     18  N   UNL     1      -1.670  -3.703   4.141  0.00  0.00    -0.285 N 
ATOM     19  C   UNL     1      -2.004  -2.459   4.538  0.00  0.00    +0.227 C 
ATOM     20  O   UNL     1      -2.584  -2.294   5.590  0.00  0.00    -0.275 OA
ATOM     21  H   UNL     1      -1.278  -3.843   3.264  0.00  0.00    +0.155 HD
BRANCH  18  27
ATOM     22  C   UNL     1      -2.039  -6.067   4.466  0.00  0.00    -0.026 A 
ATOM     23  C   UNL     1      -2.254  -7.140   5.310  0.00  0.00    +0.005 A 
ATOM     24  C   UNL     1      -2.315  -6.944   6.677  0.00  0.00    +0.000 A 
ATOM     25  C   UNL     1      -2.163  -5.675   7.205  0.00  0.00    +0.002 A 
ATOM     26  C   UNL     1      -1.944  -4.599   6.367  0.00  0.00    +0.023 A 
ATOM     27  C   UNL     1      -1.887  -4.791   4.993  0.00  0.00    +0.037 A 
BRANCH  22  29
ATOM     28  C   UNL     1      -0.511  -6.440   2.550  0.00  0.00    +0.009 C 
ATOM     29  C   UNL     1      -1.972  -6.281   2.976  0.00  0.00    +0.033 C 
ENDBRANCH  22  29
ENDBRANCH  18  27
ENDBRANCH  17  19
ENDBRANCH  16  17
ENDBRANCH   1  16
TORSDOF 7
