REMARK  Name = ZINC57927540
REMARK  6 active torsions:
REMARK  status: ('A' for Active; 'I' for Inactive)
REMARK    1  A    between atoms: C_1  and  C_2
REMARK    2  A    between atoms: C_2  and  C_3
REMARK    3  A    between atoms: C_8  and  N_9
REMARK    4  A    between atoms: C_10  and  C_12
REMARK    5  A    between atoms: C_12  and  N_13
REMARK    6  A    between atoms: C_21  and  C_25
REMARK                            x       y       z     vdW  Elec       q    Type
REMARK                         _______ _______ _______ _____ _____    ______ ____
ROOT
ATOM      1  C   UNL     1       4.947  -0.219   1.171  0.00  0.00    +0.209 C 
ENDROOT
BRANCH   1   2
ATOM      2  N   UNL     1       6.362  -0.515   0.938  0.00  0.00    -0.259 N 
ATOM      3  C   UNL     1       6.846  -1.808   1.169  0.00  0.00    +0.058 A 
ATOM      4  C   UNL     1       5.975  -2.873   1.329  0.00  0.00    +0.025 A 
ATOM      5  C   UNL     1       6.474  -4.142   1.561  0.00  0.00    +0.002 A 
ATOM      6  C   UNL     1       7.838  -4.354   1.634  0.00  0.00    +0.002 A 
ATOM      7  C   UNL     1       8.716  -3.297   1.473  0.00  0.00    +0.025 A 
ATOM      8  C   UNL     1       8.224  -2.026   1.238  0.00  0.00    +0.049 A 
ATOM      9  N   UNL     1       9.088  -0.936   1.058  0.00  0.00    -0.332 N 
ATOM     10  C   UNL     1       8.632   0.170   0.202  0.00  0.00    +0.154 C 
ATOM     11  C   UNL     1       7.183   0.458   0.498  0.00  0.00    +0.240 C 
ATOM     12  O   UNL     1       6.751   1.581   0.341  0.00  0.00    -0.273 OA
ATOM     13  C   UNL     1       8.782  -0.226  -1.268  0.00  0.00    +0.038 C 
ATOM     14  H   UNL     1       9.958  -0.912   1.485  0.00  0.00    +0.147 HD
ENDBRANCH   1   2
BRANCH   1  16
ATOM     15  N   UNL     1       2.833  -0.268  -0.113  0.00  0.00    -0.284 N 
ATOM     16  C   UNL     1       4.165  -0.474  -0.091  0.00  0.00    +0.235 C 
ATOM     17  O   UNL     1       4.734  -0.865  -1.088  0.00  0.00    -0.274 OA
ATOM     18  H   UNL     1       2.388   0.106   0.663  0.00  0.00    +0.155 HD
BRANCH  15  24
ATOM     19  C   UNL     1       0.800  -1.084  -1.129  0.00  0.00    -0.026 A 
ATOM     20  C   UNL     1       0.070  -1.399  -2.258  0.00  0.00    +0.005 A 
ATOM     21  C   UNL     1       0.627  -1.234  -3.513  0.00  0.00    +0.000 A 
ATOM     22  C   UNL     1       1.917  -0.751  -3.641  0.00  0.00    +0.002 A 
ATOM     23  C   UNL     1       2.652  -0.433  -2.516  0.00  0.00    +0.023 A 
ATOM     24  C   UNL     1       2.093  -0.594  -1.255  0.00  0.00    +0.037 A 
BRANCH  19  26
ATOM     25  C   UNL     1      -0.422   0.058   0.702  0.00  0.00    +0.009 C 
ATOM     26  C   UNL     1       0.191  -1.265   0.238  0.00  0.00    +0.033 C 
ENDBRANCH  19  26
ENDBRANCH  15  24
ENDBRANCH   1  16
TORSDOF 4
