REMARK  Name = ZINC06393616
REMARK  7 active torsions:
REMARK  status: ('A' for Active; 'I' for Inactive)
REMARK    1  A    between atoms: C_6  and  O_11
REMARK    2  A    between atoms: O_11  and  C_12
REMARK    3  A    between atoms: C_12  and  C_13
REMARK    4  A    between atoms: N_15  and  C_16
REMARK    5  A    between atoms: C_16  and  N_18
REMARK    6  A    between atoms: N_18  and  C_19
REMARK    7  A    between atoms: C_21  and  N_25
REMARK                            x       y       z     vdW  Elec       q    Type
REMARK                         _______ _______ _______ _____ _____    ______ ____
ROOT
ATOM      1  C   UNL     1       4.767   1.087   0.438  0.00  0.00    +0.256 C 
ATOM      2  O   UNL     1       4.618  -0.094   0.669  0.00  0.00    -0.272 OA
ATOM      3  N   UNL     1       5.998   1.574   0.183  0.00  0.00    -0.265 N 
ATOM      4  H   UNL     1       6.117   2.519  -0.002  0.00  0.00    +0.157 HD
ENDROOT
BRANCH   3   5
ATOM      5  C   UNL     1       7.063   0.749   0.186  0.00  0.00    +0.141 C 
ATOM      6  S   UNL     1       6.853  -0.919   0.512  0.00  0.00    -0.018 S 
BRANCH   5   7
ATOM      7  N   UNL     1       8.294   1.236  -0.069  0.00  0.00    -0.294 N 
ATOM      8  H   UNL     1       8.405   2.167  -0.315  0.00  0.00    +0.154 HD
BRANCH   7   9
ATOM      9  C   UNL     1       9.412   0.396   0.022  0.00  0.00    +0.082 A 
ATOM     10  C   UNL     1       9.392  -0.856  -0.574  0.00  0.00    +0.059 A 
ATOM     11  C   UNL     1      10.497  -1.681  -0.486  0.00  0.00    +0.128 A 
ATOM     12  C   UNL     1      11.621  -1.264   0.203  0.00  0.00    +0.036 A 
ATOM     13  C   UNL     1      11.647  -0.020   0.804  0.00  0.00    +0.055 A 
ATOM     14  C   UNL     1      10.544   0.815   0.717  0.00  0.00    +0.200 A 
ATOM     15  O   UNL     1      10.567   2.039   1.309  0.00  0.00    -0.286 OA
BRANCH  11  16
ATOM     16  N   UNL     1      10.476  -3.015  -1.127  0.00  0.00    +0.056 N 
ATOM     17  O   UNL     1      11.448  -3.744  -1.047  0.00  0.00    -0.126 OA
ATOM     18  O   UNL     1       9.487  -3.383  -1.735  0.00  0.00    -0.126 OA
ENDBRANCH  11  16
ENDBRANCH   7   9
ENDBRANCH   5   7
ENDBRANCH   3   5
BRANCH   1  19
ATOM     19  C   UNL     1       3.576   2.010   0.436  0.00  0.00    +0.324 C 
BRANCH  19  20
ATOM     20  O   UNL     1       2.394   1.264   0.730  0.00  0.00    -0.483 OA
BRANCH  20  26
ATOM     21  C   UNL     1      -3.518   3.444   1.148  0.00  0.00    +0.001 A 
ATOM     22  C   UNL     1      -3.521   2.072   1.393  0.00  0.00    +0.001 A 
ATOM     23  C   UNL     1      -2.366   1.353   1.364  0.00  0.00    +0.008 A 
ATOM     24  C   UNL     1      -1.151   1.999   1.076  0.00  0.00    -0.014 A 
ATOM     25  C   UNL     1       0.060   1.290   1.043  0.00  0.00    +0.054 A 
ATOM     26  C   UNL     1       1.223   1.952   0.767  0.00  0.00    +0.122 A 
ATOM     27  C   UNL     1       1.223   3.329   0.520  0.00  0.00    +0.046 A 
ATOM     28  C   UNL     1       0.067   4.044   0.550  0.00  0.00    +0.012 A 
ATOM     29  C   UNL     1      -1.148   3.395   0.832  0.00  0.00    -0.018 A 
ATOM     30  C   UNL     1      -2.360   4.104   0.871  0.00  0.00    +0.008 A 
ENDBRANCH  20  26
ENDBRANCH  19  20
ENDBRANCH   1  19
TORSDOF 7
