REMARK  Name = ZINC38547794
REMARK  8 active torsions:
REMARK  status: ('A' for Active; 'I' for Inactive)
REMARK    1  A    between atoms: C_1  and  C_2
REMARK    2  A    between atoms: C_2  and  C_3
REMARK    3  A    between atoms: C_5  and  C_16
REMARK    4  A    between atoms: C_6  and  N_8
REMARK    5  A    between atoms: C_9  and  C_11
REMARK    6  A    between atoms: C_16  and  C_18
REMARK    7  A    between atoms: C_16  and  N_25
REMARK    8  A    between atoms: C_28  and  C_32
REMARK                            x       y       z     vdW  Elec       q    Type
REMARK                         _______ _______ _______ _____ _____    ______ ____
ROOT
ATOM      1  C   UNL     1       3.838  -1.637  -2.899  0.00  0.00    +0.137 C 
ENDROOT
BRANCH   1   2
ATOM      2  N   UNL     1       4.651  -2.058  -1.755  0.00  0.00    -0.320 N 
ATOM      3  C   UNL     1       5.670  -2.987  -1.931  0.00  0.00    +0.097 A 
ATOM      4  C   UNL     1       5.916  -3.509  -3.197  0.00  0.00    +0.045 A 
ATOM      5  C   UNL     1       6.932  -4.433  -3.358  0.00  0.00    -0.046 A 
ATOM      6  C   UNL     1       7.671  -4.806  -2.243  0.00  0.00    +0.021 A 
ATOM      7  C   UNL     1       7.373  -4.248  -1.016  0.00  0.00    +0.084 A 
ATOM      8  N   UNL     1       6.401  -3.364  -0.893  0.00  0.00    -0.350 N 
ATOM      9  C   UNL     1       7.230  -5.023  -4.713  0.00  0.00    +0.044 C 
ATOM     10  H   UNL     1       4.478  -1.688  -0.875  0.00  0.00    +0.148 HD
ATOM     11  H   UNL     1       6.214  -2.984  -0.021  0.00  0.00    +0.166 HD
ENDBRANCH   1   2
BRANCH   1  12
ATOM     12  C   UNL     1       4.537  -0.517  -3.627  0.00  0.00    +0.012 A 
ATOM     13  C   UNL     1       5.426   0.298  -2.951  0.00  0.00    +0.008 A 
ATOM     14  C   UNL     1       6.067   1.325  -3.618  0.00  0.00    +0.001 A 
ATOM     15  C   UNL     1       5.821   1.537  -4.962  0.00  0.00    +0.003 A 
ATOM     16  C   UNL     1       4.934   0.723  -5.640  0.00  0.00    +0.039 A 
ATOM     17  C   UNL     1       4.294  -0.309  -4.974  0.00  0.00    +0.129 A 
ATOM     18  F   UNL     1       3.430  -1.108  -5.636  0.00  0.00    -0.205 F 
ENDBRANCH   1  12
BRANCH   1  21
ATOM     19  C   UNL     1       0.992   0.591  -1.909  0.00  0.00    -0.008 A 
ATOM     20  C   UNL     1       2.209   0.195  -2.352  0.00  0.00    +0.019 A 
ATOM     21  C   UNL     1       2.495  -1.157  -2.411  0.00  0.00    +0.006 A 
ATOM     22  C   UNL     1       1.540  -2.048  -2.022  0.00  0.00    +0.078 A 
ATOM     23  S   UNL     1       0.200  -0.967  -1.548  0.00  0.00    -0.078 S 
BRANCH  22  24
ATOM     24  N   UNL     1       1.598  -3.442  -1.994  0.00  0.00    -0.273 N 
ATOM     25  C   UNL     1       0.500  -4.156  -1.673  0.00  0.00    +0.284 C 
ATOM     26  O   UNL     1      -0.542  -3.584  -1.409  0.00  0.00    -0.266 OA
ATOM     27  H   UNL     1       2.428  -3.898  -2.204  0.00  0.00    +0.156 HD
BRANCH  25  28
ATOM     28  C   UNL     1       0.560  -5.620  -1.644  0.00  0.00    +0.189 A 
ATOM     29  C   UNL     1      -0.474  -6.460  -1.343  0.00  0.00    +0.054 A 
ATOM     30  C   UNL     1       0.027  -7.768  -1.437  0.00  0.00    +0.042 A 
ATOM     31  C   UNL     1       1.329  -7.670  -1.787  0.00  0.00    +0.196 A 
ATOM     32  O   UNL     1       1.645  -6.375  -1.915  0.00  0.00    -0.458 OA
ENDBRANCH  25  28
ENDBRANCH  22  24
BRANCH  19  34
ATOM     33  C   UNL     1      -0.248   2.411  -3.050  0.00  0.00    +0.009 C 
ATOM     34  C   UNL     1       0.449   1.989  -1.755  0.00  0.00    +0.039 C 
ENDBRANCH  19  34
ENDBRANCH   1  21
TORSDOF 6
