REMARK  Name = ZINC08918306
REMARK  11 active torsions:
REMARK  status: ('A' for Active; 'I' for Inactive)
REMARK    1  A    between atoms: C_1  and  C_2
REMARK    2  A    between atoms: C_2  and  C_3
REMARK    3  A    between atoms: C_3  and  C_4
REMARK    4  A    between atoms: C_4  and  C_5
REMARK    5  A    between atoms: C_5  and  C_7
REMARK    6  A    between atoms: C_5  and  C_9
REMARK    7  A    between atoms: C_7  and  C_8
REMARK    8  A    between atoms: C_9  and  N_10
REMARK    9  A    between atoms: C_11  and  C_13
REMARK   10  A    between atoms: C_17  and  N_19
REMARK   11  A    between atoms: C_22  and  C_38
REMARK                            x       y       z     vdW  Elec       q    Type
REMARK                         _______ _______ _______ _____ _____    ______ ____
ROOT
ATOM      1  N   UNL     1       8.019   0.210   3.256  0.00  0.00    -0.192 N 
ATOM      2  C   UNL     1       7.894  -0.693   4.253  0.00  0.00    +0.257 C 
ATOM      3  O   UNL     1       6.903  -1.325   4.550  0.00  0.00    -0.272 OA
ATOM      4  C   UNL     1       9.248  -0.748   4.921  0.00  0.00    +0.153 C 
ATOM      5  C   UNL     1       9.154  -0.431   6.394  0.00  0.00    +0.053 A 
ATOM      6  C   UNL     1       9.873   0.574   6.968  0.00  0.00    -0.015 A 
ATOM      7  C   UNL     1       9.528   0.565   8.379  0.00  0.00    +0.003 A 
ATOM      8  C   UNL     1       9.956   1.344   9.459  0.00  0.00    +0.010 A 
ATOM      9  C   UNL     1       9.407   1.058  10.684  0.00  0.00    +0.001 A 
ATOM     10  C   UNL     1       8.474   0.048  10.855  0.00  0.00    +0.002 A 
ATOM     11  C   UNL     1       8.036  -0.739   9.805  0.00  0.00    +0.026 A 
ATOM     12  C   UNL     1       8.576  -0.471   8.549  0.00  0.00    +0.047 A 
ATOM     13  N   UNL     1       8.373  -1.040   7.324  0.00  0.00    -0.356 N 
ATOM     14  H   UNL     1       7.766  -1.774   7.144  0.00  0.00    +0.166 HD
ATOM     15  C   UNL     1      10.836   1.502   6.273  0.00  0.00    +0.056 C 
ATOM     16  C   UNL     1      11.184   0.961   4.878  0.00  0.00    +0.115 C 
ATOM     17  N   UNL     1       9.963   0.394   4.303  0.00  0.00    -0.265 N 
ATOM     18  C   UNL     1       9.235   0.780   3.255  0.00  0.00    +0.317 C 
ATOM     19  O   UNL     1       9.624   1.555   2.403  0.00  0.00    -0.252 OA
ATOM     20  C   UNL     1       9.957  -2.080   4.667  0.00  0.00    +0.048 C 
ENDROOT
BRANCH   1  25
ATOM     21  C   UNL     1       4.744   0.253   1.559  0.00  0.00    +0.038 A 
ATOM     22  C   UNL     1       5.016   1.114   0.494  0.00  0.00    +0.013 A 
ATOM     23  C   UNL     1       6.271   1.672   0.362  0.00  0.00    +0.003 A 
ATOM     24  C   UNL     1       7.266   1.372   1.275  0.00  0.00    +0.024 A 
ATOM     25  C   UNL     1       7.007   0.511   2.334  0.00  0.00    +0.046 A 
ATOM     26  C   UNL     1       5.748  -0.050   2.479  0.00  0.00    +0.037 A 
BRANCH  21  28
ATOM     27  N   UNL     1       2.431  -0.048   0.817  0.00  0.00    -0.311 N 
ATOM     28  C   UNL     1       3.399  -0.342   1.707  0.00  0.00    +0.244 C 
ATOM     29  O   UNL     1       3.166  -1.095   2.632  0.00  0.00    -0.270 OA
ATOM     30  H   UNL     1       2.617   0.553   0.079  0.00  0.00    +0.149 HD
BRANCH  27  31
ATOM     31  C   UNL     1       1.097  -0.637   0.963  0.00  0.00    +0.108 C 
BRANCH  31  32
ATOM     32  C   UNL     1       0.160  -0.046  -0.091  0.00  0.00    +0.006 C 
BRANCH  32  33
ATOM     33  C   UNL     1      -0.014   1.453   0.163  0.00  0.00    +0.002 C 
ATOM     34  C   UNL     1      -0.685   1.665   1.521  0.00  0.00    +0.004 C 
ENDBRANCH  32  33
BRANCH  32  35
ATOM     35  C   UNL     1      -1.202  -0.738  -0.009  0.00  0.00    +0.005 C 
BRANCH  35  36
ATOM     36  C   UNL     1      -2.099  -0.236  -1.142  0.00  0.00    +0.000 C 
BRANCH  36  38
ATOM     37  C   UNL     1      -4.358  -0.427  -2.193  0.00  0.00    +0.004 C 
ATOM     38  C   UNL     1      -3.461  -0.928  -1.060  0.00  0.00    -0.003 C 
ENDBRANCH  36  38
ENDBRANCH  35  36
ENDBRANCH  32  35
ENDBRANCH  31  32
ENDBRANCH  27  31
ENDBRANCH  21  28
ENDBRANCH   1  25
TORSDOF 8
