REMARK  Name = ZINC36281058
REMARK  7 active torsions:
REMARK  status: ('A' for Active; 'I' for Inactive)
REMARK    1  A    between atoms: C_1  and  C_2
REMARK    2  A    between atoms: C_2  and  C_3
REMARK    3  A    between atoms: C_3  and  C_31
REMARK    4  A    between atoms: N_6  and  C_10
REMARK    5  A    between atoms: C_10  and  C_11
REMARK    6  A    between atoms: C_16  and  C_19
REMARK    7  A    between atoms: C_22  and  C_25
REMARK                            x       y       z     vdW  Elec       q    Type
REMARK                         _______ _______ _______ _____ _____    ______ ____
ROOT
ATOM      1  C   UNL     1       4.250   0.572  -3.732  0.00  0.00    +0.237 C 
ATOM      2  O   UNL     1       3.851  -0.544  -3.988  0.00  0.00    -0.274 OA
ATOM      3  N   UNL     1       5.416   1.006  -4.250  0.00  0.00    -0.263 N 
ATOM      4  C   UNL     1       6.161   0.175  -5.078  0.00  0.00    +0.165 A 
ATOM      5  N   UNL     1       7.316   0.407  -5.673  0.00  0.00    -0.225 NA
ATOM      6  C   UNL     1       7.892  -0.509  -6.437  0.00  0.00    +0.080 A 
ATOM      7  C   UNL     1       7.279  -1.719  -6.612  0.00  0.00    +0.076 A 
ATOM      8  S   UNL     1       5.813  -1.495  -5.612  0.00  0.00    -0.060 S 
ATOM      9  H   UNL     1       5.735   1.899  -4.045  0.00  0.00    +0.157 HD
ENDROOT
BRANCH   6  10
ATOM     10  C   UNL     1       9.190  -0.226  -7.096  0.00  0.00    +0.001 A 
ATOM     11  C   UNL     1       9.788  -1.194  -7.903  0.00  0.00    +0.010 A 
ATOM     12  C   UNL     1      10.993  -0.930  -8.515  0.00  0.00    +0.009 A 
ATOM     13  C   UNL     1      11.616   0.303  -8.327  0.00  0.00    -0.018 A 
ATOM     14  C   UNL     1      11.018   1.270  -7.519  0.00  0.00    +0.009 A 
ATOM     15  C   UNL     1       9.810   1.010  -6.912  0.00  0.00    +0.010 A 
BRANCH  13  16
ATOM     16  C   UNL     1      12.914   0.587  -8.986  0.00  0.00    -0.018 A 
ATOM     17  C   UNL     1      13.511  -0.376  -9.798  0.00  0.00    +0.008 A 
ATOM     18  C   UNL     1      14.719  -0.107 -10.409  0.00  0.00    +0.001 A 
ATOM     19  C   UNL     1      15.338   1.115 -10.216  0.00  0.00    +0.000 A 
ATOM     20  C   UNL     1      14.750   2.074  -9.410  0.00  0.00    +0.001 A 
ATOM     21  C   UNL     1      13.539   1.819  -8.800  0.00  0.00    +0.008 A 
ENDBRANCH  13  16
ENDBRANCH   6  10
BRANCH   1  22
ATOM     22  C   UNL     1       3.442   1.474  -2.834  0.00  0.00    +0.214 C 
BRANCH  22  26
ATOM     23  C   UNL     1       0.718  -0.497  -1.257  0.00  0.00    +0.138 C 
ATOM     24  C   UNL     1       2.144   0.016  -1.295  0.00  0.00    +0.251 C 
ATOM     25  O   UNL     1       3.025  -0.210  -0.494  0.00  0.00    -0.272 OA
ATOM     26  N   UNL     1       2.228   0.775  -2.405  0.00  0.00    -0.215 N 
ATOM     27  C   UNL     1       1.066   0.812  -3.067  0.00  0.00    +0.310 C 
ATOM     28  O   UNL     1       0.895   1.432  -4.099  0.00  0.00    -0.252 OA
ATOM     29  N   UNL     1       0.107   0.087  -2.463  0.00  0.00    -0.281 N 
ATOM     30  H   UNL     1      -0.807  -0.029  -2.764  0.00  0.00    +0.152 HD
BRANCH  23  31
ATOM     31  C   UNL     1       0.691  -2.003  -1.325  0.00  0.00    -0.015 A 
ATOM     32  C   UNL     1       0.664  -2.747  -0.160  0.00  0.00    +0.006 A 
ATOM     33  C   UNL     1       0.639  -4.128  -0.222  0.00  0.00    +0.000 A 
ATOM     34  C   UNL     1       0.641  -4.764  -1.449  0.00  0.00    +0.000 A 
ATOM     35  C   UNL     1       0.667  -4.020  -2.614  0.00  0.00    +0.000 A 
ATOM     36  C   UNL     1       0.688  -2.639  -2.552  0.00  0.00    +0.006 A 
ENDBRANCH  23  31
BRANCH  23  38
ATOM     37  C   UNL     1      -0.019   1.526   0.010  0.00  0.00    +0.007 C 
ATOM     38  C   UNL     1       0.002  -0.004   0.002  0.00  0.00    +0.037 C 
ENDBRANCH  23  38
ENDBRANCH  22  26
ENDBRANCH   1  22
TORSDOF 6
