REMARK  Name = ZINC24032062
REMARK  11 active torsions:
REMARK  status: ('A' for Active; 'I' for Inactive)
REMARK    1  A    between atoms: C_1  and  C_2
REMARK    2  A    between atoms: C_2  and  C_3
REMARK    3  A    between atoms: C_3  and  N_4
REMARK    4  A    between atoms: C_13  and  S_14
REMARK    5  A    between atoms: S_14  and  C_15
REMARK    6  A    between atoms: C_15  and  C_16
REMARK    7  A    between atoms: C_17  and  C_29
REMARK    8  A    between atoms: C_18  and  C_24
REMARK    9  A    between atoms: C_29  and  O_31
REMARK   10  A    between atoms: O_31  and  C_32
REMARK   11  A    between atoms: C_32  and  C_33
REMARK                            x       y       z     vdW  Elec       q    Type
REMARK                         _______ _______ _______ _____ _____    ______ ____
ROOT
ATOM      1  C   UNL     1       3.194   6.849  -0.011  0.00  0.00    +0.034 C 
ATOM      2  C   UNL     1       3.502   7.529   1.114  0.00  0.00    +0.082 C 
ATOM      3  C   UNL     1       4.729   8.418   1.088  0.00  0.00    +0.179 C 
ATOM      4  N   UNL     1       5.485   8.475  -0.175  0.00  0.00    -0.285 N 
ATOM      5  C   UNL     1       5.048   7.740  -1.217  0.00  0.00    +0.304 C 
ATOM      6  O   UNL     1       5.665   7.780  -2.264  0.00  0.00    -0.252 OA
ATOM      7  N   UNL     1       3.958   6.967  -1.137  0.00  0.00    -0.272 N 
ATOM      8  H   UNL     1       6.382   9.107  -0.251  0.00  0.00    +0.151 HD
ATOM      9  H   UNL     1       3.688   6.409  -2.046  0.00  0.00    +0.156 HD
ENDROOT
BRANCH   3  10
ATOM     10  C   UNL     1       5.668   7.952   2.170  0.00  0.00    +0.130 A 
ATOM     11  C   UNL     1       5.714   8.424   3.429  0.00  0.00    +0.047 A 
ATOM     12  C   UNL     1       6.735   7.709   4.098  0.00  0.00    +0.041 A 
ATOM     13  C   UNL     1       7.252   6.843   3.207  0.00  0.00    +0.195 A 
ATOM     14  O   UNL     1       6.598   6.990   2.043  0.00  0.00    -0.466 OA
ENDBRANCH   3  10
BRANCH   2  15
ATOM     15  C   UNL     1       2.709   7.412   2.279  0.00  0.00    +0.339 C 
ATOM     16  O   UNL     1       1.818   6.584   2.329  0.00  0.00    -0.245 OA
BRANCH  15  17
ATOM     17  O   UNL     1       2.939   8.219   3.336  0.00  0.00    -0.462 OA
BRANCH  17  18
ATOM     18  C   UNL     1       2.100   8.046   4.480  0.00  0.00    +0.229 C 
ATOM     19  C   UNL     1       2.508   9.041   5.567  0.00  0.00    +0.048 C 
ENDBRANCH  17  18
ENDBRANCH  15  17
ENDBRANCH   2  15
BRANCH   1  20
ATOM     20  C   UNL     1       1.985   5.950  -0.027  0.00  0.00    +0.128 C 
BRANCH  20  21
ATOM     21  S   UNL     1       2.505   4.234   0.220  0.00  0.00    -0.082 S 
BRANCH  21  31
ATOM     22  N   UNL     1       0.875   2.073   0.308  0.00  0.00    -0.287 N 
ATOM     23  C   UNL     1      -0.302   1.421   0.267  0.00  0.00    +0.263 A 
ATOM     24  O   UNL     1      -0.345   0.211   0.401  0.00  0.00    -0.267 OA
ATOM     25  C   UNL     1      -1.502   2.172   0.058  0.00  0.00    +0.076 A 
ATOM     26  C   UNL     1      -2.883   1.669  -0.016  0.00  0.00    -0.023 A 
ATOM     27  C   UNL     1      -3.851   2.579  -0.211  0.00  0.00    -0.004 A 
ATOM     28  S   UNL     1      -3.004   4.139  -0.304  0.00  0.00    -0.073 S 
ATOM     29  C   UNL     1      -1.344   3.559  -0.078  0.00  0.00    +0.117 A 
ATOM     30  N   UNL     1      -0.152   4.142  -0.029  0.00  0.00    -0.216 NA
ATOM     31  C   UNL     1       0.940   3.428   0.159  0.00  0.00    +0.173 A 
ATOM     32  C   UNL     1      -5.218   1.951  -0.270  0.00  0.00    +0.043 C 
ATOM     33  C   UNL     1      -5.027   0.549   0.349  0.00  0.00    +0.010 C 
ATOM     34  C   UNL     1      -3.534   0.285   0.073  0.00  0.00    +0.037 C 
BRANCH  22  35
ATOM     35  C   UNL     1       2.110   1.313   0.516  0.00  0.00    +0.127 C 
BRANCH  35  37
ATOM     36  C   UNL     1       3.970   0.091  -0.620  0.00  0.00    +0.005 C 
ATOM     37  C   UNL     1       2.680   0.885  -0.838  0.00  0.00    +0.018 C 
ENDBRANCH  35  37
ENDBRANCH  22  35
ENDBRANCH  21  31
ENDBRANCH  20  21
ENDBRANCH   1  20
TORSDOF 9
