REMARK  Name = ZINC63708610
REMARK  9 active torsions:
REMARK  status: ('A' for Active; 'I' for Inactive)
REMARK    1  A    between atoms: C_7  and  C_10
REMARK    2  A    between atoms: C_10  and  C_11
REMARK    3  A    between atoms: C_11  and  N_12
REMARK    4  A    between atoms: C_13  and  C_15
REMARK    5  A    between atoms: C_15  and  C_16
REMARK    6  A    between atoms: C_16  and  C_17
REMARK    7  A    between atoms: C_17  and  C_18
REMARK    8  A    between atoms: C_18  and  C_19
REMARK    9  A    between atoms: C_19  and  N_20
REMARK                            x       y       z     vdW  Elec       q    Type
REMARK                         _______ _______ _______ _____ _____    ______ ____
ROOT
ATOM      1  C   UNL     1      -1.752  -6.557  -2.622  0.00  0.00    +0.096 C 
ENDROOT
BRANCH   1   3
ATOM      2  N   UNL     1      -0.458  -4.798  -1.460  0.00  0.00    -0.315 N 
ATOM      3  C   UNL     1      -0.811  -5.380  -2.623  0.00  0.00    +0.213 C 
ATOM      4  O   UNL     1      -0.371  -4.957  -3.671  0.00  0.00    -0.276 OA
ATOM      5  H   UNL     1      -0.810  -5.136  -0.622  0.00  0.00    +0.149 HD
BRANCH   2   6
ATOM      6  C   UNL     1       0.457  -3.653  -1.462  0.00  0.00    +0.108 C 
BRANCH   6   7
ATOM      7  C   UNL     1       0.691  -3.186  -0.024  0.00  0.00    +0.052 C 
BRANCH   7  14
ATOM      8  C   UNL     1      -0.016   1.348   0.009  0.00  0.00    +0.001 A 
ATOM      9  C   UNL     1       1.166   2.101   0.002  0.00  0.00    +0.002 A 
ATOM     10  C   UNL     1       2.391   1.535  -0.013  0.00  0.00    +0.026 A 
ATOM     11  C   UNL     1       2.529   0.120  -0.022  0.00  0.00    +0.043 A 
ATOM     12  N   UNL     1       3.587  -0.654  -0.037  0.00  0.00    -0.380 N 
ATOM     13  C   UNL     1       3.143  -2.053  -0.041  0.00  0.00    +0.144 C 
ATOM     14  C   UNL     1       1.631  -2.008  -0.025  0.00  0.00    -0.040 C 
ATOM     15  C   UNL     1       1.295  -0.698  -0.014  0.00  0.00    -0.001 A 
ATOM     16  C   UNL     1       0.002  -0.004   0.002  0.00  0.00    +0.010 A 
ATOM     17  H   UNL     1       4.509  -0.353  -0.045  0.00  0.00    +0.160 HD
ENDBRANCH   7  14
ENDBRANCH   6   7
ENDBRANCH   2   6
ENDBRANCH   1   3
BRANCH   1  18
ATOM     18  C   UNL     1      -1.986  -7.025  -4.059  0.00  0.00    +0.009 C 
BRANCH  18  19
ATOM     19  C   UNL     1      -2.941  -8.220  -4.058  0.00  0.00    +0.002 C 
BRANCH  19  20
ATOM     20  C   UNL     1      -3.175  -8.688  -5.496  0.00  0.00    +0.019 C 
BRANCH  20  21
ATOM     21  C   UNL     1      -4.130  -9.883  -5.494  0.00  0.00    +0.115 C 
BRANCH  21  22
ATOM     22  N   UNL     1      -4.355 -10.331  -6.871  0.00  0.00    -0.251 N 
ATOM     23  C   UNL     1      -5.366  -9.801  -7.588  0.00  0.00    +0.234 C 
ATOM     24  O   UNL     1      -6.169  -9.064  -7.056  0.00  0.00    -0.274 OA
ATOM     25  C   UNL     1      -5.492 -10.128  -9.045  0.00  0.00    +0.145 C 
ATOM     26  C   UNL     1      -6.920 -10.206  -9.487  0.00  0.00    +0.007 C 
ATOM     27  C   UNL     1      -7.306 -11.080 -10.420  0.00  0.00    +0.015 C 
ATOM     28  C   UNL     1      -6.392 -11.987 -11.007  0.00  0.00    +0.016 C 
ATOM     29  C   UNL     1      -5.151 -12.159 -10.483  0.00  0.00    +0.023 C 
ATOM     30  C   UNL     1      -4.777 -11.409  -9.363  0.00  0.00    +0.049 C 
ATOM     31  N   UNL     1      -3.826 -11.853  -8.572  0.00  0.00    -0.196 NA
ATOM     32  C   UNL     1      -3.546 -11.261  -7.406  0.00  0.00    +0.163 C 
ATOM     33  S   UNL     1      -2.121 -11.705  -6.568  0.00  0.00    -0.016 S 
ATOM     34 BR   UNL     1      -9.115 -11.106 -10.969  0.00  0.00    -0.051 Br
ENDBRANCH  21  22
ENDBRANCH  20  21
ENDBRANCH  19  20
ENDBRANCH  18  19
ENDBRANCH   1  18
TORSDOF 9
