REMARK  Name = ZINC40111199
REMARK  9 active torsions:
REMARK  status: ('A' for Active; 'I' for Inactive)
REMARK    1  A    between atoms: C_1  and  C_2
REMARK    2  A    between atoms: C_2  and  C_3
REMARK    3  A    between atoms: C_3  and  C_4
REMARK    4  A    between atoms: C_4  and  N_5
REMARK    5  A    between atoms: C_6  and  C_30
REMARK    6  A    between atoms: C_8  and  C_13
REMARK    7  A    between atoms: C_13  and  C_15
REMARK    8  A    between atoms: C_18  and  S_21
REMARK    9  A    between atoms: S_21  and  N_24
REMARK                            x       y       z     vdW  Elec       q    Type
REMARK                         _______ _______ _______ _____ _____    ______ ____
ROOT
ATOM      1  N   UNL     1       1.851  -2.345   2.098  0.00  0.00    -0.284 N 
ATOM      2  C   UNL     1       3.201  -2.360   2.674  0.00  0.00    +0.145 C 
ATOM      3  C   UNL     1       3.072  -3.005   4.034  0.00  0.00    +0.076 C 
ATOM      4  C   UNL     1       1.765  -3.319   4.195  0.00  0.00    +0.249 C 
ATOM      5  C   UNL     1       1.014  -2.902   2.992  0.00  0.00    +0.288 C 
ATOM      6  O   UNL     1      -0.182  -3.042   2.833  0.00  0.00    -0.266 OA
ATOM      7  O   UNL     1       1.231  -3.916   5.285  0.00  0.00    -0.282 OA
ENDROOT
BRANCH   2   8
ATOM      8  C   UNL     1       3.719  -0.951   2.814  0.00  0.00    -0.022 A 
ATOM      9  C   UNL     1       2.930   0.020   3.402  0.00  0.00    +0.007 A 
ATOM     10  C   UNL     1       3.405   1.312   3.530  0.00  0.00    +0.020 A 
ATOM     11  C   UNL     1       4.670   1.632   3.071  0.00  0.00    +0.041 A 
ATOM     12  C   UNL     1       5.459   0.660   2.483  0.00  0.00    +0.020 A 
ATOM     13  C   UNL     1       4.986  -0.633   2.360  0.00  0.00    +0.007 A 
ATOM     14 CL   UNL     1       5.267   3.254   3.232  0.00  0.00    -0.084 Cl
ENDBRANCH   2   8
BRANCH   3  15
ATOM     15  C   UNL     1       4.153  -3.244   4.994  0.00  0.00    +0.195 C 
ATOM     16  O   UNL     1       4.159  -2.661   6.062  0.00  0.00    -0.287 OA
BRANCH  15  17
ATOM     17  C   UNL     1       5.238  -4.193   4.665  0.00  0.00    +0.022 A 
ATOM     18  C   UNL     1       5.209  -4.901   3.461  0.00  0.00    +0.013 A 
ATOM     19  C   UNL     1       6.224  -5.785   3.160  0.00  0.00    +0.029 A 
ATOM     20  C   UNL     1       7.270  -5.971   4.048  0.00  0.00    +0.106 A 
ATOM     21  C   UNL     1       7.304  -5.274   5.242  0.00  0.00    +0.029 A 
ATOM     22  C   UNL     1       6.299  -4.382   5.553  0.00  0.00    +0.013 A 
BRANCH  20  23
ATOM     23  S   UNL     1       8.562  -7.103   3.655  0.00  0.00    +0.061 S 
ATOM     24  O   UNL     1       9.139  -7.504   4.890  0.00  0.00    -0.153 OA
ATOM     25  O   UNL     1       8.019  -8.034   2.729  0.00  0.00    -0.153 OA
BRANCH  23  26
ATOM     26  N   UNL     1       9.727  -6.252   2.842  0.00  0.00    -0.177 NA
ATOM     27  C   UNL     1       9.682  -6.132   1.378  0.00  0.00    +0.109 C 
ATOM     28  C   UNL     1       9.746  -4.648   1.003  0.00  0.00    +0.017 C 
ATOM     29  C   UNL     1      10.982  -4.016   1.648  0.00  0.00    +0.003 C 
ATOM     30  C   UNL     1      10.878  -4.125   3.171  0.00  0.00    +0.017 C 
ATOM     31  C   UNL     1      10.823  -5.598   3.571  0.00  0.00    +0.109 C 
ENDBRANCH  23  26
ENDBRANCH  20  23
ENDBRANCH  15  17
ENDBRANCH   3  15
BRANCH   1  32
ATOM     32  C   UNL     1       1.480  -1.813   0.784  0.00  0.00    +0.109 C 
BRANCH  32  33
ATOM     33  C   UNL     1       1.119  -0.333   0.917  0.00  0.00    +0.019 C 
BRANCH  33  35
ATOM     34  C   UNL     1       0.370   1.704  -0.322  0.00  0.00    +0.004 C 
ATOM     35  C   UNL     1       0.731   0.223  -0.455  0.00  0.00    -0.002 C 
ENDBRANCH  33  35
ENDBRANCH  32  33
ENDBRANCH   1  32
TORSDOF 8
