REMARK  Name = ZINC46427748
REMARK  11 active torsions:
REMARK  status: ('A' for Active; 'I' for Inactive)
REMARK    1  A    between atoms: C_1  and  C_2
REMARK    2  A    between atoms: C_5  and  C_32
REMARK    3  A    between atoms: N_8  and  C_10
REMARK    4  A    between atoms: C_10  and  C_11
REMARK    5  A    between atoms: C_11  and  C_12
REMARK    6  A    between atoms: C_12  and  N_13
REMARK    7  A    between atoms: N_16  and  C_17
REMARK    8  A    between atoms: N_16  and  C_18
REMARK    9  A    between atoms: C_18  and  C_20
REMARK   10  A    between atoms: C_18  and  C_21
REMARK   11  A    between atoms: C_24  and  N_27
REMARK                            x       y       z     vdW  Elec       q    Type
REMARK                         _______ _______ _______ _____ _____    ______ ____
ROOT
ATOM      1  N   UNL     1       5.198  -2.099   3.301  0.00  0.00    -0.299 N 
ATOM      2  C   UNL     1       6.101  -2.428   4.246  0.00  0.00    +0.302 C 
ATOM      3  O   UNL     1       5.752  -3.051   5.230  0.00  0.00    -0.253 OA
ATOM      4  N   UNL     1       7.391  -2.065   4.100  0.00  0.00    -0.282 N 
ATOM      5  C   UNL     1       7.811  -1.315   2.914  0.00  0.00    +0.134 C 
ATOM      6  H   UNL     1       5.476  -1.602   2.515  0.00  0.00    +0.150 HD
ENDROOT
BRANCH   4   7
ATOM      7  C   UNL     1       8.372  -2.422   5.127  0.00  0.00    +0.104 C 
ATOM      8  C   UNL     1       9.542  -3.165   4.479  0.00  0.00    +0.033 C 
BRANCH   7   9
ATOM      9  C   UNL     1       8.880  -1.169   5.794  0.00  0.00    -0.027 A 
ATOM     10  C   UNL     1       8.811  -1.043   7.169  0.00  0.00    +0.007 A 
ATOM     11  C   UNL     1       9.275   0.104   7.782  0.00  0.00    +0.028 A 
ATOM     12  C   UNL     1       9.813   1.130   7.017  0.00  0.00    +0.067 A 
ATOM     13  C   UNL     1       9.881   1.000   5.636  0.00  0.00    +0.028 A 
ATOM     14  C   UNL     1       9.419  -0.151   5.029  0.00  0.00    +0.007 A 
BRANCH  12  15
ATOM     15  N   UNL     1      10.285   2.296   7.637  0.00  0.00    -0.220 N 
ATOM     16  C   UNL     1      10.824   3.372   7.031  0.00  0.00    +0.225 A 
ATOM     17  N   UNL     1      11.137   4.243   7.955  0.00  0.00    -0.222 NA
ATOM     18  C   UNL     1      10.815   3.764   9.156  0.00  0.00    +0.245 A 
ATOM     19  N   UNL     1      10.285   2.577   9.013  0.00  0.00    -0.154 NA
ENDBRANCH  12  15
ENDBRANCH   7   9
ENDBRANCH   4   7
BRANCH   1  20
ATOM     20  C   UNL     1       3.796  -2.493   3.459  0.00  0.00    +0.104 C 
BRANCH  20  21
ATOM     21  C   UNL     1       2.988  -2.001   2.256  0.00  0.00    +0.000 C 
BRANCH  21  22
ATOM     22  C   UNL     1       1.524  -2.412   2.421  0.00  0.00    -0.077 C 
BRANCH  22  28
ATOM     23  C   UNL     1       0.011   1.555  -0.015  0.00  0.00    +0.005 C 
ATOM     24  C   UNL     1       0.012   0.025   0.002  0.00  0.00    -0.031 C 
ATOM     25  C   UNL     1      -1.431  -0.486   0.031  0.00  0.00    +0.003 C 
ATOM     26  C   UNL     1      -1.418  -2.015   0.126  0.00  0.00    -0.031 C 
ATOM     27  C   UNL     1      -0.628  -2.437   1.367  0.00  0.00    -0.076 C 
ATOM     28  N   UNL     1       0.749  -1.940   1.266  0.00  0.00    +0.380 N 
ATOM     29  C   UNL     1       0.750  -0.472   1.246  0.00  0.00    -0.076 C 
ATOM     30  C   UNL     1      -2.854  -2.532   0.234  0.00  0.00    +0.005 C 
ATOM     31  H   UNL     1       1.170  -2.286   0.417  0.00  0.00    -0.082 HD
ENDBRANCH  22  28
ENDBRANCH  21  22
ENDBRANCH  20  21
ENDBRANCH   1  20
TORSDOF 7
