REMARK  Name = ZINC46721534
REMARK  10 active torsions:
REMARK  status: ('A' for Active; 'I' for Inactive)
REMARK    1  A    between atoms: C_1  and  C_2
REMARK    2  A    between atoms: C_2  and  C_4
REMARK    3  A    between atoms: C_2  and  N_17
REMARK    4  A    between atoms: N_6  and  C_7
REMARK    5  A    between atoms: C_10  and  S_13
REMARK    6  A    between atoms: S_13  and  N_16
REMARK    7  A    between atoms: N_17  and  C_18
REMARK    8  A    between atoms: N_17  and  C_19
REMARK    9  A    between atoms: C_19  and  C_20
REMARK   10  A    between atoms: C_23  and  C_26
REMARK                            x       y       z     vdW  Elec       q    Type
REMARK                         _______ _______ _______ _____ _____    ______ ____
ROOT
ATOM      1  C   UNL     1       0.649   1.114  -0.479  0.00  0.00    -0.004 C 
ATOM      2  C   UNL     1      -0.041  -0.155   0.026  0.00  0.00    +0.016 C 
ENDROOT
BRANCH   2   3
ATOM      3  C   UNL     1       0.680  -0.667   1.246  0.00  0.00    +0.203 C 
ATOM      4  O   UNL     1       1.543  -1.512   1.130  0.00  0.00    -0.277 OA
ATOM      5  N   UNL     1       0.367  -0.187   2.466  0.00  0.00    -0.287 N 
ATOM      6  H   UNL     1      -0.365   0.441   2.566  0.00  0.00    +0.155 HD
BRANCH   5   7
ATOM      7  C   UNL     1       1.099  -0.594   3.587  0.00  0.00    +0.033 A 
ATOM      8  C   UNL     1       2.448  -0.900   3.464  0.00  0.00    +0.025 A 
ATOM      9  C   UNL     1       3.168  -1.301   4.572  0.00  0.00    +0.030 A 
ATOM     10  C   UNL     1       2.546  -1.399   5.803  0.00  0.00    +0.105 A 
ATOM     11  C   UNL     1       1.202  -1.096   5.929  0.00  0.00    +0.030 A 
ATOM     12  C   UNL     1       0.479  -0.688   4.826  0.00  0.00    +0.025 A 
BRANCH  10  13
ATOM     13  S   UNL     1       3.467  -1.912   7.215  0.00  0.00    +0.056 S 
ATOM     14  O   UNL     1       2.530  -2.449   8.139  0.00  0.00    -0.153 OA
ATOM     15  O   UNL     1       4.572  -2.662   6.729  0.00  0.00    -0.153 OA
BRANCH  13  16
ATOM     16  N   UNL     1       4.093  -0.547   7.914  0.00  0.00    -0.204 NA
ATOM     17  H   UNL     1       3.914   0.323   7.524  0.00  0.00    +0.144 HD
ATOM     18  H   UNL     1       4.637  -0.618   8.713  0.00  0.00    +0.144 HD
ENDBRANCH  13  16
ENDBRANCH  10  13
ENDBRANCH   5   7
ENDBRANCH   2   3
BRANCH   2  19
ATOM     19  N   UNL     1      -0.013  -1.179  -1.026  0.00  0.00    +0.388 N 
ATOM     20  C   UNL     1      -0.756  -2.364  -0.576  0.00  0.00    -0.095 C 
ATOM     21  H   UNL     1       0.943  -1.436  -1.221  0.00  0.00    -0.081 HD
BRANCH  19  22
ATOM     22  C   UNL     1      -0.635  -0.646  -2.245  0.00  0.00    -0.042 C 
BRANCH  22  23
ATOM     23  C   UNL     1      -0.497  -1.650  -3.360  0.00  0.00    -0.064 A 
ATOM     24  C   UNL     1       0.614  -1.618  -4.183  0.00  0.00    +0.002 A 
ATOM     25  C   UNL     1       0.746  -2.536  -5.206  0.00  0.00    +0.009 A 
ATOM     26  C   UNL     1      -0.244  -3.496  -5.409  0.00  0.00    -0.018 A 
ATOM     27  C   UNL     1      -1.361  -3.523  -4.577  0.00  0.00    +0.009 A 
ATOM     28  C   UNL     1      -1.480  -2.605  -3.554  0.00  0.00    +0.002 A 
BRANCH  26  29
ATOM     29  C   UNL     1      -0.108  -4.484  -6.507  0.00  0.00    -0.018 A 
ATOM     30  C   UNL     1       1.012  -4.460  -7.335  0.00  0.00    +0.008 A 
ATOM     31  C   UNL     1       1.133  -5.382  -8.355  0.00  0.00    +0.001 A 
ATOM     32  C   UNL     1       0.145  -6.330  -8.555  0.00  0.00    +0.000 A 
ATOM     33  C   UNL     1      -0.969  -6.358  -7.736  0.00  0.00    +0.001 A 
ATOM     34  C   UNL     1      -1.097  -5.444  -6.709  0.00  0.00    +0.008 A 
ENDBRANCH  26  29
ENDBRANCH  22  23
ENDBRANCH  19  22
ENDBRANCH   2  19
TORSDOF 8
