REMARK  Name = ZINC16600123
REMARK  14 active torsions:
REMARK  status: ('A' for Active; 'I' for Inactive)
REMARK    1  A    between atoms: C_1  and  C_2
REMARK    2  A    between atoms: C_2  and  C_3
REMARK    3  A    between atoms: C_2  and  N_64
REMARK    4  A    between atoms: C_4  and  C_5
REMARK    5  A    between atoms: C_4  and  N_64
REMARK    6  A    between atoms: C_5  and  N_6
REMARK    7  A    between atoms: C_7  and  C_9
REMARK    8  A    between atoms: C_9  and  C_10
REMARK    9  A    between atoms: N_12  and  C_24
REMARK   10  A    between atoms: C_14  and  C_15
REMARK   11  A    between atoms: C_18  and  N_21
REMARK   12  A    between atoms: C_30  and  C_31
REMARK   13  A    between atoms: C_30  and  C_32
REMARK   14  A    between atoms: C_30  and  N_64
REMARK                            x       y       z     vdW  Elec       q    Type
REMARK                         _______ _______ _______ _____ _____    ______ ____
ROOT
ATOM      1  C   UNL     1      -1.416   2.450   0.108  0.00  0.00    +0.007 A 
ATOM      2  C   UNL     1      -0.278   1.727   0.182  0.00  0.00    +0.119 A 
ATOM      3  N   UNL     1       0.767   2.595   0.185  0.00  0.00    -0.239 N 
ATOM      4  N   UNL     1       0.251   3.895   0.114  0.00  0.00    -0.166 NA
ATOM      5  C   UNL     1      -1.062   3.813   0.071  0.00  0.00    +0.097 A 
ENDROOT
BRANCH   5   6
ATOM      6  C   UNL     1      -2.004   4.957  -0.008  0.00  0.00    +0.003 A 
ATOM      7  C   UNL     1      -3.183   4.842  -0.743  0.00  0.00    +0.012 A 
ATOM      8  C   UNL     1      -4.058   5.907  -0.808  0.00  0.00    +0.033 A 
ATOM      9  C   UNL     1      -3.762   7.090  -0.156  0.00  0.00    +0.126 A 
ATOM     10  C   UNL     1      -2.591   7.211   0.570  0.00  0.00    +0.033 A 
ATOM     11  C   UNL     1      -1.711   6.151   0.647  0.00  0.00    +0.012 A 
BRANCH   9  12
ATOM     12  N   UNL     1      -4.702   8.231  -0.235  0.00  0.00    +0.056 N 
ATOM     13  O   UNL     1      -4.444   9.274   0.338  0.00  0.00    -0.126 OA
ATOM     14  O   UNL     1      -5.734   8.127  -0.874  0.00  0.00    -0.126 OA
ENDBRANCH   9  12
ENDBRANCH   5   6
BRANCH   3  15
ATOM     15  C   UNL     1       2.124   2.249   0.246  0.00  0.00    +0.065 A 
ATOM     16  C   UNL     1       2.500   0.915   0.318  0.00  0.00    +0.028 A 
ATOM     17  C   UNL     1       3.838   0.577   0.373  0.00  0.00    +0.002 A 
ATOM     18  C   UNL     1       4.803   1.568   0.369  0.00  0.00    +0.000 A 
ATOM     19  C   UNL     1       4.432   2.898   0.302  0.00  0.00    +0.002 A 
ATOM     20  C   UNL     1       3.095   3.242   0.241  0.00  0.00    +0.028 A 
ENDBRANCH   3  15
BRANCH   1  21
ATOM     21  C   UNL     1      -2.818   1.897   0.073  0.00  0.00    +0.134 C 
BRANCH  21  23
ATOM     22  N   UNL     1      -4.503   1.295  -1.635  0.00  0.00    -0.317 N 
ATOM     23  C   UNL     1      -3.273   1.772  -1.358  0.00  0.00    +0.217 C 
ATOM     24  O   UNL     1      -2.532   2.099  -2.261  0.00  0.00    -0.275 OA
ATOM     25  H   UNL     1      -5.095   1.033  -0.913  0.00  0.00    +0.149 HD
BRANCH  22  26
ATOM     26  C   UNL     1      -4.945   1.173  -3.027  0.00  0.00    +0.085 C 
BRANCH  26  27
ATOM     27  C   UNL     1      -6.368   0.612  -3.062  0.00  0.00    -0.059 C 
BRANCH  27  28
ATOM     28  N   UNL     1      -6.855   0.645  -4.457  0.00  0.00    +0.384 N 
ATOM     29  H   UNL     1      -6.573   1.533  -4.888  0.00  0.00    -0.081 HD
BRANCH  28  31
ATOM     30  C   UNL     1      -4.936   0.001  -5.824  0.00  0.00    -0.014 C 
ATOM     31  C   UNL     1      -6.263  -0.470  -5.226  0.00  0.00    -0.074 C 
ATOM     32  C   UNL     1      -6.013  -1.673  -4.314  0.00  0.00    -0.014 C 
ENDBRANCH  28  31
BRANCH  28  33
ATOM     33  C   UNL     1      -8.330   0.547  -4.479  0.00  0.00    -0.074 C 
ATOM     34  C   UNL     1      -8.917   1.690  -3.649  0.00  0.00    -0.014 C 
ATOM     35  C   UNL     1      -8.813   0.667  -5.926  0.00  0.00    -0.014 C 
ENDBRANCH  28  33
ENDBRANCH  27  28
ENDBRANCH  26  27
ENDBRANCH  22  26
ENDBRANCH  21  23
ENDBRANCH   1  21
TORSDOF 10
