REMARK  Name = ZINC09279816
REMARK  9 active torsions:
REMARK  status: ('A' for Active; 'I' for Inactive)
REMARK    1  A    between atoms: C_1  and  C_2
REMARK    2  A    between atoms: N_4  and  C_5
REMARK    3  A    between atoms: N_13  and  C_14
REMARK    4  A    between atoms: C_14  and  C_16
REMARK    5  A    between atoms: C_21  and  N_22
REMARK    6  A    between atoms: N_26  and  C_27
REMARK    7  A    between atoms: C_27  and  C_28
REMARK    8  A    between atoms: C_28  and  O_29
REMARK    9  A    between atoms: O_29  and  C_30
REMARK                            x       y       z     vdW  Elec       q    Type
REMARK                         _______ _______ _______ _____ _____    ______ ____
ROOT
ATOM      1  C   UNL     1       0.324   9.985   2.591  0.00  0.00    +0.035 A 
ATOM      2  C   UNL     1       1.700   9.818   2.702  0.00  0.00    +0.025 A 
ATOM      3  C   UNL     1       2.305   8.643   2.327  0.00  0.00    +0.029 A 
ATOM      4  C   UNL     1       1.550   7.574   1.820  0.00  0.00    +0.058 A 
ATOM      5  C   UNL     1       0.165   7.768   1.718  0.00  0.00    +0.041 A 
ATOM      6  C   UNL     1      -0.446   8.941   2.092  0.00  0.00    +0.040 A 
ATOM      7  S   UNL     1      -0.415   6.228   1.052  0.00  0.00    -0.052 S 
ATOM      8  C   UNL     1       1.110   5.413   0.933  0.00  0.00    +0.167 A 
ATOM      9  N   UNL     1       1.355   4.184   0.491  0.00  0.00    -0.152 NA
ATOM     10  N   UNL     1       1.995   6.331   1.405  0.00  0.00    -0.319 N 
ENDROOT
BRANCH   1  14
ATOM     11  C   UNL     1      -0.324  13.659   3.104  0.00  0.00    +0.109 C 
ATOM     12  C   UNL     1       0.363  12.358   2.780  0.00  0.00    +0.214 C 
ATOM     13  O   UNL     1       1.494  12.362   2.342  0.00  0.00    -0.276 OA
ATOM     14  N   UNL     1      -0.279  11.189   2.978  0.00  0.00    -0.286 N 
ATOM     15  H   UNL     1      -1.158  11.182   3.388  0.00  0.00    +0.155 HD
ENDBRANCH   1  14
BRANCH   9  16
ATOM     16  C   UNL     1       0.348   3.413   0.067  0.00  0.00    +0.272 C 
ATOM     17  O   UNL     1      -0.793   3.840   0.080  0.00  0.00    -0.268 OA
BRANCH  16  18
ATOM     18  C   UNL     1       0.621   2.043  -0.426  0.00  0.00    +0.070 A 
ATOM     19  C   UNL     1       1.936   1.604  -0.583  0.00  0.00    +0.035 A 
ATOM     20  C   UNL     1       2.183   0.325  -1.038  0.00  0.00    +0.042 A 
ATOM     21  C   UNL     1       1.130  -0.519  -1.347  0.00  0.00    +0.022 A 
ATOM     22  C   UNL     1      -0.176  -0.087  -1.198  0.00  0.00    +0.035 A 
ATOM     23  C   UNL     1      -0.435   1.188  -0.739  0.00  0.00    +0.138 A 
ATOM     24 CL   UNL     1       3.819  -0.226  -1.229  0.00  0.00    -0.084 Cl
BRANCH  23  25
ATOM     25  N   UNL     1      -1.833   1.649  -0.581  0.00  0.00    +0.057 N 
ATOM     26  O   UNL     1      -2.172   2.227   0.437  0.00  0.00    -0.126 OA
ATOM     27  O   UNL     1      -2.644   1.450  -1.467  0.00  0.00    -0.126 OA
ENDBRANCH  23  25
ENDBRANCH  16  18
ENDBRANCH   9  16
BRANCH  10  28
ATOM     28  C   UNL     1       3.422   6.005   1.470  0.00  0.00    +0.152 C 
BRANCH  28  29
ATOM     29  C   UNL     1       3.593   4.535   1.856  0.00  0.00    +0.181 C 
BRANCH  29  30
ATOM     30  O   UNL     1       4.980   4.251   2.049  0.00  0.00    -0.381 OA
ATOM     31  C   UNL     1       5.251   2.897   2.414  0.00  0.00    +0.194 C 
ENDBRANCH  29  30
ENDBRANCH  28  29
ENDBRANCH  10  28
TORSDOF 7
