REMARK  Name = ZINC05490843
REMARK  6 active torsions:
REMARK  status: ('A' for Active; 'I' for Inactive)
REMARK    1  A    between atoms: C_1  and  C_2
REMARK    2  A    between atoms: C_11  and  C_22
REMARK    3  A    between atoms: C_17  and  N_21
REMARK    4  A    between atoms: C_18  and  C_19
REMARK    5  A    between atoms: C_22  and  C_23
REMARK    6  A    between atoms: C_22  and  C_24
REMARK                            x       y       z     vdW  Elec       q    Type
REMARK                         _______ _______ _______ _____ _____    ______ ____
ROOT
ATOM      1  C   UNL     1      -0.018   1.503   0.010  0.00  0.00    +0.045 C 
ATOM      2  C   UNL     1       0.002  -0.004   0.002  0.00  0.00    -0.036 A 
ATOM      3  C   UNL     1       0.005  -0.673  -1.205  0.00  0.00    +0.006 A 
ATOM      4  C   UNL     1       0.024  -2.057  -1.277  0.00  0.00    +0.024 A 
ATOM      5  C   UNL     1       0.040  -2.760  -0.071  0.00  0.00    +0.039 A 
ATOM      6  C   UNL     1       0.037  -2.069   1.148  0.00  0.00    +0.013 A 
ATOM      7  C   UNL     1       0.023  -0.692   1.212  0.00  0.00    +0.027 A 
ATOM      8 BR   UNL     1       0.025   0.222   2.868  0.00  0.00    -0.050 Br
ATOM      9  C   UNL     1       0.059  -3.113   2.218  0.00  0.00    +0.146 C 
ATOM     10  C   UNL     1      -1.158  -3.026   3.095  0.00  0.00    +0.062 A 
ATOM     11  C   UNL     1      -2.486  -3.300   2.799  0.00  0.00    +0.074 A 
ATOM     12  N   UNL     1      -3.198  -3.084   3.879  0.00  0.00    -0.175 NA
ATOM     13  N   UNL     1      -2.335  -2.662   4.902  0.00  0.00    -0.246 N 
ATOM     14  H   UNL     1      -2.593  -2.433   5.809  0.00  0.00    +0.192 HD
ATOM     15  C   UNL     1      -1.089  -2.632   4.404  0.00  0.00    +0.223 A 
ATOM     16  O   UNL     1       0.079  -2.293   5.004  0.00  0.00    -0.423 OA
ATOM     17  C   UNL     1       1.228  -2.600   4.369  0.00  0.00    +0.201 C 
ATOM     18  C   UNL     1       1.290  -2.990   3.074  0.00  0.00    +0.110 C 
ATOM     19  C   UNL     1       0.074  -4.425   1.466  0.00  0.00    +0.238 C 
ATOM     20  O   UNL     1       0.093  -5.536   1.953  0.00  0.00    -0.274 OA
ATOM     21  N   UNL     1       0.061  -4.125   0.150  0.00  0.00    -0.284 N 
ATOM     22  H   UNL     1       0.065  -4.789  -0.557  0.00  0.00    +0.155 HD
ENDROOT
BRANCH  17  23
ATOM     23  N   UNL     1       2.402  -2.512   5.076  0.00  0.00    -0.328 N 
ATOM     24  H   UNL     1       2.389  -2.235   6.005  0.00  0.00    +0.145 HD
ATOM     25  H   UNL     1       3.244  -2.727   4.645  0.00  0.00    +0.145 HD
ENDBRANCH  17  23
BRANCH  11  26
ATOM     26  C   UNL     1      -3.017  -3.765   1.468  0.00  0.00    +0.034 C 
ATOM     27  C   UNL     1      -3.697  -5.125   1.636  0.00  0.00    +0.014 C 
ATOM     28  C   UNL     1      -4.033  -2.749   0.941  0.00  0.00    +0.014 C 
ENDBRANCH  11  26
BRANCH  18  29
ATOM     29  C   UNL     1       2.567  -3.295   2.502  0.00  0.00    +0.102 C 
ATOM     30  N   UNL     1       3.580  -3.536   2.047  0.00  0.00    -0.191 NA
ENDBRANCH  18  29
TORSDOF 3
