REMARK  Name = ZINC21253073
REMARK  9 active torsions:
REMARK  status: ('A' for Active; 'I' for Inactive)
REMARK    1  A    between atoms: C_1  and  C_2
REMARK    2  A    between atoms: C_2  and  C_3
REMARK    3  A    between atoms: C_2  and  O_4
REMARK    4  A    between atoms: O_4  and  C_5
REMARK    5  A    between atoms: C_8  and  C_11
REMARK    6  A    between atoms: C_16  and  C_26
REMARK    7  A    between atoms: C_28  and  O_34
REMARK    8  A    between atoms: C_29  and  O_33
REMARK    9  A    between atoms: O_34  and  C_35
REMARK                            x       y       z     vdW  Elec       q    Type
REMARK                         _______ _______ _______ _____ _____    ______ ____
ROOT
ATOM      1  C   UNL     1       0.936   4.207  -1.274  0.00  0.00    +0.032 C 
ATOM      2  C   UNL     1      -0.248   4.855  -0.558  0.00  0.00    +0.059 C 
ATOM      3  C   UNL     1      -1.366   3.840  -0.385  0.00  0.00    +0.017 C 
ATOM      4  C   UNL     1      -1.083   2.539  -0.208  0.00  0.00    +0.036 C 
ATOM      5  C   UNL     1      -2.090   1.434   0.004  0.00  0.00    +0.136 C 
ATOM      6  N   UNL     1      -3.461   1.814  -0.264  0.00  0.00    -0.331 N 
ATOM      7  C   UNL     1      -4.107   2.776   0.510  0.00  0.00    +0.049 A 
ATOM      8  C   UNL     1      -5.159   2.442   1.348  0.00  0.00    +0.025 A 
ATOM      9  C   UNL     1      -5.699   3.407   2.179  0.00  0.00    +0.002 A 
ATOM     10  C   UNL     1      -5.196   4.696   2.175  0.00  0.00    +0.002 A 
ATOM     11  C   UNL     1      -4.159   5.037   1.325  0.00  0.00    +0.025 A 
ATOM     12  C   UNL     1      -3.629   4.077   0.481  0.00  0.00    +0.052 A 
ATOM     13  N   UNL     1      -2.617   4.364  -0.429  0.00  0.00    -0.316 N 
ATOM     14  C   UNL     1       0.262   2.098  -0.195  0.00  0.00    +0.163 C 
ATOM     15  O   UNL     1       0.490   0.919  -0.004  0.00  0.00    -0.292 OA
ATOM     16  C   UNL     1       1.415   3.031  -0.414  0.00  0.00    +0.088 C 
ATOM     17  H   UNL     1      -4.011   1.341  -1.091  0.00  0.00    +0.147 HD
ATOM     18  H   UNL     1      -2.890   5.069  -1.227  0.00  0.00    +0.152 HD
ENDROOT
BRANCH   5  19
ATOM     19  C   UNL     1      -1.995   0.967   1.434  0.00  0.00    -0.018 A 
ATOM     20  C   UNL     1      -1.576  -0.321   1.713  0.00  0.00    +0.055 A 
ATOM     21  C   UNL     1      -1.487  -0.752   3.027  0.00  0.00    +0.163 A 
ATOM     22  C   UNL     1      -1.821   0.114   4.064  0.00  0.00    +0.177 A 
ATOM     23  C   UNL     1      -2.240   1.404   3.778  0.00  0.00    +0.086 A 
ATOM     24  C   UNL     1      -2.321   1.829   2.464  0.00  0.00    +0.029 A 
ATOM     25 CL   UNL     1      -2.657   2.487   5.069  0.00  0.00    -0.080 Cl
BRANCH  22  26
ATOM     26  O   UNL     1      -1.736  -0.305   5.355  0.00  0.00    -0.502 OA
ATOM     27  H   UNL     1      -2.000   0.380   6.174  0.00  0.00    +0.292 HD
ENDBRANCH  22  26
BRANCH  21  28
ATOM     28  O   UNL     1      -1.076  -2.019   3.302  0.00  0.00    -0.491 OA
ATOM     29  C   UNL     1      -0.751  -2.852   2.187  0.00  0.00    +0.277 C 
ENDBRANCH  21  28
ENDBRANCH   5  19
BRANCH   1  33
ATOM     30  C   UNL     1       4.092   7.052  -1.724  0.00  0.00    +0.121 A 
ATOM     31  C   UNL     1       3.544   6.440  -2.841  0.00  0.00    +0.046 A 
ATOM     32  C   UNL     1       2.524   5.521  -2.694  0.00  0.00    +0.007 A 
ATOM     33  C   UNL     1       2.049   5.210  -1.433  0.00  0.00    -0.043 A 
ATOM     34  C   UNL     1       2.590   5.823  -0.317  0.00  0.00    +0.007 A 
ATOM     35  C   UNL     1       3.614   6.739  -0.460  0.00  0.00    +0.046 A 
BRANCH  30  36
ATOM     36  O   UNL     1       5.096   7.957  -1.867  0.00  0.00    -0.489 OA
BRANCH  36  38
ATOM     37  C   UNL     1       6.214   9.579  -3.266  0.00  0.00    +0.051 C 
ATOM     38  C   UNL     1       5.574   8.191  -3.193  0.00  0.00    +0.167 C 
ATOM     39  C   UNL     1       6.615   7.130  -3.554  0.00  0.00    +0.051 C 
ENDBRANCH  36  38
ENDBRANCH  30  36
ENDBRANCH   1  33
TORSDOF 6
