REMARK  Name = ZINC08959455
REMARK  8 active torsions:
REMARK  status: ('A' for Active; 'I' for Inactive)
REMARK    1  A    between atoms: C_1  and  C_2
REMARK    2  A    between atoms: C_2  and  N_3
REMARK    3  A    between atoms: C_6  and  N_17
REMARK    4  A    between atoms: C_12  and  C_15
REMARK    5  A    between atoms: C_12  and  C_16
REMARK    6  A    between atoms: C_18  and  C_20
REMARK    7  A    between atoms: C_25  and  O_26
REMARK    8  A    between atoms: O_26  and  C_27
REMARK                            x       y       z     vdW  Elec       q    Type
REMARK                         _______ _______ _______ _____ _____    ______ ____
ROOT
ATOM      1  N   UNL     1       0.097   1.754   0.320  0.00  0.00    -0.268 N 
ATOM      2  C   UNL     1       1.257   2.539   0.272  0.00  0.00    +0.080 A 
ATOM      3  C   UNL     1       2.300   2.203  -0.575  0.00  0.00    +0.050 A 
ATOM      4  C   UNL     1       3.443   2.990  -0.607  0.00  0.00    +0.036 A 
ATOM      5  C   UNL     1       3.538   4.111   0.209  0.00  0.00    +0.027 A 
ATOM      6  C   UNL     1       2.496   4.447   1.052  0.00  0.00    +0.049 A 
ATOM      7  C   UNL     1       1.353   3.666   1.087  0.00  0.00    +0.142 A 
ATOM      8  O   UNL     1       0.319   3.995   1.906  0.00  0.00    -0.489 OA
ATOM      9  C   UNL     1      -0.830   4.583   1.301  0.00  0.00    +0.244 C 
ATOM     10  C   UNL     1      -1.195   3.840   0.017  0.00  0.00    +0.076 C 
ATOM     11  C   UNL     1      -1.112   2.352   0.234  0.00  0.00    +0.229 C 
ATOM     12  O   UNL     1      -2.126   1.694   0.334  0.00  0.00    -0.275 OA
ATOM     13  C   UNL     1      -2.620   4.213  -0.397  0.00  0.00    +0.024 C 
ATOM     14  C   UNL     1      -0.223   4.240  -1.095  0.00  0.00    +0.024 C 
ENDROOT
BRANCH   4  15
ATOM     15  N   UNL     1       4.501   2.655  -1.461  0.00  0.00    -0.281 N 
ATOM     16  C   UNL     1       5.223   3.626  -2.054  0.00  0.00    +0.252 C 
ATOM     17  O   UNL     1       5.013   4.793  -1.780  0.00  0.00    -0.270 OA
ATOM     18  H   UNL     1       4.714   1.723  -1.626  0.00  0.00    +0.155 HD
BRANCH  16  19
ATOM     19  C   UNL     1       6.267   3.275  -3.034  0.00  0.00    +0.080 A 
ATOM     20  C   UNL     1       6.516   1.936  -3.347  0.00  0.00    +0.036 A 
ATOM     21  C   UNL     1       7.489   1.615  -4.269  0.00  0.00    +0.042 A 
ATOM     22  C   UNL     1       8.232   2.615  -4.878  0.00  0.00    +0.023 A 
ATOM     23  C   UNL     1       8.000   3.941  -4.573  0.00  0.00    +0.048 A 
ATOM     24  C   UNL     1       7.021   4.282  -3.653  0.00  0.00    +0.132 A 
ATOM     25 CL   UNL     1       7.791  -0.048  -4.664  0.00  0.00    -0.084 Cl
BRANCH  24  26
ATOM     26  O   UNL     1       6.792   5.585  -3.352  0.00  0.00    -0.494 OA
ATOM     27  C   UNL     1       7.599   6.557  -4.021  0.00  0.00    +0.277 C 
ENDBRANCH  24  26
ENDBRANCH  16  19
ENDBRANCH   4  15
BRANCH   1  29
ATOM     28  C   UNL     1       0.198  -0.075   1.941  0.00  0.00    +0.025 C 
ATOM     29  C   UNL     1       0.194   0.298   0.458  0.00  0.00    +0.110 C 
ENDBRANCH   1  29
TORSDOF 4
