REMARK  Name = ZINC43746350
REMARK  7 active torsions:
REMARK  status: ('A' for Active; 'I' for Inactive)
REMARK    1  A    between atoms: C_1  and  C_2
REMARK    2  A    between atoms: C_18  and  C_20
REMARK    3  A    between atoms: C_20  and  N_21
REMARK    4  A    between atoms: C_25  and  C_27
REMARK    5  A    between atoms: C_27  and  C_28
REMARK    6  A    between atoms: C_27  and  C_34
REMARK    7  A    between atoms: C_27  and  O_40
REMARK                            x       y       z     vdW  Elec       q    Type
REMARK                         _______ _______ _______ _____ _____    ______ ____
ROOT
ATOM      1  N   UNL     1      -0.856  -7.033   0.356  0.00  0.00    +0.384 N 
ATOM      2  C   UNL     1       0.350  -7.809   0.716  0.00  0.00    -0.078 C 
ATOM      3  C   UNL     1       0.163  -8.158   2.214  0.00  0.00    -0.020 C 
ATOM      4  C   UNL     1      -1.365  -8.418   2.286  0.00  0.00    -0.014 C 
ATOM      5  C   UNL     1      -1.940  -7.390   1.290  0.00  0.00    -0.027 C 
ATOM      6  H   UNL     1      -1.132  -7.257  -0.588  0.00  0.00    -0.081 HD
ENDROOT
BRANCH   1   7
ATOM      7  C   UNL     1      -0.568  -5.596   0.460  0.00  0.00    -0.063 C 
BRANCH   7  22
ATOM      8  C   UNL     1       2.195  -0.228  -2.737  0.00  0.00    +0.011 C 
ATOM      9  C   UNL     1       1.800  -1.662  -2.378  0.00  0.00    -0.023 C 
ATOM     10  C   UNL     1       1.976  -2.557  -3.603  0.00  0.00    +0.007 C 
ATOM     11  C   UNL     1       3.413  -2.441  -4.120  0.00  0.00    +0.003 C 
ATOM     12  C   UNL     1       4.387  -2.936  -3.046  0.00  0.00    +0.037 C 
ATOM     13  C   UNL     1       4.149  -2.157  -1.752  0.00  0.00    +0.096 C 
ATOM     14  C   UNL     1       2.701  -2.169  -1.244  0.00  0.00    +0.030 C 
ATOM     15  C   UNL     1       2.314  -3.614  -0.928  0.00  0.00    +0.014 C 
ATOM     16  C   UNL     1       0.864  -3.707  -0.453  0.00  0.00    +0.042 C 
ATOM     17  C   UNL     1      -0.084  -3.042  -1.470  0.00  0.00    +0.181 C 
ATOM     18  C   UNL     1       0.350  -1.684  -1.911  0.00  0.00    +0.052 C 
ATOM     19  O   UNL     1      -0.129  -3.977  -2.554  0.00  0.00    -0.461 OA
ATOM     20  C   UNL     1      -0.205  -5.215  -2.015  0.00  0.00    +0.309 C 
ATOM     21  O   UNL     1      -0.703  -6.181  -2.543  0.00  0.00    -0.251 OA
ATOM     22  C   UNL     1       0.444  -5.200  -0.618  0.00  0.00    +0.088 C 
ATOM     23  C   UNL     1       4.981  -0.902  -1.503  0.00  0.00    +0.196 C 
ATOM     24  O   UNL     1       5.195  -2.119  -0.785  0.00  0.00    -0.368 OA
ENDBRANCH   7  22
ENDBRANCH   1   7
BRANCH   5  25
ATOM     25  C   UNL     1      -3.107  -8.009   0.518  0.00  0.00    +0.104 C 
BRANCH  25  26
ATOM     26  C   UNL     1      -4.201  -8.389   1.483  0.00  0.00    -0.013 A 
ATOM     27  C   UNL     1      -4.378  -7.665   2.647  0.00  0.00    +0.007 A 
ATOM     28  C   UNL     1      -5.381  -8.014   3.532  0.00  0.00    +0.000 A 
ATOM     29  C   UNL     1      -6.208  -9.087   3.252  0.00  0.00    +0.000 A 
ATOM     30  C   UNL     1      -6.031  -9.810   2.088  0.00  0.00    +0.000 A 
ATOM     31  C   UNL     1      -5.030  -9.459   1.201  0.00  0.00    +0.007 A 
ENDBRANCH  25  26
BRANCH  25  32
ATOM     32  C   UNL     1      -3.639  -7.009  -0.476  0.00  0.00    -0.013 A 
ATOM     33  C   UNL     1      -3.814  -5.690  -0.103  0.00  0.00    +0.007 A 
ATOM     34  C   UNL     1      -4.302  -4.772  -1.015  0.00  0.00    +0.000 A 
ATOM     35  C   UNL     1      -4.615  -5.175  -2.300  0.00  0.00    +0.000 A 
ATOM     36  C   UNL     1      -4.440  -6.494  -2.673  0.00  0.00    +0.000 A 
ATOM     37  C   UNL     1      -3.948  -7.411  -1.762  0.00  0.00    +0.007 A 
ENDBRANCH  25  32
BRANCH  25  38
ATOM     38  O   UNL     1      -2.656  -9.175  -0.174  0.00  0.00    -0.381 OA
ATOM     39  H   UNL     1      -2.241  -9.836   0.398  0.00  0.00    +0.211 HD
ENDBRANCH  25  38
ENDBRANCH   5  25
TORSDOF 6
