REMARK  Name = ZINC45781663
REMARK  8 active torsions:
REMARK  status: ('A' for Active; 'I' for Inactive)
REMARK    1  A    between atoms: C_1  and  C_2
REMARK    2  A    between atoms: C_5  and  C_9
REMARK    3  A    between atoms: C_6  and  C_8
REMARK    4  A    between atoms: C_10  and  C_11
REMARK    5  A    between atoms: N_13  and  C_14
REMARK    6  A    between atoms: C_14  and  C_16
REMARK    7  A    between atoms: C_14  and  C_17
REMARK    8  A    between atoms: C_20  and  N_23
REMARK                            x       y       z     vdW  Elec       q    Type
REMARK                         _______ _______ _______ _____ _____    ______ ____
ROOT
ATOM      1  C   UNL     1      -0.182  -4.134  -4.930  0.00  0.00    +0.100 C 
ATOM      2  C   UNL     1       1.165  -3.771  -5.558  0.00  0.00    +0.033 C 
ENDROOT
BRANCH   1   3
ATOM      3  C   UNL     1      -1.016  -4.891  -5.931  0.00  0.00    -0.027 A 
ATOM      4  C   UNL     1      -0.792  -6.241  -6.135  0.00  0.00    +0.007 A 
ATOM      5  C   UNL     1      -1.554  -6.938  -7.052  0.00  0.00    +0.023 A 
ATOM      6  C   UNL     1      -2.546  -6.282  -7.769  0.00  0.00    +0.035 A 
ATOM      7  C   UNL     1      -2.768  -4.927  -7.562  0.00  0.00    +0.023 A 
ATOM      8  C   UNL     1      -2.006  -4.237  -6.640  0.00  0.00    +0.007 A 
BRANCH   6   9
ATOM      9  N   UNL     1      -3.320  -6.985  -8.700  0.00  0.00    -0.270 N 
ATOM     10  C   UNL     1      -3.639  -8.275  -8.473  0.00  0.00    +0.301 C 
ATOM     11  O   UNL     1      -3.352  -8.795  -7.412  0.00  0.00    -0.253 OA
ATOM     12  N   UNL     1      -4.275  -8.989  -9.423  0.00  0.00    -0.313 N 
ATOM     13  H   UNL     1      -3.627  -6.544  -9.507  0.00  0.00    +0.156 HD
ATOM     14  H   UNL     1      -4.503  -8.574 -10.270  0.00  0.00    +0.146 HD
ATOM     15  H   UNL     1      -4.504  -9.917  -9.261  0.00  0.00    +0.146 HD
ENDBRANCH   6   9
ENDBRANCH   1   3
BRANCH   1  18
ATOM     16  C   UNL     1       0.295  -4.396  -2.555  0.00  0.00    +0.237 C 
ATOM     17  O   UNL     1       0.342  -3.184  -2.460  0.00  0.00    -0.271 OA
ATOM     18  N   UNL     1       0.040  -4.970  -3.747  0.00  0.00    -0.305 N 
ATOM     19  H   UNL     1       0.003  -5.936  -3.823  0.00  0.00    +0.150 HD
BRANCH  16  21
ATOM     20  C   UNL     1       0.900  -4.667  -0.210  0.00  0.00    +0.013 C 
ATOM     21  C   UNL     1       0.517  -5.232  -1.373  0.00  0.00    +0.068 C 
BRANCH  20  26
ATOM     22  C   UNL     1       2.521   0.848  -0.092  0.00  0.00    +0.044 C 
ATOM     23  C   UNL     1       2.096  -0.598  -0.123  0.00  0.00    -0.050 A 
ATOM     24  C   UNL     1       2.633  -1.453  -1.070  0.00  0.00    +0.004 A 
ATOM     25  C   UNL     1       2.250  -2.777  -1.105  0.00  0.00    +0.008 A 
ATOM     26  C   UNL     1       1.316  -3.255  -0.180  0.00  0.00    -0.022 A 
ATOM     27  C   UNL     1       0.778  -2.385   0.774  0.00  0.00    -0.043 A 
ATOM     28  C   UNL     1       1.176  -1.065   0.799  0.00  0.00    +0.007 A 
ATOM     29  C   UNL     1      -0.229  -2.890   1.775  0.00  0.00    +0.044 C 
ENDBRANCH  20  26
ENDBRANCH  16  21
ENDBRANCH   1  18
TORSDOF 5
