REMARK  Name = ZINC18200194
REMARK  12 active torsions:
REMARK  status: ('A' for Active; 'I' for Inactive)
REMARK    1  A    between atoms: C_1  and  C_2
REMARK    2  A    between atoms: C_4  and  C_32
REMARK    3  A    between atoms: C_5  and  S_19
REMARK    4  A    between atoms: C_6  and  C_8
REMARK    5  A    between atoms: C_8  and  C_9
REMARK    6  A    between atoms: C_12  and  C_15
REMARK    7  A    between atoms: C_15  and  C_16
REMARK    8  A    between atoms: C_15  and  C_17
REMARK    9  A    between atoms: C_15  and  C_18
REMARK   10  A    between atoms: S_19  and  C_22
REMARK   11  A    between atoms: C_22  and  C_23
REMARK   12  A    between atoms: C_28  and  O_29
REMARK                            x       y       z     vdW  Elec       q    Type
REMARK                         _______ _______ _______ _____ _____    ______ ____
ROOT
ATOM      1  C   UNL     1      -2.988   0.536  -4.198  0.00  0.00    +0.044 C 
ATOM      2  C   UNL     1      -2.089   1.391  -3.342  0.00  0.00    -0.050 A 
ATOM      3  C   UNL     1      -1.750   2.666  -3.755  0.00  0.00    +0.008 A 
ATOM      4  C   UNL     1      -0.925   3.450  -2.970  0.00  0.00    -0.025 A 
ATOM      5  C   UNL     1      -0.444   2.960  -1.770  0.00  0.00    +0.095 A 
ATOM      6  C   UNL     1      -0.779   1.683  -1.360  0.00  0.00    -0.018 A 
ATOM      7  C   UNL     1      -1.604   0.899  -2.145  0.00  0.00    +0.009 A 
ATOM      8  C   UNL     1      -0.555   4.839  -3.420  0.00  0.00    +0.046 C 
ENDROOT
BRANCH   5   9
ATOM      9  S   UNL     1       0.601   3.962  -0.765  0.00  0.00    +0.002 S 
ATOM     10  O   UNL     1       0.121   5.287  -0.951  0.00  0.00    -0.169 OA
ATOM     11  O   UNL     1       0.565   3.352   0.517  0.00  0.00    -0.169 OA
BRANCH   9  12
ATOM     12  C   UNL     1       2.253   3.788  -1.494  0.00  0.00    +0.210 C 
BRANCH  12  13
ATOM     13  C   UNL     1       3.239   4.612  -0.706  0.00  0.00    +0.018 A 
ATOM     14  C   UNL     1       3.906   4.052   0.368  0.00  0.00    +0.029 A 
ATOM     15  C   UNL     1       4.811   4.808   1.091  0.00  0.00    +0.043 A 
ATOM     16  C   UNL     1       5.051   6.125   0.743  0.00  0.00    +0.043 A 
ATOM     17  C   UNL     1       4.385   6.689  -0.330  0.00  0.00    +0.084 A 
ATOM     18  C   UNL     1       3.481   5.931  -1.060  0.00  0.00    +0.140 A 
ATOM     19 CL   UNL     1       4.687   8.342  -0.767  0.00  0.00    -0.080 Cl
ATOM     20 CL   UNL     1       5.648   4.102   2.439  0.00  0.00    -0.083 Cl
BRANCH  18  21
ATOM     21  O   UNL     1       2.830   6.481  -2.119  0.00  0.00    -0.505 OA
ATOM     22  H   UNL     1       1.991   6.904  -1.889  0.00  0.00    +0.292 HD
ENDBRANCH  18  21
ENDBRANCH  12  13
ENDBRANCH   9  12
ENDBRANCH   5   9
BRANCH   6  23
ATOM     23  C   UNL     1      -0.250   1.148  -0.054  0.00  0.00    +0.072 C 
BRANCH  23  24
ATOM     24  C   UNL     1      -0.632  -0.303   0.085  0.00  0.00    -0.043 A 
ATOM     25  C   UNL     1      -1.825  -0.648   0.692  0.00  0.00    +0.004 A 
ATOM     26  C   UNL     1      -2.178  -1.979   0.816  0.00  0.00    +0.004 A 
ATOM     27  C   UNL     1      -1.333  -2.965   0.342  0.00  0.00    -0.042 A 
ATOM     28  C   UNL     1      -0.138  -2.620  -0.260  0.00  0.00    +0.004 A 
ATOM     29  C   UNL     1       0.213  -1.289  -0.388  0.00  0.00    +0.004 A 
BRANCH  27  30
ATOM     30  C   UNL     1      -1.715  -4.416   0.482  0.00  0.00    -0.013 C 
ATOM     31  C   UNL     1      -0.658  -5.144   1.315  0.00  0.00    +0.015 C 
ATOM     32  C   UNL     1      -3.074  -4.521   1.178  0.00  0.00    +0.015 C 
ATOM     33  C   UNL     1      -1.802  -5.056  -0.905  0.00  0.00    +0.015 C 
ENDBRANCH  27  30
ENDBRANCH  23  24
ENDBRANCH   6  23
TORSDOF 7
