REMARK  Name = ZINC59372567
REMARK  12 active torsions:
REMARK  status: ('A' for Active; 'I' for Inactive)
REMARK    1  A    between atoms: C_1  and  C_2
REMARK    2  A    between atoms: C_5  and  N_9
REMARK    3  A    between atoms: C_7  and  C_8
REMARK    4  A    between atoms: N_9  and  C_10
REMARK    5  A    between atoms: N_9  and  S_30
REMARK    6  A    between atoms: C_10  and  C_11
REMARK    7  A    between atoms: N_13  and  N_14
REMARK    8  A    between atoms: C_15  and  C_16
REMARK    9  A    between atoms: C_19  and  N_22
REMARK   10  A    between atoms: N_22  and  C_23
REMARK   11  A    between atoms: N_22  and  C_24
REMARK   12  A    between atoms: S_30  and  C_33
REMARK                            x       y       z     vdW  Elec       q    Type
REMARK                         _______ _______ _______ _____ _____    ______ ____
ROOT
ATOM      1  C   UNL     1      -1.974  -7.104   1.180  0.00  0.00    +0.251 C 
ATOM      2  O   UNL     1      -2.877  -6.294   1.184  0.00  0.00    -0.272 OA
ATOM      3  N   UNL     1      -1.650  -7.758   2.313  0.00  0.00    -0.206 N 
ATOM      4  H   UNL     1      -0.928  -8.406   2.309  0.00  0.00    +0.177 HD
ENDROOT
BRANCH   3   5
ATOM      5  N   UNL     1      -2.355  -7.502   3.496  0.00  0.00    -0.188 NA
ATOM      6  C   UNL     1      -2.043  -8.131   4.587  0.00  0.00    +0.138 C 
BRANCH   6   7
ATOM      7  C   UNL     1      -2.785  -7.861   5.832  0.00  0.00    -0.005 A 
ATOM      8  C   UNL     1      -3.829  -6.931   5.838  0.00  0.00    +0.011 A 
ATOM      9  C   UNL     1      -4.520  -6.682   7.002  0.00  0.00    +0.024 A 
ATOM     10  C   UNL     1      -4.180  -7.353   8.172  0.00  0.00    +0.034 A 
ATOM     11  C   UNL     1      -3.142  -8.279   8.171  0.00  0.00    +0.024 A 
ATOM     12  C   UNL     1      -2.450  -8.538   7.008  0.00  0.00    +0.011 A 
BRANCH  10  13
ATOM     13  N   UNL     1      -4.882  -7.098   9.350  0.00  0.00    -0.303 N 
ATOM     14  C   UNL     1      -5.894  -6.038   9.385  0.00  0.00    +0.135 C 
BRANCH  13  15
ATOM     15  C   UNL     1      -4.621  -7.852  10.497  0.00  0.00    +0.034 A 
ATOM     16  C   UNL     1      -3.663  -7.425  11.408  0.00  0.00    +0.023 A 
ATOM     17  C   UNL     1      -3.407  -8.173  12.540  0.00  0.00    +0.002 A 
ATOM     18  C   UNL     1      -4.104  -9.346  12.768  0.00  0.00    +0.000 A 
ATOM     19  C   UNL     1      -5.059  -9.774  11.863  0.00  0.00    +0.002 A 
ATOM     20  C   UNL     1      -5.323  -9.028  10.732  0.00  0.00    +0.023 A 
ENDBRANCH  13  15
ENDBRANCH  10  13
ENDBRANCH   6   7
ENDBRANCH   3   5
BRANCH   1  21
ATOM     21  C   UNL     1      -1.216  -7.381  -0.093  0.00  0.00    +0.228 C 
BRANCH  21  22
ATOM     22  N   UNL     1      -1.755  -6.550  -1.173  0.00  0.00    -0.194 N 
BRANCH  22  27
ATOM     23  C   UNL     1       0.099  -1.236  -1.861  0.00  0.00    +0.044 C 
ATOM     24  C   UNL     1      -0.393  -2.648  -1.678  0.00  0.00    -0.047 A 
ATOM     25  C   UNL     1      -0.922  -3.339  -2.753  0.00  0.00    +0.005 A 
ATOM     26  C   UNL     1      -1.374  -4.633  -2.589  0.00  0.00    +0.025 A 
ATOM     27  C   UNL     1      -1.298  -5.242  -1.342  0.00  0.00    +0.052 A 
ATOM     28  C   UNL     1      -0.767  -4.545  -0.265  0.00  0.00    +0.028 A 
ATOM     29  C   UNL     1      -0.311  -3.252  -0.437  0.00  0.00    -0.046 A 
ATOM     30  C   UNL     1       0.272  -2.498   0.730  0.00  0.00    +0.044 C 
ENDBRANCH  22  27
BRANCH  22  31
ATOM     31  S   UNL     1      -2.907  -7.164  -2.192  0.00  0.00    +0.075 S 
ATOM     32  O   UNL     1      -3.650  -8.113  -1.441  0.00  0.00    -0.150 OA
ATOM     33  O   UNL     1      -3.518  -6.051  -2.832  0.00  0.00    -0.150 OA
BRANCH  31  34
ATOM     34  C   UNL     1      -2.063  -8.066  -3.449  0.00  0.00    +0.109 A 
ATOM     35  C   UNL     1      -1.663  -7.427  -4.608  0.00  0.00    +0.029 A 
ATOM     36  C   UNL     1      -1.001  -8.134  -5.594  0.00  0.00    +0.002 A 
ATOM     37  C   UNL     1      -0.738  -9.480  -5.421  0.00  0.00    +0.000 A 
ATOM     38  C   UNL     1      -1.137 -10.119  -4.261  0.00  0.00    +0.002 A 
ATOM     39  C   UNL     1      -1.796  -9.411  -3.274  0.00  0.00    +0.029 A 
ENDBRANCH  31  34
ENDBRANCH  22  31
ENDBRANCH  21  22
ENDBRANCH   1  21
TORSDOF 9
