REMARK  Name = ZINC06135099
REMARK  16 active torsions:
REMARK  status: ('A' for Active; 'I' for Inactive)
REMARK    1  A    between atoms: CD1_1  and  CG_2
REMARK    2  A    between atoms: CG_2  and  CD2_3
REMARK    3  A    between atoms: CG_2  and  CB_4
REMARK    4  A    between atoms: CB_4  and  CA_5
REMARK    5  A    between atoms: CA_5  and  C_7
REMARK    6  A    between atoms: CA_5  and  N_10
REMARK    7  A    between atoms: C_11  and  CA_13
REMARK    8  A    between atoms: CA_13  and  CB_15
REMARK    9  A    between atoms: CA_13  and  N_18
REMARK   10  A    between atoms: CB_15  and  CG1_16
REMARK   11  A    between atoms: CB_15  and  CG2_17
REMARK   12  A    between atoms: C_19  and  C_21
REMARK   13  A    between atoms: C_33  and  C_35
REMARK   14  A    between atoms: C_33  and  C_36
REMARK   15  A    between atoms: C_38  and  C_40
REMARK   16  A    between atoms: C_38  and  C_41
REMARK                            x       y       z     vdW  Elec       q    Type
REMARK                         _______ _______ _______ _____ _____    ______ ____
ROOT
ATOM      1  N   VAL A   1       0.666  -5.395  -3.020  0.00  0.00    -0.302 N 
ATOM      2  C   UNK A   0       1.511  -5.831  -3.975  0.00  0.00    +0.245 C 
ATOM      3  O   UNK A   0       1.875  -5.078  -4.853  0.00  0.00    -0.273 OA
ATOM      4  H   VAL A   1       0.374  -5.998  -2.318  0.00  0.00    +0.150 HD
ENDROOT
BRANCH   2   5
ATOM      5  C   UNK A   0       2.003  -7.255  -3.952  0.00  0.00    +0.238 C 
ATOM      6  C   UNK A   0       2.860  -7.477  -2.728  0.00  0.00    +0.191 C 
ATOM      7  C   UNK A   0       3.393  -8.944  -2.735  0.00  0.00    +0.187 C 
ATOM      8  C   UNK A   0       4.295  -9.018  -3.935  0.00  0.00    +0.209 C 
ATOM      9  C   UNK A   0       3.344  -8.807  -5.153  0.00  0.00    +0.286 C 
ATOM     10  O   UNK A   0       2.807  -7.512  -5.131  0.00  0.00    -0.333 OA
ATOM     11  O   UNK A   0       4.147  -9.224  -6.242  0.00  0.00    -0.318 OA
ATOM     12  C   UNK A   0       5.059 -10.208  -5.700  0.00  0.00    +0.168 C 
ATOM     13  O   UNK A   0       4.858 -10.293  -4.258  0.00  0.00    -0.338 OA
ATOM     14  C   UNK A   0       4.793 -11.569  -6.346  0.00  0.00    +0.074 C 
ATOM     15  C   UNK A   0       6.502  -9.781  -5.977  0.00  0.00    +0.074 C 
ATOM     16  O   UNK A   0       3.952  -9.044  -1.434  0.00  0.00    -0.341 OA
ATOM     17  C   UNK A   0       3.176  -8.149  -0.603  0.00  0.00    +0.166 C 
ATOM     18  O   UNK A   0       2.233  -7.449  -1.449  0.00  0.00    -0.340 OA
ATOM     19  C   UNK A   0       2.413  -8.955   0.450  0.00  0.00    +0.074 C 
ATOM     20  C   UNK A   0       4.107  -7.151   0.089  0.00  0.00    +0.074 C 
ENDBRANCH   2   5
BRANCH   1  21
ATOM     21  CA  VAL A   1       0.187  -4.011  -3.042  0.00  0.00    +0.161 C 
BRANCH  21  23
ATOM     22  N   VAL A   1      -0.138  -2.291  -1.294  0.00  0.00    -0.301 N 
ATOM     23  C   VAL A   1      -0.199  -3.590  -1.647  0.00  0.00    +0.234 C 
ATOM     24  O   VAL A   1      -0.565  -4.421  -0.843  0.00  0.00    -0.274 OA
ATOM     25  H   VAL A   1       0.223  -1.637  -1.913  0.00  0.00    +0.150 HD
BRANCH  22  26
ATOM     26  CA  VAL A   1      -0.616  -1.867   0.024  0.00  0.00    +0.186 C 
BRANCH  26  27
ATOM     27  C   VAL A   1      -2.103  -1.632  -0.033  0.00  0.00    +0.376 C 
ATOM     28  O   VAL A   1      -2.623  -1.263  -1.072  0.00  0.00    -0.244 OA
ATOM     29  OXT VAL A   1      -2.787  -1.811   0.961  0.00  0.00    -0.244 OA
ENDBRANCH  26  27
BRANCH  26  30
ATOM     30  CB  VAL A   1       0.090  -0.572   0.430  0.00  0.00    +0.037 C 
BRANCH  30  32
ATOM     31  CD1 VAL A   1       2.309   0.477   0.893  0.00  0.00    +0.007 C 
ATOM     32  CG  VAL A   1       1.585  -0.840   0.609  0.00  0.00    -0.015 C 
ATOM     33  CD2 VAL A   1       1.794  -1.800   1.782  0.00  0.00    +0.007 C 
ENDBRANCH  30  32
ENDBRANCH  26  30
ENDBRANCH  22  26
ENDBRANCH  21  23
BRANCH  21  34
ATOM     34  CB  VAL A   1      -1.032  -3.907  -3.962  0.00  0.00    +0.012 C 
ATOM     35  CG1 VAL A   1      -1.465  -2.444  -4.071  0.00  0.00    +0.009 C 
ATOM     36  CG2 VAL A   1      -0.669  -4.436  -5.351  0.00  0.00    +0.009 C 
ENDBRANCH  21  34
ENDBRANCH   1  21
TORSDOF 8
