REMARK  Name = ZINC09542683
REMARK  6 active torsions:
REMARK  status: ('A' for Active; 'I' for Inactive)
REMARK    1  A    between atoms: C_1  and  C_2
REMARK    2  A    between atoms: C_2  and  C_3
REMARK    3  A    between atoms: C_6  and  C_9
REMARK    4  A    between atoms: C_11  and  C_24
REMARK    5  A    between atoms: C_13  and  C_16
REMARK    6  A    between atoms: C_21  and  O_22
REMARK                            x       y       z     vdW  Elec       q    Type
REMARK                         _______ _______ _______ _____ _____    ______ ____
ROOT
ATOM      1  C   UNL     1      -2.874   1.247   1.671  0.00  0.00    +0.040 C 
ATOM      2  N   UNL     1      -2.380   1.217   0.491  0.00  0.00    -0.298 NA
ATOM      3  C   UNL     1      -1.332   2.114   0.020  0.00  0.00    +0.082 C 
ATOM      4  C   UNL     1      -1.106   2.865   2.301  0.00  0.00    -0.028 C 
ATOM      5  C   UNL     1      -2.435   2.229   2.720  0.00  0.00    +0.044 C 
ATOM      6  N   UNL     1      -1.223   3.292   0.893  0.00  0.00    +0.401 N 
ATOM      7  H   UNL     1      -2.060   3.877   0.782  0.00  0.00    -0.081 HD
ATOM      8  H   UNL     1      -0.391   3.834   0.631  0.00  0.00    -0.081 HD
ENDROOT
BRANCH   3   9
ATOM      9  C   UNL     1      -0.017   1.378   0.010  0.00  0.00    -0.022 A 
ATOM     10  C   UNL     1       0.175   0.294   0.845  0.00  0.00    +0.006 A 
ATOM     11  C   UNL     1       1.379  -0.385   0.832  0.00  0.00    +0.020 A 
ATOM     12  C   UNL     1       2.393   0.021  -0.018  0.00  0.00    +0.042 A 
ATOM     13  C   UNL     1       2.202   1.106  -0.854  0.00  0.00    +0.040 A 
ATOM     14  C   UNL     1       0.996   1.785  -0.840  0.00  0.00    +0.046 A 
ATOM     15 CL   UNL     1       0.755   3.146  -1.890  0.00  0.00    -0.083 Cl
ATOM     16 CL   UNL     1       3.905  -0.833  -0.035  0.00  0.00    -0.083 Cl
ENDBRANCH   3   9
BRANCH   4  17
ATOM     17  C   UNL     1      -0.819   4.063   3.169  0.00  0.00    -0.018 A 
ATOM     18  C   UNL     1      -1.172   5.328   2.741  0.00  0.00    +0.020 A 
ATOM     19  C   UNL     1      -0.913   6.427   3.540  0.00  0.00    +0.018 A 
ATOM     20  C   UNL     1      -0.290   6.263   4.764  0.00  0.00    +0.019 A 
ATOM     21  C   UNL     1       0.069   5.001   5.194  0.00  0.00    +0.047 A 
ATOM     22  C   UNL     1      -0.195   3.896   4.397  0.00  0.00    +0.119 A 
ATOM     23 BR   UNL     1      -1.404   8.157   2.954  0.00  0.00    -0.050 Br
BRANCH  22  24
ATOM     24  O   UNL     1       0.158   2.653   4.817  0.00  0.00    -0.507 OA
ATOM     25  H   UNL     1       1.048   2.386   4.551  0.00  0.00    +0.292 HD
ENDBRANCH  22  24
ENDBRANCH   4  17
BRANCH   1  29
ATOM     26  C   UNL     1      -5.897  -1.563   2.668  0.00  0.00    -0.048 A 
ATOM     27  C   UNL     1      -5.343  -1.569   1.401  0.00  0.00    +0.004 A 
ATOM     28  C   UNL     1      -4.360  -0.659   1.070  0.00  0.00    +0.010 A 
ATOM     29  C   UNL     1      -3.925   0.270   2.017  0.00  0.00    -0.004 A 
ATOM     30  C   UNL     1      -4.486   0.267   3.296  0.00  0.00    +0.010 A 
ATOM     31  C   UNL     1      -5.471  -0.645   3.612  0.00  0.00    +0.004 A 
BRANCH  26  33
ATOM     32  C   UNL     1      -6.322  -3.826   3.589  0.00  0.00    +0.009 C 
ATOM     33  C   UNL     1      -6.970  -2.560   3.022  0.00  0.00    +0.032 C 
ENDBRANCH  26  33
ENDBRANCH   1  29
TORSDOF 5
