REMARK  Name = ZINC40427278
REMARK  8 active torsions:
REMARK  status: ('A' for Active; 'I' for Inactive)
REMARK    1  A    between atoms: C_1  and  C_2
REMARK    2  A    between atoms: C_7  and  C_8
REMARK    3  A    between atoms: N_17  and  C_18
REMARK    4  A    between atoms: C_18  and  C_19
REMARK    5  A    between atoms: C_25  and  C_28
REMARK    6  A    between atoms: C_29  and  C_31
REMARK    7  A    between atoms: C_36  and  O_37
REMARK    8  A    between atoms: O_37  and  C_38
REMARK                            x       y       z     vdW  Elec       q    Type
REMARK                         _______ _______ _______ _____ _____    ______ ____
ROOT
ATOM      1  C   UNL     1       2.585  -2.063   4.188  0.00  0.00    +0.199 C 
ATOM      2  O   UNL     1       1.895  -2.511   5.079  0.00  0.00    -0.278 OA
ATOM      3  N   UNL     1       3.881  -2.421   4.095  0.00  0.00    -0.300 N 
ATOM      4  C   UNL     1       4.731  -1.881   3.025  0.00  0.00    +0.126 C 
ATOM      5  C   UNL     1       5.355  -3.053   2.256  0.00  0.00    +0.127 C 
ATOM      6  N   UNL     1       5.944  -3.989   3.224  0.00  0.00    -0.292 N 
ATOM      7  C   UNL     1       5.094  -4.528   4.295  0.00  0.00    +0.091 C 
ATOM      8  C   UNL     1       4.471  -3.352   5.066  0.00  0.00    +0.130 C 
ATOM      9  C   UNL     1       3.989  -5.394   3.686  0.00  0.00    +0.029 C 
ATOM     10  C   UNL     1       7.240  -4.346   3.131  0.00  0.00    +0.250 C 
ATOM     11  O   UNL     1       7.743  -5.037   3.996  0.00  0.00    -0.270 OA
ENDROOT
BRANCH  10  12
ATOM     12  C   UNL     1       8.048  -3.899   1.981  0.00  0.00    +0.078 A 
ATOM     13  C   UNL     1       7.612  -4.148   0.677  0.00  0.00    +0.017 A 
ATOM     14  C   UNL     1       8.371  -3.727  -0.393  0.00  0.00    +0.001 A 
ATOM     15  C   UNL     1       9.565  -3.058  -0.183  0.00  0.00    +0.004 A 
ATOM     16  C   UNL     1      10.008  -2.805   1.100  0.00  0.00    +0.046 A 
ATOM     17  C   UNL     1       9.254  -3.216   2.189  0.00  0.00    +0.132 A 
BRANCH  17  18
ATOM     18  O   UNL     1       9.685  -2.964   3.450  0.00  0.00    -0.494 OA
ATOM     19  C   UNL     1      10.923  -2.264   3.585  0.00  0.00    +0.277 C 
ENDBRANCH  17  18
ENDBRANCH  10  12
BRANCH   1  20
ATOM     20  C   UNL     1       1.993  -1.107   3.185  0.00  0.00    +0.020 C 
BRANCH  20  29
ATOM     21  C   UNL     1      -0.024  -0.044   2.454  0.00  0.00    -0.005 C 
ATOM     22  C   UNL     1      -1.465   0.273   2.842  0.00  0.00    -0.047 A 
ATOM     23  C   UNL     1      -2.439   0.696   1.942  0.00  0.00    +0.010 A 
ATOM     24  C   UNL     1      -3.696   0.953   2.376  0.00  0.00    +0.045 A 
ATOM     25  S   UNL     1      -3.562   0.600   4.123  0.00  0.00    -0.101 S 
ATOM     26  C   UNL     1      -1.853   0.143   4.142  0.00  0.00    -0.010 A 
ATOM     27  C   UNL     1      -0.993  -0.289   5.285  0.00  0.00    +0.024 C 
ATOM     28  C   UNL     1       0.470  -0.228   4.814  0.00  0.00    -0.072 C 
ATOM     29  N   UNL     1       0.577  -0.880   3.501  0.00  0.00    +0.393 N 
ATOM     30  H   UNL     1       0.098  -1.767   3.533  0.00  0.00    -0.080 HD
BRANCH  21  37
ATOM     31  C   UNL     1      -0.064   1.421  -0.035  0.00  0.00    +0.044 C 
ATOM     32  C   UNL     1      -0.024  -0.085  -0.048  0.00  0.00    -0.049 A 
ATOM     33  C   UNL     1      -0.001  -0.765  -1.252  0.00  0.00    +0.003 A 
ATOM     34  C   UNL     1       0.035  -2.147  -1.264  0.00  0.00    +0.000 A 
ATOM     35  C   UNL     1       0.049  -2.849  -0.072  0.00  0.00    +0.000 A 
ATOM     36  C   UNL     1       0.027  -2.168   1.131  0.00  0.00    +0.002 A 
ATOM     37  C   UNL     1      -0.005  -0.786   1.143  0.00  0.00    -0.054 A 
ENDBRANCH  21  37
ENDBRANCH  20  29
ENDBRANCH   1  20
TORSDOF 5
