REMARK  Name = ZINC59153632
REMARK  8 active torsions:
REMARK  status: ('A' for Active; 'I' for Inactive)
REMARK    1  A    between atoms: C_1  and  N_2
REMARK    2  A    between atoms: N_2  and  C_3
REMARK    3  A    between atoms: N_2  and  C_4
REMARK    4  A    between atoms: C_7  and  C_10
REMARK    5  A    between atoms: N_12  and  N_13
REMARK    6  A    between atoms: N_21  and  C_24
REMARK    7  A    between atoms: C_24  and  C_25
REMARK    8  A    between atoms: C_24  and  C_31
REMARK                            x       y       z     vdW  Elec       q    Type
REMARK                         _______ _______ _______ _____ _____    ______ ____
ROOT
ATOM      1  N   UNL     1     -10.053  -5.971   2.757  0.00  0.00    -0.174 NA
ATOM      2  C   UNL     1     -10.180  -4.791   2.201  0.00  0.00    +0.153 C 
ATOM      3  C   UNL     1      -9.131  -3.761   2.021  0.00  0.00    +0.028 A 
ATOM      4  C   UNL     1      -7.781  -3.708   2.352  0.00  0.00    +0.012 A 
ATOM      5  C   UNL     1      -7.045  -2.581   2.047  0.00  0.00    +0.001 A 
ATOM      6  C   UNL     1      -7.649  -1.508   1.415  0.00  0.00    +0.002 A 
ATOM      7  C   UNL     1      -8.988  -1.550   1.082  0.00  0.00    +0.024 A 
ATOM      8  C   UNL     1      -9.746  -2.677   1.381  0.00  0.00    +0.047 A 
ATOM      9  N   UNL     1     -11.086  -2.974   1.160  0.00  0.00    -0.254 N 
ATOM     10  C   UNL     1     -11.399  -4.200   1.613  0.00  0.00    +0.272 C 
ATOM     11  O   UNL     1     -12.493  -4.728   1.552  0.00  0.00    -0.268 OA
ENDROOT
BRANCH   1  14
ATOM     12  C   UNL     1      -8.719  -7.528   3.968  0.00  0.00    +0.263 C 
ATOM     13  O   UNL     1      -9.557  -8.385   3.762  0.00  0.00    -0.268 OA
ATOM     14  N   UNL     1      -8.900  -6.280   3.490  0.00  0.00    -0.202 N 
ATOM     15  H   UNL     1      -8.232  -5.597   3.654  0.00  0.00    +0.178 HD
BRANCH  12  19
ATOM     16  C   UNL     1      -5.228  -8.463   6.185  0.00  0.00    +0.029 A 
ATOM     17  C   UNL     1      -6.186  -9.446   5.952  0.00  0.00    +0.024 A 
ATOM     18  C   UNL     1      -7.316  -9.147   5.235  0.00  0.00    +0.015 A 
ATOM     19  C   UNL     1      -7.506  -7.853   4.739  0.00  0.00    +0.038 A 
ATOM     20  C   UNL     1      -6.541  -6.868   4.975  0.00  0.00    +0.015 A 
ATOM     21  C   UNL     1      -5.416  -7.173   5.697  0.00  0.00    +0.024 A 
BRANCH  16  23
ATOM     22  C   UNL     1      -3.076  -7.736   7.163  0.00  0.00    +0.129 C 
ATOM     23  N   UNL     1      -4.083  -8.770   6.912  0.00  0.00    -0.336 N 
ATOM     24  C   UNL     1      -3.883 -10.127   7.426  0.00  0.00    +0.129 C 
ENDBRANCH  16  23
ENDBRANCH  12  19
ENDBRANCH   1  14
BRANCH   9  25
ATOM     25  C   UNL     1     -12.036  -2.067   0.510  0.00  0.00    +0.142 C 
BRANCH  25  26
ATOM     26  C   UNL     1     -12.750  -2.798  -0.597  0.00  0.00    -0.022 A 
ATOM     27  C   UNL     1     -12.225  -3.972  -1.102  0.00  0.00    +0.006 A 
ATOM     28  C   UNL     1     -12.880  -4.642  -2.118  0.00  0.00    +0.000 A 
ATOM     29  C   UNL     1     -14.062  -4.138  -2.629  0.00  0.00    +0.000 A 
ATOM     30  C   UNL     1     -14.588  -2.964  -2.123  0.00  0.00    +0.000 A 
ATOM     31  C   UNL     1     -13.934  -2.296  -1.104  0.00  0.00    +0.006 A 
ENDBRANCH  25  26
BRANCH  25  32
ATOM     32  C   UNL     1     -13.041  -1.583   1.523  0.00  0.00    -0.022 A 
ATOM     33  C   UNL     1     -13.334  -2.356   2.631  0.00  0.00    +0.006 A 
ATOM     34  C   UNL     1     -14.256  -1.912   3.560  0.00  0.00    +0.000 A 
ATOM     35  C   UNL     1     -14.885  -0.694   3.381  0.00  0.00    +0.000 A 
ATOM     36  C   UNL     1     -14.592   0.080   2.274  0.00  0.00    +0.000 A 
ATOM     37  C   UNL     1     -13.666  -0.363   1.347  0.00  0.00    +0.006 A 
ENDBRANCH  25  32
ENDBRANCH   9  25
TORSDOF 6
