REMARK  Name = ZINC02111570
REMARK  13 active torsions:
REMARK  status: ('A' for Active; 'I' for Inactive)
REMARK    1  A    between atoms: C_1  and  C_2
REMARK    2  A    between atoms: C_6  and  O_30
REMARK    3  A    between atoms: C_12  and  C_13
REMARK    4  A    between atoms: C_13  and  C_14
REMARK    5  A    between atoms: C_14  and  C_15
REMARK    6  A    between atoms: N_17  and  C_18
REMARK    7  A    between atoms: C_18  and  C_19
REMARK    8  A    between atoms: N_21  and  CA_22
REMARK    9  A    between atoms: CA_22  and  CB_24
REMARK   10  A    between atoms: CA_22  and  C_28
REMARK   11  A    between atoms: CB_24  and  CG_25
REMARK   12  A    between atoms: CG_25  and  CD1_26
REMARK   13  A    between atoms: CG_25  and  CD2_27
REMARK                            x       y       z     vdW  Elec       q    Type
REMARK                         _______ _______ _______ _____ _____    ______ ____
ROOT
ATOM      1  C   UNK A   0      -2.733   7.084   3.083  0.00  0.00    +0.214 C 
ATOM      2  O   UNK A   0      -1.923   7.850   2.606  0.00  0.00    -0.276 OA
ATOM      3  N   UNK A   0      -2.605   5.757   2.884  0.00  0.00    -0.307 N 
ATOM      4  H   UNK A   0      -3.253   5.144   3.266  0.00  0.00    +0.149 HD
ENDROOT
BRANCH   1   5
ATOM      5  C   UNK A   0      -3.882   7.615   3.900  0.00  0.00    +0.100 C 
BRANCH   5   6
ATOM      6  C   UNK A   0      -3.795   9.141   3.972  0.00  0.00    +0.052 C 
BRANCH   6  18
ATOM      7  C   UNK A   0      -3.520   9.478   6.827  0.00  0.00    +0.045 C 
ATOM      8  C   UNK A   0      -4.810   9.829   6.132  0.00  0.00    -0.030 A 
ATOM      9  C   UNK A   0      -5.954  10.349   6.885  0.00  0.00    +0.021 A 
ATOM     10  C   UNK A   0      -5.880  10.534   8.270  0.00  0.00    +0.015 A 
ATOM     11  C   UNK A   0      -6.960  11.019   8.948  0.00  0.00    +0.046 A 
ATOM     12  C   UNK A   0      -8.136  11.333   8.270  0.00  0.00    +0.120 A 
ATOM     13  C   UNK A   0      -8.227  11.156   6.899  0.00  0.00    +0.092 A 
ATOM     14  C   UNK A   0      -7.139  10.664   6.194  0.00  0.00    +0.143 A 
ATOM     15  O   UNK A   0      -7.205  10.485   4.857  0.00  0.00    -0.422 OA
ATOM     16  C   UNK A   0      -6.159  10.014   4.161  0.00  0.00    +0.341 A 
ATOM     17  O   UNK A   0      -6.264   9.873   2.955  0.00  0.00    -0.245 OA
ATOM     18  C   UNK A   0      -4.944   9.672   4.789  0.00  0.00    +0.041 A 
BRANCH  12  19
ATOM     19  O   UNK A   0      -9.203  11.815   8.958  0.00  0.00    -0.507 OA
ATOM     20  H   UNK A   0      -9.803  11.130   9.283  0.00  0.00    +0.292 HD
ENDBRANCH  12  19
ENDBRANCH   6  18
ENDBRANCH   5   6
ENDBRANCH   1   5
BRANCH   3  21
ATOM     21  C   UNK A   0      -1.487   5.240   2.090  0.00  0.00    +0.200 C 
BRANCH  21  22
ATOM     22  C   UNK A   0      -1.574   3.737   2.019  0.00  0.00    +0.231 C 
ATOM     23  O   UNK A   0      -2.480   3.155   2.577  0.00  0.00    -0.274 OA
ATOM     24  N   LEU A   1      -0.645   3.040   1.336  0.00  0.00    -0.301 N 
ATOM     25  H   LEU A   1       0.080   3.506   0.889  0.00  0.00    +0.150 HD
BRANCH  24  26
ATOM     26  CA  LEU A   1      -0.729   1.579   1.267  0.00  0.00    +0.186 C 
BRANCH  26  27
ATOM     27  C   LEU A   1      -0.074   0.981   2.485  0.00  0.00    +0.376 C 
ATOM     28  O   LEU A   1       0.413   1.700   3.324  0.00  0.00    -0.244 OA
ATOM     29  OXT LEU A   1      -0.032  -0.352   2.637  0.00  0.00    -0.244 OA
ENDBRANCH  26  27
BRANCH  26  30
ATOM     30  CB  LEU A   1      -0.013   1.086   0.008  0.00  0.00    +0.037 C 
BRANCH  30  31
ATOM     31  CG  LEU A   1      -0.753   1.593  -1.232  0.00  0.00    -0.015 C 
ATOM     32  CD1 LEU A   1       0.031   1.205  -2.487  0.00  0.00    +0.007 C 
ATOM     33  CD2 LEU A   1      -2.147   0.964  -1.286  0.00  0.00    +0.007 C 
ENDBRANCH  30  31
ENDBRANCH  26  30
ENDBRANCH  24  26
ENDBRANCH  21  22
ENDBRANCH   3  21
TORSDOF 10
