REMARK  Name = ZINC02430586
REMARK  15 active torsions:
REMARK  status: ('A' for Active; 'I' for Inactive)
REMARK    1  A    between atoms: C_1  and  C_2
REMARK    2  A    between atoms: C_2  and  C_4
REMARK    3  A    between atoms: C_2  and  O_35
REMARK    4  A    between atoms: C_4  and  N_5
REMARK    5  A    between atoms: N_5  and  C_6
REMARK    6  A    between atoms: C_6  and  C_7
REMARK    7  A    between atoms: C_7  and  C_9
REMARK    8  A    between atoms: C_7  and  O_10
REMARK    9  A    between atoms: C_17  and  C_21
REMARK   10  A    between atoms: C_21  and  C_22
REMARK   11  A    between atoms: C_21  and  C_23
REMARK   12  A    between atoms: C_26  and  C_28
REMARK   13  A    between atoms: C_26  and  C_29
REMARK   14  A    between atoms: C_31  and  S_33
REMARK   15  A    between atoms: S_33  and  C_34
REMARK                            x       y       z     vdW  Elec       q    Type
REMARK                         _______ _______ _______ _____ _____    ______ ____
ROOT
ATOM      1  N   UNL     1       0.630  -1.979  -1.363  0.00  0.00    -0.309 N 
ATOM      2  C   UNL     1       1.535  -2.851  -0.779  0.00  0.00    +0.140 A 
ATOM      3  C   UNL     1       1.395  -4.225  -0.925  0.00  0.00    +0.080 A 
ATOM      4  C   UNL     1       2.305  -5.111  -0.338  0.00  0.00    +0.094 A 
ATOM      5  C   UNL     1       2.047  -6.545  -0.566  0.00  0.00    +0.037 A 
ATOM      6  C   UNL     1       2.800  -7.644  -0.092  0.00  0.00    -0.026 A 
ATOM      7  C   UNL     1       2.401  -8.920  -0.407  0.00  0.00    +0.004 A 
ATOM      8  C   UNL     1       1.270  -9.116  -1.192  0.00  0.00    +0.051 A 
ATOM      9  N   UNL     1       0.574  -8.088  -1.633  0.00  0.00    -0.244 NA
ATOM     10  C   UNL     1       0.920  -6.851  -1.348  0.00  0.00    +0.111 A 
ATOM     11  S   UNL     1       0.230  -5.267  -1.759  0.00  0.00    -0.064 S 
ATOM     12  C   UNL     1       3.162 -10.123   0.086  0.00  0.00    +0.197 C 
ATOM     13  O   UNL     1       4.459  -9.734   0.538  0.00  0.00    -0.369 OA
ATOM     14  C   UNL     1       4.429  -8.657   1.481  0.00  0.00    +0.068 C 
ATOM     15  C   UNL     1       4.021  -7.378   0.745  0.00  0.00    +0.070 C 
ATOM     16  C   UNL     1       5.818  -8.474   2.097  0.00  0.00    +0.041 C 
ATOM     17  C   UNL     1       3.411  -8.964   2.581  0.00  0.00    +0.041 C 
ATOM     18  N   UNL     1       3.312  -4.548   0.369  0.00  0.00    -0.221 NA
ATOM     19  C   UNL     1       3.417  -3.241   0.490  0.00  0.00    +0.190 A 
ATOM     20  N   UNL     1       2.563  -2.391  -0.068  0.00  0.00    -0.206 NA
ENDROOT
BRANCH   8  21
ATOM     21  C   UNL     1       0.838 -10.517  -1.542  0.00  0.00    +0.032 C 
ATOM     22  C   UNL     1      -0.573 -10.764  -1.004  0.00  0.00    +0.014 C 
ATOM     23  C   UNL     1       0.842 -10.687  -3.062  0.00  0.00    +0.014 C 
ENDBRANCH   8  21
BRANCH  19  24
ATOM     24  S   UNL     1       4.758  -2.590   1.428  0.00  0.00    -0.089 S 
ATOM     25  C   UNL     1       5.659  -4.062   1.987  0.00  0.00    +0.093 C 
ENDBRANCH  19  24
BRANCH   1  26
ATOM     26  C   UNL     1      -0.546  -2.504  -2.061  0.00  0.00    +0.137 C 
BRANCH  26  28
ATOM     27  C   UNL     1      -1.519  -3.022  -4.303  0.00  0.00    +0.039 C 
ATOM     28  C   UNL     1      -0.253  -2.593  -3.560  0.00  0.00    +0.129 C 
BRANCH  28  29
ATOM     29  O   UNL     1       0.781  -3.554  -3.786  0.00  0.00    -0.391 OA
ATOM     30  H   UNL     1       1.019  -3.663  -4.717  0.00  0.00    +0.210 HD
ENDBRANCH  28  29
ENDBRANCH  26  28
ENDBRANCH   1  26
BRANCH   1  31
ATOM     31  C   UNL     1       0.850  -0.533  -1.284  0.00  0.00    +0.137 C 
BRANCH  31  32
ATOM     32  C   UNL     1       0.265   0.000   0.025  0.00  0.00    +0.129 C 
ATOM     33  C   UNL     1       0.484   1.513   0.103  0.00  0.00    +0.039 C 
BRANCH  32  34
ATOM     34  O   UNL     1       0.913  -0.633   1.130  0.00  0.00    -0.391 OA
ATOM     35  H   UNL     1       1.853  -0.421   1.208  0.00  0.00    +0.210 HD
ENDBRANCH  32  34
ENDBRANCH  31  32
ENDBRANCH   1  31
TORSDOF 8
