REMARK  Name = ZINC33812500
REMARK  16 active torsions:
REMARK  status: ('A' for Active; 'I' for Inactive)
REMARK    1  A    between atoms: C_1  and  C_2
REMARK    2  A    between atoms: C_2  and  C_3
REMARK    3  A    between atoms: C_3  and  C_4
REMARK    4  A    between atoms: C_4  and  C_5
REMARK    5  A    between atoms: C_5  and  C_7
REMARK    6  A    between atoms: C_5  and  C_9
REMARK    7  A    between atoms: C_7  and  C_8
REMARK    8  A    between atoms: C_9  and  N_10
REMARK    9  A    between atoms: C_14  and  C_15
REMARK   10  A    between atoms: C_16  and  C_34
REMARK   11  A    between atoms: C_17  and  C_32
REMARK   12  A    between atoms: N_20  and  C_30
REMARK   13  A    between atoms: C_21  and  N_22
REMARK   14  A    between atoms: N_25  and  C_28
REMARK   15  A    between atoms: C_28  and  C_29
REMARK   16  A    between atoms: C_30  and  C_31
REMARK                            x       y       z     vdW  Elec       q    Type
REMARK                         _______ _______ _______ _____ _____    ______ ____
ROOT
ATOM      1  C   UNL     1       6.520  -5.405   6.049  0.00  0.00    +0.019 A 
ATOM      2  C   UNL     1       5.716  -5.959   7.059  0.00  0.00    -0.017 A 
ATOM      3  C   UNL     1       6.324  -6.447   8.212  0.00  0.00    +0.120 A 
ATOM      4  C   UNL     1       7.735  -6.374   8.340  0.00  0.00    +0.270 A 
ATOM      5  O   UNL     1       8.274  -6.800   9.346  0.00  0.00    -0.266 OA
ATOM      6  N   UNL     1       8.483  -5.839   7.358  0.00  0.00    -0.295 N 
ATOM      7  C   UNL     1       7.913  -5.361   6.222  0.00  0.00    +0.112 A 
ATOM      8  C   UNL     1       4.219  -6.023   6.898  0.00  0.00    +0.046 C 
ENDROOT
BRANCH   1  13
ATOM      9  N   UNL     1       4.125  -6.460   2.043  0.00  0.00    -0.255 N 
ATOM     10  C   UNL     1       4.648  -5.449   2.715  0.00  0.00    +0.258 C 
ATOM     11  O   UNL     1       4.575  -4.309   2.291  0.00  0.00    -0.269 OA
ATOM     12  C   UNL     1       5.301  -5.732   3.953  0.00  0.00    +0.077 C 
ATOM     13  C   UNL     1       5.911  -4.883   4.824  0.00  0.00    +0.032 C 
ATOM     14  S   UNL     1       5.096  -7.505   4.047  0.00  0.00    -0.061 S 
ATOM     15  C   UNL     1       4.201  -7.723   2.517  0.00  0.00    +0.121 C 
ATOM     16  S   UNL     1       3.595  -9.167   1.825  0.00  0.00    -0.027 S 
BRANCH   9  17
ATOM     17  C   UNL     1       3.448  -6.206   0.769  0.00  0.00    +0.118 C 
BRANCH  17  18
ATOM     18  C   UNL     1       1.943  -6.072   1.009  0.00  0.00    +0.007 C 
BRANCH  18  19
ATOM     19  C   UNL     1       1.233  -5.832  -0.325  0.00  0.00    +0.002 C 
ATOM     20  C   UNL     1       1.371  -7.075  -1.207  0.00  0.00    +0.004 C 
ENDBRANCH  18  19
BRANCH  18  21
ATOM     21  C   UNL     1       1.679  -4.892   1.946  0.00  0.00    +0.005 C 
BRANCH  21  22
ATOM     22  C   UNL     1       0.188  -4.834   2.286  0.00  0.00    +0.000 C 
BRANCH  22  24
ATOM     23  C   UNL     1      -1.566  -3.596   3.563  0.00  0.00    +0.004 C 
ATOM     24  C   UNL     1      -0.075  -3.654   3.224  0.00  0.00    -0.003 C 
ENDBRANCH  22  24
ENDBRANCH  21  22
ENDBRANCH  18  21
ENDBRANCH  17  18
ENDBRANCH   9  17
ENDBRANCH   1  13
BRANCH   7  25
ATOM     25  N   UNL     1       8.700  -4.829   5.242  0.00  0.00    -0.320 N 
ATOM     26  C   UNL     1       9.139  -5.645   4.099  0.00  0.00    +0.088 C 
ATOM     27  C   UNL     1       8.825  -4.880   2.808  0.00  0.00    -0.060 C 
ATOM     28  N   UNL     1       9.435  -3.546   2.871  0.00  0.00    +0.382 N 
ATOM     29  C   UNL     1       8.820  -2.765   3.951  0.00  0.00    -0.060 C 
ATOM     30  C   UNL     1       9.129  -3.423   5.296  0.00  0.00    +0.088 C 
ATOM     31  H   UNL     1      10.425  -3.637   3.045  0.00  0.00    -0.082 HD
BRANCH  28  32
ATOM     32  C   UNL     1       9.228  -2.855   1.591  0.00  0.00    -0.082 C 
ATOM     33  C   UNL     1       9.968  -1.516   1.609  0.00  0.00    -0.017 C 
ENDBRANCH  28  32
ENDBRANCH   7  25
BRANCH   6  34
ATOM     34  C   UNL     1       9.938  -5.775   7.515  0.00  0.00    +0.123 C 
ATOM     35  C   UNL     1      10.573  -7.019   6.892  0.00  0.00    +0.027 C 
ENDBRANCH   6  34
BRANCH   3  36
ATOM     36  C   UNL     1       5.533  -7.017   9.261  0.00  0.00    +0.105 C 
ATOM     37  N   UNL     1       4.905  -7.470  10.092  0.00  0.00    -0.191 NA
ENDBRANCH   3  36
TORSDOF 11
