REMARK  Name = ZINC12895754
REMARK  8 active torsions:
REMARK  status: ('A' for Active; 'I' for Inactive)
REMARK    1  A    between atoms: C_1  and  C_2
REMARK    2  A    between atoms: C_9  and  O_20
REMARK    3  A    between atoms: C_12  and  C_14
REMARK    4  A    between atoms: C_23  and  O_40
REMARK    5  A    between atoms: C_24  and  C_31
REMARK    6  A    between atoms: C_27  and  O_30
REMARK    7  A    between atoms: N_32  and  N_33
REMARK    8  A    between atoms: N_33  and  C_34
REMARK                            x       y       z     vdW  Elec       q    Type
REMARK                         _______ _______ _______ _____ _____    ______ ____
ROOT
ATOM      1  C   UNL     1       4.218   6.421   0.274  0.00  0.00    +0.014 C 
ATOM      2  C   UNL     1       2.704   6.300   0.095  0.00  0.00    +0.004 C 
ATOM      3  C   UNL     1       1.991   6.120   1.437  0.00  0.00    +0.010 C 
ATOM      4  C   UNL     1       2.221   4.718   1.996  0.00  0.00    +0.005 C 
ATOM      5  C   UNL     1       1.633   3.703   1.011  0.00  0.00    +0.009 C 
ATOM      6  C   UNL     1       2.416   3.797  -0.297  0.00  0.00    +0.025 C 
ATOM      7  C   UNL     1       2.314   5.184  -0.891  0.00  0.00    +0.075 C 
ATOM      8  C   UNL     1       0.873   5.549  -1.294  0.00  0.00    +0.036 C 
ATOM      9  C   UNL     1       0.914   7.089  -1.421  0.00  0.00    +0.011 C 
ATOM     10  C   UNL     1       2.098   7.570  -0.561  0.00  0.00    +0.027 C 
ATOM     11  C   UNL     1       3.883   3.441  -0.044  0.00  0.00    +0.009 C 
ATOM     12  C   UNL     1       3.982   2.020   0.511  0.00  0.00    +0.036 C 
ATOM     13  C   UNL     1       2.580   1.422   0.646  0.00  0.00    +0.079 C 
ATOM     14  C   UNL     1       1.745   2.292   1.587  0.00  0.00    +0.039 C 
ATOM     15  C   UNL     1       0.346   1.690   1.733  0.00  0.00    +0.018 C 
ATOM     16  C   UNL     1       0.454   0.276   2.306  0.00  0.00    +0.032 C 
ATOM     17  C   UNL     1       1.286  -0.593   1.360  0.00  0.00    +0.117 C 
ATOM     18  C   UNL     1       2.686   0.006   1.218  0.00  0.00    +0.067 C 
ENDROOT
BRANCH  10  19
ATOM     19  C   UNL     1       1.612   8.521   0.502  0.00  0.00    -0.022 C 
ATOM     20  C   UNL     1       0.349   8.721   0.868  0.00  0.00    +0.094 C 
ATOM     21  C   UNL     1       0.302   9.725   1.935  0.00  0.00    +0.332 C 
ATOM     22  O   UNL     1      -0.712  10.121   2.476  0.00  0.00    -0.246 OA
ATOM     23  O   UNL     1       1.547  10.145   2.227  0.00  0.00    -0.457 OA
ATOM     24  C   UNL     1       2.468   9.423   1.360  0.00  0.00    +0.264 C 
ENDBRANCH  10  19
BRANCH   7  25
ATOM     25  O   UNL     1       3.149   5.266  -2.048  0.00  0.00    -0.388 OA
ATOM     26  H   UNL     1       2.923   4.630  -2.741  0.00  0.00    +0.210 HD
ENDBRANCH   7  25
BRANCH  17  27
ATOM     27  O   UNL     1       1.385  -1.916   1.892  0.00  0.00    -0.392 OA
ATOM     28  H   UNL     1       0.533  -2.357   2.010  0.00  0.00    +0.210 HD
ENDBRANCH  17  27
BRANCH  14  29
ATOM     29  C   UNL     1       2.410   2.353   2.939  0.00  0.00    +0.113 C 
ATOM     30  N   UNL     1       1.789   1.932   3.976  0.00  0.00    -0.194 NA
BRANCH  30  31
ATOM     31  N   UNL     1       2.407   1.988   5.232  0.00  0.00    -0.238 N 
ATOM     32  H   UNL     1       3.305   2.346   5.316  0.00  0.00    +0.174 HD
BRANCH  31  33
ATOM     33  C   UNL     1       1.731   1.528   6.364  0.00  0.00    +0.048 A 
ATOM     34  C   UNL     1       0.443   1.020   6.247  0.00  0.00    +0.025 A 
ATOM     35  C   UNL     1      -0.221   0.562   7.368  0.00  0.00    +0.002 A 
ATOM     36  C   UNL     1       0.391   0.618   8.607  0.00  0.00    +0.000 A 
ATOM     37  C   UNL     1       1.670   1.128   8.728  0.00  0.00    +0.002 A 
ATOM     38  C   UNL     1       2.342   1.583   7.611  0.00  0.00    +0.025 A 
ENDBRANCH  31  33
ENDBRANCH  30  31
ENDBRANCH  14  29
BRANCH  13  39
ATOM     39  O   UNL     1       1.957   1.372  -0.638  0.00  0.00    -0.388 OA
ATOM     40  H   UNL     1       2.436   0.838  -1.287  0.00  0.00    +0.210 HD
ENDBRANCH  13  39
TORSDOF 7
