REMARK  Name = ZINC33380126
REMARK  11 active torsions:
REMARK  status: ('A' for Active; 'I' for Inactive)
REMARK    1  A    between atoms: C_1  and  C_2
REMARK    2  A    between atoms: C_2  and  O_3
REMARK    3  A    between atoms: O_3  and  C_4
REMARK    4  A    between atoms: C_4  and  C_6
REMARK    5  A    between atoms: C_10  and  N_11
REMARK    6  A    between atoms: C_12  and  C_14
REMARK    7  A    between atoms: C_17  and  C_33
REMARK    8  A    between atoms: C_18  and  C_19
REMARK    9  A    between atoms: C_18  and  C_20
REMARK   10  A    between atoms: C_26  and  C_32
REMARK   11  A    between atoms: C_27  and  C_31
REMARK                            x       y       z     vdW  Elec       q    Type
REMARK                         _______ _______ _______ _____ _____    ______ ____
ROOT
ATOM      1  C   UNL     1      -2.381   1.800   2.862  0.00  0.00    +0.097 C 
ATOM      2  C   UNL     1      -2.026   3.278   2.505  0.00  0.00    +0.024 C 
ATOM      3  C   UNL     1      -0.889   3.126   1.407  0.00  0.00    +0.015 C 
ATOM      4  C   UNL     1      -0.729   1.579   1.267  0.00  0.00    +0.018 C 
ATOM      5  C   UNL     1      -2.214   1.101   1.464  0.00  0.00    -0.005 C 
ATOM      6  C   UNL     1      -3.156   1.681   0.407  0.00  0.00    +0.013 C 
ATOM      7  C   UNL     1      -2.327  -0.422   1.558  0.00  0.00    +0.013 C 
ATOM      8  C   UNL     1      -0.128   1.138   2.604  0.00  0.00    +0.071 A 
ATOM      9  C   UNL     1      -1.133   1.273   3.575  0.00  0.00    +0.079 A 
ATOM     10  N   UNL     1      -0.903   0.966   4.824  0.00  0.00    -0.247 NA
ATOM     11  C   UNL     1       0.307   0.516   5.180  0.00  0.00    +0.090 A 
ATOM     12  C   UNL     1       0.589   0.174   6.515  0.00  0.00    +0.033 A 
ATOM     13  C   UNL     1       1.826  -0.282   6.847  0.00  0.00    -0.045 A 
ATOM     14  C   UNL     1       2.824  -0.416   5.883  0.00  0.00    -0.045 A 
ATOM     15  C   UNL     1       2.589  -0.095   4.582  0.00  0.00    +0.033 A 
ATOM     16  C   UNL     1       1.322   0.379   4.200  0.00  0.00    +0.090 A 
ATOM     17  N   UNL     1       1.062   0.703   2.927  0.00  0.00    -0.248 NA
ATOM     18  C   UNL     1       4.184  -0.925   6.288  0.00  0.00    +0.044 C 
ATOM     19  C   UNL     1       2.123  -0.648   8.279  0.00  0.00    +0.044 C 
ATOM     20  C   UNL     1      -0.013   1.086   0.008  0.00  0.00    +0.018 C 
ENDROOT
BRANCH   1  22
ATOM     21  N   UNL     1      -3.900   2.128   4.787  0.00  0.00    -0.279 N 
ATOM     22  C   UNL     1      -3.693   1.584   3.571  0.00  0.00    +0.230 C 
ATOM     23  O   UNL     1      -4.563   0.920   3.047  0.00  0.00    -0.274 OA
ATOM     24  H   UNL     1      -3.111   2.729   5.262  0.00  0.00    +0.155 HD
BRANCH  21  29
ATOM     25  C   UNL     1      -5.503   2.397   6.685  0.00  0.00    +0.091 A 
ATOM     26  C   UNL     1      -6.837   2.046   7.141  0.00  0.00    -0.021 A 
ATOM     27  C   UNL     1      -7.553   1.280   6.290  0.00  0.00    -0.004 A 
ATOM     28  S   UNL     1      -6.487   1.029   4.900  0.00  0.00    -0.077 S 
ATOM     29  C   UNL     1      -5.107   1.929   5.439  0.00  0.00    +0.086 A 
ATOM     30  C   UNL     1      -8.944   0.762   6.493  0.00  0.00    +0.043 C 
ATOM     31  C   UNL     1      -9.306   0.918   7.977  0.00  0.00    +0.005 C 
ATOM     32  C   UNL     1      -8.940   2.335   8.428  0.00  0.00    +0.005 C 
ATOM     33  C   UNL     1      -7.419   2.488   8.478  0.00  0.00    +0.037 C 
BRANCH  25  34
ATOM     34  C   UNL     1      -4.610   3.218   7.506  0.00  0.00    +0.342 C 
ATOM     35  O   UNL     1      -4.626   4.429   7.397  0.00  0.00    -0.245 OA
BRANCH  34  36
ATOM     36  O   UNL     1      -3.770   2.631   8.383  0.00  0.00    -0.461 OA
BRANCH  36  38
ATOM     37  C   UNL     1      -2.039   2.665  10.095  0.00  0.00    +0.048 C 
ATOM     38  C   UNL     1      -2.915   3.506   9.164  0.00  0.00    +0.229 C 
ENDBRANCH  36  38
ENDBRANCH  34  36
ENDBRANCH  25  34
ENDBRANCH  21  29
ENDBRANCH   1  22
TORSDOF 5
