REMARK  Name = ZINC50792375
REMARK  6 active torsions:
REMARK  status: ('A' for Active; 'I' for Inactive)
REMARK    1  A    between atoms: C_1  and  C_2
REMARK    2  A    between atoms: N_5  and  C_11
REMARK    3  A    between atoms: C_7  and  C_10
REMARK    4  A    between atoms: C_11  and  C_12
REMARK    5  A    between atoms: C_14  and  N_19
REMARK    6  A    between atoms: C_17  and  N_18
REMARK                            x       y       z     vdW  Elec       q    Type
REMARK                         _______ _______ _______ _____ _____    ______ ____
ROOT
ATOM      1  C   UNL     1      -2.701  -4.033  -0.255  0.00  0.00    -0.011 A 
ATOM      2  C   UNL     1      -3.024  -4.950   0.726  0.00  0.00    +0.039 A 
ATOM      3  C   UNL     1      -2.961  -6.305   0.455  0.00  0.00    +0.127 A 
ATOM      4  C   UNL     1      -2.575  -6.746  -0.798  0.00  0.00    +0.034 A 
ATOM      5  C   UNL     1      -2.251  -5.834  -1.782  0.00  0.00    +0.025 A 
ATOM      6  C   UNL     1      -2.319  -4.472  -1.516  0.00  0.00    +0.029 A 
ENDROOT
BRANCH   6   7
ATOM      7  N   UNL     1      -1.998  -3.547  -2.511  0.00  0.00    -0.358 N 
ATOM      8  H   UNL     1      -1.970  -2.600  -2.303  0.00  0.00    +0.142 HD
ATOM      9  H   UNL     1      -1.802  -3.851  -3.411  0.00  0.00    +0.142 HD
ENDBRANCH   6   7
BRANCH   3  10
ATOM     10  N   UNL     1      -3.307  -7.285   1.509  0.00  0.00    +0.056 N 
ATOM     11  O   UNL     1      -3.644  -6.901   2.605  0.00  0.00    -0.126 OA
ATOM     12  O   UNL     1      -3.252  -8.470   1.274  0.00  0.00    -0.126 OA
ENDBRANCH   3  10
BRANCH   1  13
ATOM     13  C   UNL     1      -2.770  -2.557   0.041  0.00  0.00    +0.121 C 
BRANCH  13  17
ATOM     14  C   UNL     1       0.037   1.482   0.208  0.00  0.00    +0.039 C 
ATOM     15  C   UNL     1       0.034  -0.048   0.214  0.00  0.00    +0.130 C 
ATOM     16  C   UNL     1      -1.406  -0.556   0.110  0.00  0.00    +0.116 C 
ATOM     17  N   UNL     1      -1.410  -2.024   0.194  0.00  0.00    -0.293 NA
ATOM     18  C   UNL     1      -0.805  -2.475   1.455  0.00  0.00    +0.116 C 
ATOM     19  C   UNL     1       0.629  -1.948   1.545  0.00  0.00    +0.130 C 
ATOM     20  O   UNL     1       0.617  -0.522   1.431  0.00  0.00    -0.371 OA
ATOM     21  C   UNL     1       1.238  -2.348   2.891  0.00  0.00    +0.039 C 
ENDBRANCH  13  17
ENDBRANCH   1  13
TORSDOF 4
