REMARK  Name = ZINC13007686
REMARK  9 active torsions:
REMARK  status: ('A' for Active; 'I' for Inactive)
REMARK    1  A    between atoms: C_1  and  C_2
REMARK    2  A    between atoms: C_2  and  O_3
REMARK    3  A    between atoms: O_3  and  C_4
REMARK    4  A    between atoms: C_9  and  C_10
REMARK    5  A    between atoms: N_12  and  C_13
REMARK    6  A    between atoms: C_13  and  C_14
REMARK    7  A    between atoms: C_14  and  C_16
REMARK    8  A    between atoms: C_14  and  N_63
REMARK    9  A    between atoms: N_24  and  C_25
REMARK                            x       y       z     vdW  Elec       q    Type
REMARK                         _______ _______ _______ _____ _____    ______ ____
ROOT
ATOM      1  C   UNL     1      -2.330   5.690   0.170  0.00  0.00    -0.020 C 
ENDROOT
BRANCH   1   2
ATOM      2  C   UNL     1      -3.535   6.596   0.175  0.00  0.00    -0.059 A 
ATOM      3  C   UNL     1      -4.070   7.044  -1.019  0.00  0.00    +0.004 A 
ATOM      4  C   UNL     1      -5.173   7.871  -1.020  0.00  0.00    +0.023 A 
ATOM      5  C   UNL     1      -5.751   8.270   0.185  0.00  0.00    +0.033 A 
ATOM      6  C   UNL     1      -5.205   7.815   1.379  0.00  0.00    -0.025 A 
ATOM      7  C   UNL     1      -4.104   6.985   1.374  0.00  0.00    +0.007 A 
ATOM      8  C   UNL     1      -6.028   8.386   2.517  0.00  0.00    +0.056 C 
ATOM      9  C   UNL     1      -7.316   8.859   1.804  0.00  0.00    +0.109 C 
ATOM     10  N   UNL     1      -6.851   9.103   0.422  0.00  0.00    -0.332 N 
ATOM     11  C   UNL     1      -7.924   8.848  -0.548  0.00  0.00    +0.129 C 
ENDBRANCH   1   2
BRANCH   1  17
ATOM     12  C   UNL     1      -1.307   7.729  -0.641  0.00  0.00    -0.078 C 
ATOM     13  C   UNL     1      -0.125   8.284  -1.439  0.00  0.00    -0.019 C 
ATOM     14  C   UNL     1      -0.229   7.810  -2.892  0.00  0.00    -0.004 C 
ATOM     15  C   UNL     1      -0.260   6.280  -2.920  0.00  0.00    -0.019 C 
ATOM     16  C   UNL     1      -1.438   5.783  -2.079  0.00  0.00    -0.078 C 
ATOM     17  N   UNL     1      -1.266   6.252  -0.688  0.00  0.00    +0.385 N 
ATOM     18  H   UNL     1      -0.354   5.933  -0.339  0.00  0.00    -0.081 HD
ENDBRANCH   1  17
BRANCH   1  19
ATOM     19  C   UNL     1      -2.731   4.311  -0.355  0.00  0.00    +0.094 C 
BRANCH  19  22
ATOM     20  C   UNL     1      -1.700   2.125  -0.671  0.00  0.00    +0.248 C 
ATOM     21  O   UNL     1      -2.795   1.684  -0.963  0.00  0.00    -0.270 OA
ATOM     22  N   UNL     1      -1.562   3.427  -0.351  0.00  0.00    -0.312 N 
ATOM     23  H   UNL     1      -0.689   3.780  -0.118  0.00  0.00    +0.149 HD
BRANCH  20  29
ATOM     24  C   UNL     1      -0.662  -0.118  -0.999  0.00  0.00    +0.133 A 
ATOM     25  C   UNL     1       0.453  -0.944  -0.997  0.00  0.00    +0.046 A 
ATOM     26  C   UNL     1       1.693  -0.432  -0.670  0.00  0.00    +0.004 A 
ATOM     27  C   UNL     1       1.834   0.906  -0.341  0.00  0.00    +0.001 A 
ATOM     28  C   UNL     1       0.738   1.741  -0.337  0.00  0.00    +0.017 A 
ATOM     29  C   UNL     1      -0.523   1.236  -0.667  0.00  0.00    +0.078 A 
BRANCH  24  30
ATOM     30  O   UNL     1      -1.880  -0.620  -1.321  0.00  0.00    -0.491 OA
BRANCH  30  32
ATOM     31  C   UNL     1      -3.389  -2.388  -1.981  0.00  0.00    +0.048 C 
ATOM     32  C   UNL     1      -1.945  -2.009  -1.648  0.00  0.00    +0.226 C 
ENDBRANCH  30  32
ENDBRANCH  24  30
ENDBRANCH  20  29
ENDBRANCH  19  22
ENDBRANCH   1  19
TORSDOF 7
