REMARK  Name = ZINC35293518
REMARK  8 active torsions:
REMARK  status: ('A' for Active; 'I' for Inactive)
REMARK    1  A    between atoms: C_1  and  C_2
REMARK    2  A    between atoms: C_5  and  N_9
REMARK    3  A    between atoms: C_6  and  C_8
REMARK    4  A    between atoms: C_10  and  C_19
REMARK    5  A    between atoms: C_12  and  C_14
REMARK    6  A    between atoms: N_21  and  C_22
REMARK    7  A    between atoms: N_25  and  C_28
REMARK    8  A    between atoms: C_28  and  C_29
REMARK                            x       y       z     vdW  Elec       q    Type
REMARK                         _______ _______ _______ _____ _____    ______ ____
ROOT
ATOM      1  N   UNL     1       0.266  -4.146   0.010  0.00  0.00    -0.227 N 
ATOM      2  C   UNL     1      -0.057  -4.908  -1.082  0.00  0.00    +0.130 A 
ATOM      3  C   UNL     1      -0.323  -6.182  -0.629  0.00  0.00    +0.063 A 
ATOM      4  C   UNL     1      -0.156  -6.181   0.765  0.00  0.00    +0.100 A 
ATOM      5  N   UNL     1       0.201  -4.967   1.143  0.00  0.00    -0.165 NA
ENDROOT
BRANCH   1  10
ATOM      6  C   UNL     1       1.641   1.357  -0.049  0.00  0.00    +0.044 C 
ATOM      7  C   UNL     1       1.276  -0.104  -0.033  0.00  0.00    -0.050 A 
ATOM      8  C   UNL     1       2.018  -1.009  -0.770  0.00  0.00    +0.005 A 
ATOM      9  C   UNL     1       1.686  -2.349  -0.758  0.00  0.00    +0.028 A 
ATOM     10  C   UNL     1       0.605  -2.789  -0.004  0.00  0.00    +0.069 A 
ATOM     11  C   UNL     1      -0.138  -1.878   0.736  0.00  0.00    -0.025 A 
ATOM     12  C   UNL     1       0.203  -0.539   0.723  0.00  0.00    +0.008 A 
ATOM     13  C   UNL     1      -1.311  -2.350   1.555  0.00  0.00    +0.046 C 
ENDBRANCH   1  10
BRANCH   4  14
ATOM     14  C   UNL     1      -0.341  -7.344   1.659  0.00  0.00    +0.039 A 
ATOM     15  C   UNL     1      -0.203  -7.418   3.019  0.00  0.00    +0.018 A 
ATOM     16  C   UNL     1      -0.432  -8.625   3.644  0.00  0.00    +0.008 A 
ATOM     17  C   UNL     1      -0.785  -9.701   2.895  0.00  0.00    +0.046 A 
ATOM     18  S   UNL     1      -0.812  -9.016   1.246  0.00  0.00    -0.095 S 
ENDBRANCH   4  14
BRANCH   2  19
ATOM     19  C   UNL     1      -0.108  -4.451  -2.480  0.00  0.00    +0.263 C 
ATOM     20  O   UNL     1      -0.289  -5.253  -3.376  0.00  0.00    -0.269 OA
ATOM     21  N   UNL     1       0.044  -3.143  -2.767  0.00  0.00    -0.307 N 
ATOM     22  H   UNL     1       0.125  -2.495  -2.049  0.00  0.00    +0.149 HD
BRANCH  21  23
ATOM     23  C   UNL     1       0.086  -2.699  -4.162  0.00  0.00    +0.070 C 
ATOM     24  C   UNL     1      -1.340  -2.461  -4.668  0.00  0.00    +0.004 C 
ATOM     25  C   UNL     1      -1.284  -1.922  -6.099  0.00  0.00    -0.077 C 
ATOM     26  N   UNL     1      -0.538  -0.658  -6.121  0.00  0.00    +0.382 N 
ATOM     27  C   UNL     1       0.850  -0.892  -5.706  0.00  0.00    -0.077 C 
ATOM     28  C   UNL     1       0.877  -1.391  -4.260  0.00  0.00    +0.004 C 
ATOM     29  H   UNL     1      -0.971  -0.002  -5.489  0.00  0.00    -0.081 HD
BRANCH  26  30
ATOM     30  C   UNL     1      -0.554  -0.106  -7.482  0.00  0.00    -0.043 C 
BRANCH  30  31
ATOM     31  C   UNL     1       0.105   1.249  -7.482  0.00  0.00    -0.064 A 
ATOM     32  C   UNL     1      -0.650   2.385  -7.255  0.00  0.00    +0.002 A 
ATOM     33  C   UNL     1      -0.046   3.628  -7.255  0.00  0.00    +0.000 A 
ATOM     34  C   UNL     1       1.314   3.736  -7.482  0.00  0.00    +0.000 A 
ATOM     35  C   UNL     1       2.069   2.600  -7.708  0.00  0.00    +0.000 A 
ATOM     36  C   UNL     1       1.465   1.356  -7.704  0.00  0.00    +0.002 A 
ENDBRANCH  30  31
ENDBRANCH  26  30
ENDBRANCH  21  23
ENDBRANCH   2  19
TORSDOF 6
