REMARK  Name = ZINC44731882
REMARK  8 active torsions:
REMARK  status: ('A' for Active; 'I' for Inactive)
REMARK    1  A    between atoms: C_1  and  C_2
REMARK    2  A    between atoms: C_4  and  C_8
REMARK    3  A    between atoms: C_5  and  C_7
REMARK    4  A    between atoms: C_8  and  C_10
REMARK    5  A    between atoms: C_8  and  N_11
REMARK    6  A    between atoms: N_11  and  C_12
REMARK    7  A    between atoms: C_15  and  N_21
REMARK    8  A    between atoms: C_16  and  C_18
REMARK                            x       y       z     vdW  Elec       q    Type
REMARK                         _______ _______ _______ _____ _____    ______ ____
ROOT
ATOM      1  C   UNL     1      -3.616  -4.045  -1.187  0.00  0.00    +0.028 A 
ATOM      2  C   UNL     1      -2.993  -5.289  -1.165  0.00  0.00    +0.025 A 
ATOM      3  C   UNL     1      -3.607  -6.386  -1.733  0.00  0.00    +0.025 A 
ATOM      4  C   UNL     1      -4.854  -6.256  -2.331  0.00  0.00    +0.037 A 
ATOM      5  C   UNL     1      -5.488  -5.005  -2.357  0.00  0.00    +0.059 A 
ATOM      6  C   UNL     1      -4.861  -3.900  -1.775  0.00  0.00    +0.037 A 
ENDROOT
BRANCH   5   7
ATOM      7  C   UNL     1      -6.811  -4.858  -2.990  0.00  0.00    +0.243 C 
ATOM      8  O   UNL     1      -7.402  -5.839  -3.400  0.00  0.00    -0.270 OA
ATOM      9  N   UNL     1      -7.366  -3.636  -3.115  0.00  0.00    -0.325 N 
ATOM     10  H   UNL     1      -6.895  -2.853  -2.788  0.00  0.00    +0.145 HD
ATOM     11  H   UNL     1      -8.237  -3.539  -3.531  0.00  0.00    +0.145 HD
ENDBRANCH   5   7
BRANCH   4  12
ATOM     12  N   UNL     1      -5.472  -7.364  -2.904  0.00  0.00    -0.357 N 
ATOM     13  H   UNL     1      -4.999  -8.209  -2.958  0.00  0.00    +0.142 HD
ATOM     14  H   UNL     1      -6.375  -7.290  -3.249  0.00  0.00    +0.142 HD
ENDBRANCH   4  12
BRANCH   1  15
ATOM     15  N   UNL     1      -2.985  -2.937  -0.608  0.00  0.00    -0.337 N 
ATOM     16  H   UNL     1      -3.420  -2.070  -0.619  0.00  0.00    +0.147 HD
BRANCH  15  17
ATOM     17  C   UNL     1      -1.667  -3.088   0.014  0.00  0.00    +0.101 C 
ATOM     18  C   UNL     1      -1.837  -3.562   1.459  0.00  0.00    +0.033 C 
BRANCH  17  22
ATOM     19  C   UNL     1      -0.707   1.914  -0.079  0.00  0.00    +0.086 C 
ATOM     20  C   UNL     1      -0.548   0.416  -0.039  0.00  0.00    +0.103 A 
ATOM     21  C   UNL     1      -1.549  -0.482  -0.044  0.00  0.00    +0.050 A 
ATOM     22  C   UNL     1      -0.951  -1.762   0.002  0.00  0.00    +0.013 A 
ATOM     23  C   UNL     1       0.380  -1.570   0.032  0.00  0.00    +0.107 A 
ATOM     24  O   UNL     1       0.619  -0.248   0.001  0.00  0.00    -0.465 OA
ATOM     25  C   UNL     1       1.426  -2.653   0.086  0.00  0.00    +0.086 C 
ENDBRANCH  17  22
ENDBRANCH  15  17
ENDBRANCH   1  15
TORSDOF 5
