REMARK  Name = ZINC67288898
REMARK  9 active torsions:
REMARK  status: ('A' for Active; 'I' for Inactive)
REMARK    1  A    between atoms: C_1  and  C_2
REMARK    2  A    between atoms: C_5  and  C_33
REMARK    3  A    between atoms: C_6  and  C_8
REMARK    4  A    between atoms: N_16  and  C_20
REMARK    5  A    between atoms: C_20  and  C_21
REMARK    6  A    between atoms: N_23  and  C_24
REMARK    7  A    between atoms: C_29  and  C_30
REMARK    8  A    between atoms: C_30  and  C_31
REMARK    9  A    between atoms: C_30  and  C_32
REMARK                            x       y       z     vdW  Elec       q    Type
REMARK                         _______ _______ _______ _____ _____    ______ ____
ROOT
ATOM      1  C   UNL     1       0.079  -2.861   2.286  0.00  0.00    +0.144 C 
ATOM      2  C   UNL     1       1.524  -3.157   2.629  0.00  0.00    +0.082 C 
ATOM      3  C   UNL     1       2.006  -2.676   3.795  0.00  0.00    +0.065 C 
ATOM      4  C   UNL     1       3.449  -3.121   3.868  0.00  0.00    +0.284 C 
ATOM      5  O   UNL     1       3.680  -3.863   2.663  0.00  0.00    -0.455 OA
ATOM      6  C   UNL     1       2.534  -3.869   1.955  0.00  0.00    +0.339 C 
ATOM      7  O   UNL     1       2.392  -4.416   0.878  0.00  0.00    -0.245 OA
ATOM      8  N   UNL     1       1.219  -1.947   4.637  0.00  0.00    -0.247 N 
ATOM      9  C   UNL     1      -0.064  -1.655   4.384  0.00  0.00    +0.307 C 
ATOM     10  O   UNL     1      -0.688  -0.997   5.194  0.00  0.00    -0.252 OA
ATOM     11  N   UNL     1      -0.686  -2.066   3.262  0.00  0.00    -0.288 N 
ATOM     12  H   UNL     1      -1.616  -1.842   3.100  0.00  0.00    +0.151 HD
ENDROOT
BRANCH   1  18
ATOM     13  C   UNL     1       2.337   0.058  -1.094  0.00  0.00    +0.044 C 
ATOM     14  C   UNL     1       1.134  -0.734  -0.648  0.00  0.00    -0.050 A 
ATOM     15  C   UNL     1       0.008  -0.789  -1.448  0.00  0.00    +0.003 A 
ATOM     16  C   UNL     1      -1.095  -1.515  -1.040  0.00  0.00    +0.004 A 
ATOM     17  C   UNL     1      -1.072  -2.186   0.169  0.00  0.00    -0.045 A 
ATOM     18  C   UNL     1       0.054  -2.131   0.968  0.00  0.00    -0.019 A 
ATOM     19  C   UNL     1       1.159  -1.408   0.557  0.00  0.00    +0.009 A 
ATOM     20  C   UNL     1      -2.275  -2.976   0.615  0.00  0.00    +0.044 C 
ENDBRANCH   1  18
BRANCH   8  21
ATOM     21  C   UNL     1       1.808  -1.456   5.885  0.00  0.00    +0.211 C 
BRANCH  21  22
ATOM     22  C   UNL     1       2.411  -0.094   5.654  0.00  0.00    +0.235 C 
ATOM     23  O   UNL     1       2.354   0.416   4.556  0.00  0.00    -0.274 OA
ATOM     24  N   UNL     1       3.014   0.557   6.669  0.00  0.00    -0.284 N 
ATOM     25  H   UNL     1       3.120   0.121   7.530  0.00  0.00    +0.155 HD
BRANCH  24  26
ATOM     26  C   UNL     1       3.486   1.860   6.482  0.00  0.00    +0.037 A 
ATOM     27  C   UNL     1       4.005   2.243   5.252  0.00  0.00    +0.023 A 
ATOM     28  C   UNL     1       4.470   3.530   5.070  0.00  0.00    +0.002 A 
ATOM     29  C   UNL     1       4.420   4.438   6.112  0.00  0.00    +0.000 A 
ATOM     30  C   UNL     1       3.905   4.061   7.338  0.00  0.00    +0.006 A 
ATOM     31  C   UNL     1       3.431   2.776   7.524  0.00  0.00    -0.024 A 
BRANCH  31  32
ATOM     32  C   UNL     1       2.863   2.368   8.858  0.00  0.00    +0.015 C 
ATOM     33  C   UNL     1       3.891   2.645   9.957  0.00  0.00    +0.012 C 
ATOM     34  C   UNL     1       1.590   3.170   9.137  0.00  0.00    +0.012 C 
ENDBRANCH  31  32
ENDBRANCH  24  26
ENDBRANCH  21  22
ENDBRANCH   8  21
TORSDOF 5
