REMARK  Name = ZINC19234498
REMARK  10 active torsions:
REMARK  status: ('A' for Active; 'I' for Inactive)
REMARK    1  A    between atoms: C_1  and  C_2
REMARK    2  A    between atoms: C_6  and  C_8
REMARK    3  A    between atoms: C_8  and  O_33
REMARK    4  A    between atoms: N_11  and  C_14
REMARK    5  A    between atoms: C_14  and  C_15
REMARK    6  A    between atoms: C_15  and  C_17
REMARK    7  A    between atoms: C_15  and  O_32
REMARK    8  A    between atoms: C_24  and  C_31
REMARK    9  A    between atoms: N_26  and  S_27
REMARK   10  A    between atoms: S_27  and  C_30
REMARK                            x       y       z     vdW  Elec       q    Type
REMARK                         _______ _______ _______ _____ _____    ______ ____
ROOT
ATOM      1  C   UNL     1       1.313   9.308  -0.793  0.00  0.00    -0.042 C 
ENDROOT
BRANCH   1   5
ATOM      2  C   UNL     1      -0.070   5.347   0.031  0.00  0.00    +0.088 C 
ATOM      3  C   UNL     1      -0.087   5.867  -1.410  0.00  0.00    +0.021 C 
ATOM      4  C   UNL     1      -0.045   7.396  -1.395  0.00  0.00    -0.076 C 
ATOM      5  N   UNL     1       1.170   7.848  -0.706  0.00  0.00    +0.382 N 
ATOM      6  C   UNL     1       1.184   7.401   0.693  0.00  0.00    -0.076 C 
ATOM      7  C   UNL     1       1.180   5.872   0.741  0.00  0.00    +0.021 C 
ATOM      8  H   UNL     1       2.033   7.392  -1.212  0.00  0.00    -0.082 HD
BRANCH   2  14
ATOM      9  C   UNL     1      -2.514   0.980   0.019  0.00  0.00    +0.044 C 
ATOM     10  C   UNL     1      -1.219   1.751   0.017  0.00  0.00    -0.050 A 
ATOM     11  C   UNL     1      -0.013   1.076   0.008  0.00  0.00    +0.003 A 
ATOM     12  C   UNL     1       1.175   1.783   0.000  0.00  0.00    +0.001 A 
ATOM     13  C   UNL     1       1.156   3.166   0.008  0.00  0.00    +0.006 A 
ATOM     14  C   UNL     1      -0.050   3.840   0.022  0.00  0.00    -0.016 A 
ATOM     15  C   UNL     1      -1.238   3.133   0.029  0.00  0.00    +0.009 A 
ENDBRANCH   2  14
BRANCH   2  16
ATOM     16  O   UNL     1      -1.237   5.805   0.717  0.00  0.00    -0.384 OA
ATOM     17  H   UNL     1      -1.424   6.884   0.825  0.00  0.00    +0.211 HD
ENDBRANCH   2  16
ENDBRANCH   1   5
BRANCH   1  18
ATOM     18  C   UNL     1       1.544   9.711  -2.251  0.00  0.00    +0.128 C 
BRANCH  18  19
ATOM     19  C   UNL     1       1.691  11.208  -2.341  0.00  0.00    -0.021 A 
ATOM     20  C   UNL     1       2.923  11.798  -2.122  0.00  0.00    +0.008 A 
ATOM     21  C   UNL     1       3.060  13.167  -2.204  0.00  0.00    +0.025 A 
ATOM     22  C   UNL     1       1.958  13.969  -2.509  0.00  0.00    +0.054 A 
ATOM     23  C   UNL     1       0.728  13.368  -2.726  0.00  0.00    -0.023 A 
ATOM     24  C   UNL     1       0.597  11.994  -2.648  0.00  0.00    +0.011 A 
ATOM     25  C   UNL     1      -0.286  14.445  -3.035  0.00  0.00    +0.061 C 
ATOM     26  C   UNL     1       0.512  15.758  -2.970  0.00  0.00    +0.099 C 
ATOM     27  N   UNL     1       1.883  15.357  -2.639  0.00  0.00    -0.204 N 
ATOM     28  C   UNL     1      -0.053  16.670  -1.879  0.00  0.00    +0.030 C 
BRANCH  27  29
ATOM     29  S   UNL     1       3.156  16.398  -2.448  0.00  0.00    +0.043 S 
ATOM     30  O   UNL     1       2.562  17.629  -2.059  0.00  0.00    -0.155 OA
ATOM     31  O   UNL     1       4.052  15.720  -1.579  0.00  0.00    -0.155 OA
ATOM     32  C   UNL     1       3.885  16.551  -4.102  0.00  0.00    +0.218 C 
ENDBRANCH  27  29
ENDBRANCH  18  19
BRANCH  18  33
ATOM     33  O   UNL     1       2.735   9.086  -2.735  0.00  0.00    -0.389 OA
ATOM     34  H   UNL     1       3.065   9.259  -3.770  0.00  0.00    +0.210 HD
ENDBRANCH  18  33
ENDBRANCH   1  18
TORSDOF 7
