REMARK  Name = ZINC06148979
REMARK  8 active torsions:
REMARK  status: ('A' for Active; 'I' for Inactive)
REMARK    1  A    between atoms: C_1  and  C_2
REMARK    2  A    between atoms: C_7  and  C_9
REMARK    3  A    between atoms: C_7  and  C_25
REMARK    4  A    between atoms: C_7  and  N_67
REMARK    5  A    between atoms: N_29  and  C_30
REMARK    6  A    between atoms: C_30  and  C_31
REMARK    7  A    between atoms: C_34  and  O_37
REMARK    8  A    between atoms: O_37  and  C_38
REMARK                            x       y       z     vdW  Elec       q    Type
REMARK                         _______ _______ _______ _____ _____    ______ ____
ROOT
ATOM      1  C   UNL     1       1.671   2.148  -2.527  0.00  0.00    +0.039 C 
ENDROOT
BRANCH   1   2
ATOM      2  C   UNL     1       1.500   3.581  -2.960  0.00  0.00    +0.011 A 
ATOM      3  C   UNL     1       1.562   4.577  -2.040  0.00  0.00    +0.017 A 
ATOM      4  C   UNL     1       1.391   5.958  -2.491  0.00  0.00    +0.002 A 
ATOM      5  C   UNL     1       1.444   7.025  -1.587  0.00  0.00    +0.059 A 
ATOM      6  C   UNL     1       1.276   8.316  -2.041  0.00  0.00    +0.163 A 
ATOM      7  C   UNL     1       1.057   8.562  -3.400  0.00  0.00    +0.164 A 
ATOM      8  C   UNL     1       1.005   7.512  -4.301  0.00  0.00    +0.075 A 
ATOM      9  C   UNL     1       1.170   6.206  -3.860  0.00  0.00    +0.053 A 
ATOM     10  N   UNL     1       1.119   5.148  -4.744  0.00  0.00    -0.322 N 
ATOM     11  H   UNL     1       0.959   5.325  -5.715  0.00  0.00    +0.169 HD
ATOM     12  C   UNL     1       1.282   3.883  -4.319  0.00  0.00    +0.251 A 
ATOM     13  O   UNL     1       1.235   2.973  -5.130  0.00  0.00    -0.268 OA
ATOM     14  O   UNL     1       0.894   9.833  -3.857  0.00  0.00    -0.485 OA
ATOM     15  C   UNL     1       0.576  10.832  -2.882  0.00  0.00    +0.270 C 
ATOM     16  C   UNL     1       1.522  10.655  -1.687  0.00  0.00    +0.270 C 
ATOM     17  O   UNL     1       1.324   9.344  -1.148  0.00  0.00    -0.485 OA
ENDBRANCH   1   2
BRANCH   1  24
ATOM     18  C   UNL     1       6.540  -0.203  -4.382  0.00  0.00    +0.007 C 
ATOM     19  C   UNL     1       5.447   0.386  -3.488  0.00  0.00    -0.018 C 
ATOM     20  C   UNL     1       4.170  -0.447  -3.625  0.00  0.00    -0.015 C 
ATOM     21  C   UNL     1       3.062   0.182  -2.776  0.00  0.00    -0.077 C 
ATOM     22  C   UNL     1       4.020   2.390  -3.060  0.00  0.00    -0.077 C 
ATOM     23  C   UNL     1       5.156   1.827  -3.918  0.00  0.00    -0.015 C 
ATOM     24  N   UNL     1       2.813   1.558  -3.256  0.00  0.00    +0.389 N 
ATOM     25  H   UNL     1       2.590   1.527  -4.257  0.00  0.00    -0.080 HD
ENDBRANCH   1  24
BRANCH   1  26
ATOM     26  C   UNL     1       1.908   2.097  -1.040  0.00  0.00    +0.143 A 
ATOM     27  N   UNL     1       3.015   2.413  -0.412  0.00  0.00    -0.115 NA
ATOM     28  N   UNL     1       2.821   2.237   0.849  0.00  0.00    -0.023 NA
ATOM     29  N   UNL     1       1.618   1.822   1.043  0.00  0.00    -0.044 NA
ATOM     30  N   UNL     1       1.025   1.717  -0.098  0.00  0.00    -0.226 N 
BRANCH  30  31
ATOM     31  C   UNL     1      -0.353   1.275  -0.325  0.00  0.00    +0.182 C 
BRANCH  31  32
ATOM     32  C   UNL     1      -0.375  -0.219  -0.521  0.00  0.00    -0.026 A 
ATOM     33  C   UNL     1      -0.245  -0.751  -1.791  0.00  0.00    +0.009 A 
ATOM     34  C   UNL     1      -0.259  -2.120  -1.973  0.00  0.00    +0.046 A 
ATOM     35  C   UNL     1      -0.415  -2.962  -0.881  0.00  0.00    +0.120 A 
ATOM     36  C   UNL     1      -0.550  -2.426   0.391  0.00  0.00    +0.046 A 
ATOM     37  C   UNL     1      -0.530  -1.056   0.568  0.00  0.00    +0.009 A 
BRANCH  35  38
ATOM     38  O   UNL     1      -0.434  -4.309  -1.058  0.00  0.00    -0.495 OA
ATOM     39  C   UNL     1      -0.289  -4.790  -2.396  0.00  0.00    +0.277 C 
ENDBRANCH  35  38
ENDBRANCH  31  32
ENDBRANCH  30  31
ENDBRANCH   1  26
TORSDOF 6
