REMARK  Name = ZINC25460557
REMARK  5 active torsions:
REMARK  status: ('A' for Active; 'I' for Inactive)
REMARK    1  A    between atoms: C_16  and  C_18
REMARK    2  A    between atoms: C_18  and  S_19
REMARK    3  A    between atoms: S_19  and  C_20
REMARK    4  A    between atoms: C_23  and  C_28
REMARK    5  A    between atoms: N_24  and  C_25
REMARK                            x       y       z     vdW  Elec       q    Type
REMARK                         _______ _______ _______ _____ _____    ______ ____
ROOT
ATOM      1  S   UNL     1      -3.668   3.715  -3.342  0.00  0.00    -0.077 S 
ENDROOT
BRANCH   1   2
ATOM      2  C   UNL     1      -3.348   2.755  -4.784  0.00  0.00    +0.193 A 
ATOM      3  N   UNL     1      -2.448   1.806  -4.904  0.00  0.00    -0.122 NA
ATOM      4  N   UNL     1      -2.483   1.310  -6.089  0.00  0.00    -0.128 NA
ATOM      5  C   UNL     1      -3.404   1.918  -6.803  0.00  0.00    +0.167 A 
ATOM      6  N   UNL     1      -3.986   2.862  -5.989  0.00  0.00    -0.299 N 
BRANCH   5   7
ATOM      7  C   UNL     1      -3.748   1.640  -8.211  0.00  0.00    +0.044 A 
ATOM      8  C   UNL     1      -4.776   2.178  -8.917  0.00  0.00    +0.095 A 
ATOM      9  N   UNL     1      -4.773   1.680 -10.188  0.00  0.00    -0.360 N 
ATOM     10  H   UNL     1      -5.539   2.005 -10.907  0.00  0.00    +0.165 HD
ATOM     11  C   UNL     1      -3.731   0.792 -10.349  0.00  0.00    +0.047 A 
ATOM     12  C   UNL     1      -3.039   0.730  -9.127  0.00  0.00    +0.010 A 
ATOM     13  C   UNL     1      -1.930  -0.104  -8.996  0.00  0.00    +0.011 A 
ATOM     14  C   UNL     1      -1.510  -0.855 -10.071  0.00  0.00    +0.001 A 
ATOM     15  C   UNL     1      -2.189  -0.789 -11.280  0.00  0.00    +0.002 A 
ATOM     16  C   UNL     1      -3.291   0.026 -11.423  0.00  0.00    +0.026 A 
ENDBRANCH   5   7
BRANCH   6  17
ATOM     17  C   UNL     1      -5.065   3.789  -6.340  0.00  0.00    +0.091 C 
ATOM     18  C   UNL     1      -5.491   4.810  -5.283  0.00  0.00    +0.027 C 
ATOM     19  C   UNL     1      -6.402   3.625  -5.614  0.00  0.00    +0.027 C 
ENDBRANCH   6  17
ENDBRANCH   1   2
BRANCH   1  20
ATOM     20  C   UNL     1      -2.453   2.996  -2.209  0.00  0.00    +0.174 C 
BRANCH  20  36
ATOM     21  C   UNL     1       1.199   0.403  -0.273  0.00  0.00    +0.000 A 
ATOM     22  C   UNL     1      -0.126   0.007  -0.234  0.00  0.00    +0.002 A 
ATOM     23  C   UNL     1      -1.136   0.949  -0.124  0.00  0.00    +0.024 A 
ATOM     24  C   UNL     1      -0.788   2.286  -0.038  0.00  0.00    +0.044 A 
ATOM     25  C   UNL     1       0.523   2.676  -0.098  0.00  0.00    -0.025 A 
ATOM     26  C   UNL     1       1.533   1.748  -0.211  0.00  0.00    +0.005 A 
ATOM     27  C   UNL     1       0.778   4.161  -0.067  0.00  0.00    +0.042 C 
ATOM     28  C   UNL     1       0.683   4.708   1.346  0.00  0.00    +0.042 C 
ATOM     29  C   UNL     1      -0.687   4.533   1.961  0.00  0.00    -0.025 A 
ATOM     30  C   UNL     1      -0.819   5.050   3.252  0.00  0.00    +0.005 A 
ATOM     31  C   UNL     1      -2.014   4.992   3.930  0.00  0.00    +0.000 A 
ATOM     32  C   UNL     1      -3.125   4.418   3.338  0.00  0.00    +0.002 A 
ATOM     33  C   UNL     1      -3.013   3.891   2.068  0.00  0.00    +0.024 A 
ATOM     34  C   UNL     1      -1.799   3.934   1.390  0.00  0.00    +0.044 A 
ATOM     35  N   UNL     1      -1.731   3.310   0.136  0.00  0.00    -0.239 N 
ATOM     36  C   UNL     1      -2.546   3.683  -0.871  0.00  0.00    +0.234 C 
ATOM     37  O   UNL     1      -3.354   4.571  -0.700  0.00  0.00    -0.274 OA
ENDBRANCH  20  36
ENDBRANCH   1  20
TORSDOF 5
