REMARK  Name = ZINC39413565
REMARK  11 active torsions:
REMARK  status: ('A' for Active; 'I' for Inactive)
REMARK    1  A    between atoms: C_1  and  C_2
REMARK    2  A    between atoms: C_2  and  C_33
REMARK    3  A    between atoms: C_4  and  N_10
REMARK    4  A    between atoms: C_6  and  C_8
REMARK    5  A    between atoms: C_6  and  C_9
REMARK    6  A    between atoms: N_10  and  C_11
REMARK    7  A    between atoms: N_10  and  C_19
REMARK    8  A    between atoms: C_11  and  C_12
REMARK    9  A    between atoms: C_19  and  N_21
REMARK   10  A    between atoms: N_21  and  C_22
REMARK   11  A    between atoms: C_25  and  C_29
REMARK                            x       y       z     vdW  Elec       q    Type
REMARK                         _______ _______ _______ _____ _____    ______ ____
ROOT
ATOM      1  N   UNL     1       2.848  -0.680  -2.674  0.00  0.00    -0.305 N 
ENDROOT
BRANCH   1   5
ATOM      2  C   UNL     1       1.330   2.442   0.036  0.00  0.00    -0.010 C 
ATOM      3  C   UNL     1       1.059   0.949   0.249  0.00  0.00    -0.072 C 
ATOM      4  C   UNL     1       1.229   0.201  -1.069  0.00  0.00    +0.009 C 
ATOM      5  C   UNL     1       2.712   0.070  -1.419  0.00  0.00    +0.073 C 
ATOM      6  C   UNL     1       3.401  -0.701  -0.293  0.00  0.00    +0.009 C 
ATOM      7  C   UNL     1       3.247   0.040   1.030  0.00  0.00    -0.072 C 
ATOM      8  N   UNL     1       1.875   0.413   1.325  0.00  0.00    +0.386 N 
ATOM      9  C   UNL     1       3.726  -0.912   2.151  0.00  0.00    -0.010 C 
ATOM     10  C   UNL     1       4.173   1.260   1.052  0.00  0.00    -0.010 C 
ATOM     11  C   UNL     1      -0.423   0.813   0.670  0.00  0.00    -0.010 C 
ATOM     12  H   UNL     1       1.885   1.094   2.090  0.00  0.00    -0.084 HD
ATOM     13  H   UNL     1       1.396  -0.406   1.712  0.00  0.00    -0.084 HD
ENDBRANCH   1   5
BRANCH   1  14
ATOM     14  C   UNL     1       2.391  -1.945  -2.756  0.00  0.00    +0.138 C 
ATOM     15  S   UNL     1       1.577  -2.650  -1.425  0.00  0.00    -0.018 S 
BRANCH  14  16
ATOM     16  N   UNL     1       2.574  -2.656  -3.886  0.00  0.00    -0.297 N 
ATOM     17  H   UNL     1       3.218  -3.381  -3.904  0.00  0.00    +0.154 HD
BRANCH  16  18
ATOM     18  C   UNL     1       1.836  -2.348  -5.034  0.00  0.00    +0.034 A 
ATOM     19  C   UNL     1       0.916  -1.307  -5.011  0.00  0.00    +0.024 A 
ATOM     20  C   UNL     1       0.189  -1.005  -6.145  0.00  0.00    +0.015 A 
ATOM     21  C   UNL     1       0.374  -1.737  -7.303  0.00  0.00    +0.073 A 
ATOM     22  C   UNL     1       1.289  -2.775  -7.330  0.00  0.00    +0.054 A 
ATOM     23  C   UNL     1       2.025  -3.078  -6.199  0.00  0.00    +0.043 A 
ATOM     24 CL   UNL     1       1.518  -3.693  -8.786  0.00  0.00    -0.083 Cl
BRANCH  21  25
ATOM     25  C   UNL     1      -0.422  -1.405  -8.539  0.00  0.00    +0.419 C 
ATOM     26  F   UNL     1      -1.273  -0.328  -8.269  0.00  0.00    -0.166 F 
ATOM     27  F   UNL     1       0.451  -1.060  -9.577  0.00  0.00    -0.166 F 
ATOM     28  F   UNL     1      -1.181  -2.517  -8.918  0.00  0.00    -0.166 F 
ENDBRANCH  21  25
ENDBRANCH  16  18
ENDBRANCH  14  16
ENDBRANCH   1  14
BRANCH   1  29
ATOM     29  C   UNL     1       3.481  -0.053  -3.837  0.00  0.00    +0.145 C 
BRANCH  29  30
ATOM     30  C   UNL     1       4.979  -0.158  -3.711  0.00  0.00    +0.005 A 
ATOM     31  C   UNL     1       5.707   0.906  -3.211  0.00  0.00    +0.008 A 
ATOM     32  C   UNL     1       7.081   0.810  -3.096  0.00  0.00    +0.000 A 
ATOM     33  C   UNL     1       7.729  -0.349  -3.480  0.00  0.00    +0.003 A 
ATOM     34  C   UNL     1       7.003  -1.414  -3.979  0.00  0.00    +0.038 A 
ATOM     35  C   UNL     1       5.626  -1.321  -4.090  0.00  0.00    +0.128 A 
ATOM     36  F   UNL     1       4.915  -2.363  -4.574  0.00  0.00    -0.205 F 
ENDBRANCH  29  30
ENDBRANCH   1  29
TORSDOF 7
