REMARK  Name = ZINC65227924
REMARK  7 active torsions:
REMARK  status: ('A' for Active; 'I' for Inactive)
REMARK    1  A    between atoms: C_1  and  O_2
REMARK    2  A    between atoms: O_2  and  C_3
REMARK    3  A    between atoms: C_6  and  C_9
REMARK    4  A    between atoms: C_9  and  N_10
REMARK    5  A    between atoms: C_11  and  C_13
REMARK    6  A    between atoms: C_21  and  C_26
REMARK    7  A    between atoms: C_28  and  C_31
REMARK                            x       y       z     vdW  Elec       q    Type
REMARK                         _______ _______ _______ _____ _____    ______ ____
ROOT
ATOM      1  C   UNL     1       6.162  -3.543  -4.673  0.00  0.00    +0.092 C 
ATOM      2  C   UNL     1       6.821  -2.186  -4.418  0.00  0.00    +0.016 C 
ATOM      3  C   UNL     1       8.300  -2.391  -4.079  0.00  0.00    +0.020 C 
ATOM      4  C   UNL     1       9.004  -3.056  -5.266  0.00  0.00    +0.106 C 
ATOM      5  N   UNL     1       8.287  -4.291  -5.611  0.00  0.00    -0.315 N 
ATOM      6  C   UNL     1       6.842  -4.221  -5.867  0.00  0.00    +0.119 C 
ATOM      7  C   UNL     1       8.961  -5.500  -5.693  0.00  0.00    +0.110 A 
ATOM      8  C   UNL     1       9.447  -5.944  -6.931  0.00  0.00    +0.060 A 
ATOM      9  C   UNL     1      10.122  -7.163  -6.991  0.00  0.00    +0.016 A 
ATOM     10  C   UNL     1      10.284  -7.885  -5.819  0.00  0.00    +0.018 A 
ATOM     11  C   UNL     1       9.778  -7.383  -4.636  0.00  0.00    +0.084 A 
ATOM     12  N   UNL     1       9.146  -6.224  -4.601  0.00  0.00    -0.349 N 
ATOM     13  H   UNL     1       8.806  -5.897  -3.754  0.00  0.00    +0.167 HD
ENDROOT
BRANCH   8  14
ATOM     14  C   UNL     1       9.246  -5.132  -8.155  0.00  0.00    +0.205 A 
ATOM     15  N   UNL     1       9.567  -5.507  -9.407  0.00  0.00    -0.191 NA
ATOM     16  C   UNL     1       9.259  -4.562 -10.248  0.00  0.00    +0.231 A 
ATOM     17  O   UNL     1       8.726  -3.541  -9.564  0.00  0.00    -0.337 OA
ATOM     18  N   UNL     1       8.720  -3.932  -8.199  0.00  0.00    -0.056 NA
BRANCH  16  19
ATOM     19  C   UNL     1       9.467  -4.608 -11.740  0.00  0.00    +0.078 C 
ATOM     20  C   UNL     1       9.896  -3.261 -12.345  0.00  0.00    +0.013 C 
ATOM     21  C   UNL     1       8.960  -3.581 -13.522  0.00  0.00    +0.001 C 
ATOM     22  C   UNL     1       8.166  -4.468 -12.548  0.00  0.00    +0.013 C 
ENDBRANCH  16  19
ENDBRANCH   8  14
BRANCH   1  24
ATOM     23  N   UNL     1       3.896  -2.758  -4.063  0.00  0.00    -0.311 N 
ATOM     24  C   UNL     1       4.699  -3.342  -4.975  0.00  0.00    +0.218 C 
ATOM     25  O   UNL     1       4.244  -3.707  -6.039  0.00  0.00    -0.275 OA
ATOM     26  H   UNL     1       4.261  -2.467  -3.213  0.00  0.00    +0.149 HD
BRANCH  23  27
ATOM     27  C   UNL     1       2.474  -2.563  -4.357  0.00  0.00    +0.139 C 
BRANCH  27  31
ATOM     28  C   UNL     1       0.580  -0.667  -1.029  0.00  0.00    +0.120 A 
ATOM     29  C   UNL     1       1.133   0.101  -2.043  0.00  0.00    +0.046 A 
ATOM     30  C   UNL     1       1.745  -0.515  -3.118  0.00  0.00    +0.009 A 
ATOM     31  C   UNL     1       1.806  -1.895  -3.183  0.00  0.00    -0.030 A 
ATOM     32  C   UNL     1       1.255  -2.662  -2.173  0.00  0.00    +0.009 A 
ATOM     33  C   UNL     1       0.647  -2.051  -1.094  0.00  0.00    +0.046 A 
BRANCH  28  35
ATOM     34  C   UNL     1      -0.056   1.365   0.030  0.00  0.00    +0.277 C 
ATOM     35  O   UNL     1      -0.023  -0.064   0.030  0.00  0.00    -0.495 OA
ENDBRANCH  28  35
ENDBRANCH  27  31
ENDBRANCH  23  27
ENDBRANCH   1  24
TORSDOF 6
