REMARK  Name = ZINC34757600
REMARK  11 active torsions:
REMARK  status: ('A' for Active; 'I' for Inactive)
REMARK    1  A    between atoms: C_1  and  C_2
REMARK    2  A    between atoms: C_2  and  N_3
REMARK    3  A    between atoms: N_3  and  C_4
REMARK    4  A    between atoms: C_4  and  C_5
REMARK    5  A    between atoms: C_6  and  C_8
REMARK    6  A    between atoms: C_8  and  N_9
REMARK    7  A    between atoms: C_22  and  S_24
REMARK    8  A    between atoms: S_24  and  C_25
REMARK    9  A    between atoms: C_25  and  C_26
REMARK   10  A    between atoms: C_28  and  C_33
REMARK   11  A    between atoms: C_31  and  C_32
REMARK                            x       y       z     vdW  Elec       q    Type
REMARK                         _______ _______ _______ _____ _____    ______ ____
ROOT
ATOM      1  N   UNL     1      -3.017  -1.206   3.472  0.00  0.00    +0.387 N 
ATOM      2  C   UNL     1      -3.061  -1.200   4.940  0.00  0.00    -0.059 C 
ATOM      3  C   UNL     1      -4.479  -1.541   5.409  0.00  0.00    +0.088 C 
ATOM      4  N   UNL     1      -4.879  -2.817   4.795  0.00  0.00    -0.318 N 
ATOM      5  C   UNL     1      -4.713  -2.968   3.341  0.00  0.00    +0.088 C 
ATOM      6  C   UNL     1      -3.284  -2.559   2.969  0.00  0.00    -0.059 C 
ATOM      7  C   UNL     1      -5.395  -3.845   5.562  0.00  0.00    +0.134 A 
ATOM      8  C   UNL     1      -6.801  -3.990   5.720  0.00  0.00    +0.051 A 
ATOM      9  C   UNL     1      -7.875  -3.157   5.153  0.00  0.00    -0.025 A 
ATOM     10  C   UNL     1      -9.136  -3.504   5.454  0.00  0.00    -0.004 A 
ATOM     11  S   UNL     1      -8.985  -4.941   6.491  0.00  0.00    -0.073 S 
ATOM     12  C   UNL     1      -7.218  -5.069   6.520  0.00  0.00    +0.115 A 
ATOM     13  N   UNL     1      -6.349  -5.887   7.084  0.00  0.00    -0.215 NA
ATOM     14  C   UNL     1      -5.048  -5.705   6.903  0.00  0.00    +0.191 A 
ATOM     15  N   UNL     1      -4.588  -4.709   6.155  0.00  0.00    -0.206 NA
ATOM     16  C   UNL     1     -10.146  -2.582   4.826  0.00  0.00    +0.043 C 
ATOM     17  C   UNL     1      -9.332  -1.331   4.427  0.00  0.00    +0.010 C 
ATOM     18  C   UNL     1      -7.919  -1.921   4.250  0.00  0.00    +0.037 C 
ATOM     19  H   UNL     1      -3.715  -0.571   3.115  0.00  0.00    -0.081 HD
ENDROOT
BRANCH   1  20
ATOM     20  C   UNL     1      -1.688  -0.771   3.022  0.00  0.00    +0.019 C 
BRANCH  20  22
ATOM     21  N   UNL     1      -0.302   1.275   3.124  0.00  0.00    -0.304 N 
ATOM     22  C   UNL     1      -1.461   0.661   3.432  0.00  0.00    +0.199 C 
ATOM     23  O   UNL     1      -2.322   1.261   4.040  0.00  0.00    -0.278 OA
BRANCH  21  25
ATOM     24  C   UNL     1      -0.574   3.599   2.413  0.00  0.00    +0.024 C 
ATOM     25  C   UNL     1      -0.082   2.667   3.522  0.00  0.00    +0.104 C 
ENDBRANCH  21  25
BRANCH  21  26
ATOM     26  C   UNL     1       0.738   0.550   2.390  0.00  0.00    +0.104 C 
ATOM     27  C   UNL     1       1.669  -0.149   3.382  0.00  0.00    +0.024 C 
ENDBRANCH  21  26
ENDBRANCH  20  22
ENDBRANCH   1  20
BRANCH  14  28
ATOM     28  S   UNL     1      -3.907  -6.810   7.666  0.00  0.00    -0.081 S 
BRANCH  28  29
ATOM     29  C   UNL     1      -4.964  -7.984   8.559  0.00  0.00    +0.112 C 
BRANCH  29  30
ATOM     30  C   UNL     1      -4.102  -8.998   9.266  0.00  0.00    -0.034 A 
ATOM     31  C   UNL     1      -3.738 -10.165   8.621  0.00  0.00    +0.008 A 
ATOM     32  C   UNL     1      -2.947 -11.095   9.270  0.00  0.00    -0.050 A 
ATOM     33  C   UNL     1      -2.521 -10.858  10.563  0.00  0.00    +0.003 A 
ATOM     34  C   UNL     1      -2.884  -9.691  11.208  0.00  0.00    +0.004 A 
ATOM     35  C   UNL     1      -3.671  -8.758  10.558  0.00  0.00    -0.046 A 
ATOM     36  C   UNL     1      -4.063  -7.483  11.259  0.00  0.00    +0.044 C 
ATOM     37  C   UNL     1      -2.551 -12.368   8.567  0.00  0.00    +0.044 C 
ENDBRANCH  29  30
ENDBRANCH  28  29
ENDBRANCH  14  28
TORSDOF 7
