REMARK  Name = ZINC20556418
REMARK  4 active torsions:
REMARK  status: ('A' for Active; 'I' for Inactive)
REMARK    1  A    between atoms: C_6  and  C_7
REMARK    2  A    between atoms: C_7  and  C_9
REMARK    3  A    between atoms: C_7  and  N_19
REMARK    4  A    between atoms: C_11  and  N_16
REMARK                            x       y       z     vdW  Elec       q    Type
REMARK                         _______ _______ _______ _____ _____    ______ ____
ROOT
ATOM      1  C   UNL     1       2.490   1.046  -0.016  0.00  0.00    -0.013 C 
ENDROOT
BRANCH   1   7
ATOM      2  C   UNL     1      -0.013   1.076   0.008  0.00  0.00    +0.004 A 
ATOM      3  C   UNL     1      -1.219   1.750   0.017  0.00  0.00    +0.021 A 
ATOM      4  C   UNL     1      -1.238   3.133   0.030  0.00  0.00    +0.059 A 
ATOM      5  C   UNL     1      -0.049   3.841   0.022  0.00  0.00    +0.059 A 
ATOM      6  C   UNL     1       1.158   3.165   0.007  0.00  0.00    +0.023 A 
ATOM      7  C   UNL     1       1.175   1.783   0.000  0.00  0.00    -0.056 A 
ATOM      8 CL   UNL     1      -0.071   5.577   0.031  0.00  0.00    -0.082 Cl
ATOM      9 CL   UNL     1      -2.753   3.981   0.048  0.00  0.00    -0.082 Cl
ENDBRANCH   1   7
BRANCH   1  10
ATOM     10  C   UNL     1       3.062   1.008   1.378  0.00  0.00    -0.054 A 
ATOM     11  C   UNL     1       2.923  -0.129   2.151  0.00  0.00    +0.035 A 
ATOM     12  C   UNL     1       3.448  -0.165   3.429  0.00  0.00    +0.128 A 
ATOM     13  C   UNL     1       4.112   0.937   3.935  0.00  0.00    +0.052 A 
ATOM     14  C   UNL     1       4.251   2.076   3.162  0.00  0.00    +0.043 A 
ATOM     15  C   UNL     1       3.730   2.109   1.880  0.00  0.00    +0.022 A 
ATOM     16 CL   UNL     1       5.085   3.460   3.796  0.00  0.00    -0.083 Cl
BRANCH  12  17
ATOM     17  N   UNL     1       3.298  -1.382   4.257  0.00  0.00    +0.056 N 
ATOM     18  O   UNL     1       2.712  -2.353   3.812  0.00  0.00    -0.126 OA
ATOM     19  O   UNL     1       3.760  -1.414   5.384  0.00  0.00    -0.126 OA
ENDBRANCH  12  17
ENDBRANCH   1  10
BRANCH   1  20
ATOM     20  N   UNL     1       3.427   1.737  -0.912  0.00  0.00    +0.385 N 
ATOM     21  H   UNL     1       4.387   1.200  -0.924  0.00  0.00    -0.089 HD
ATOM     22  H   UNL     1       3.587   2.765  -0.553  0.00  0.00    -0.089 HD
ATOM     23  H   UNL     1       3.009   1.765  -1.929  0.00  0.00    -0.089 HD
ENDBRANCH   1  20
TORSDOF 4
