REMARK  Name = ZINC09783509
REMARK  9 active torsions:
REMARK  status: ('A' for Active; 'I' for Inactive)
REMARK    1  A    between atoms: C_1  and  N_2
REMARK    2  A    between atoms: C_3  and  C_25
REMARK    3  A    between atoms: C_6  and  S_7
REMARK    4  A    between atoms: S_7  and  C_8
REMARK    5  A    between atoms: C_8  and  C_9
REMARK    6  A    between atoms: N_11  and  C_12
REMARK    7  A    between atoms: C_12  and  C_13
REMARK    8  A    between atoms: C_12  and  C_19
REMARK    9  A    between atoms: C_25  and  C_26
REMARK                            x       y       z     vdW  Elec       q    Type
REMARK                         _______ _______ _______ _____ _____    ______ ____
ROOT
ATOM      1  C   UNL     1       8.794   6.010   0.468  0.00  0.00    +0.224 C 
ATOM      2  O   UNL     1       9.123   5.808   1.618  0.00  0.00    -0.275 OA
ATOM      3  N   UNL     1       9.674   6.547  -0.400  0.00  0.00    -0.304 N 
ATOM      4  H   UNL     1       9.411   6.708  -1.320  0.00  0.00    +0.150 HD
ENDROOT
BRANCH   1   5
ATOM      5  C   UNL     1       7.402   5.659   0.011  0.00  0.00    +0.173 C 
BRANCH   5   6
ATOM      6  S   UNL     1       6.469   4.962   1.396  0.00  0.00    -0.077 S 
BRANCH   6  12
ATOM      7  C   UNL     1       3.650   3.692   2.570  0.00  0.00    +0.152 C 
ATOM      8  N   UNL     1       3.810   4.119   1.177  0.00  0.00    -0.309 N 
ATOM      9  C   UNL     1       2.872   4.063   0.184  0.00  0.00    +0.134 A 
ATOM     10  N   UNL     1       3.421   4.544  -0.895  0.00  0.00    -0.134 NA
ATOM     11  N   UNL     1       4.634   4.893  -0.655  0.00  0.00    -0.123 NA
ATOM     12  C   UNL     1       4.927   4.652   0.602  0.00  0.00    +0.192 A 
BRANCH   9  13
ATOM     13  C   UNL     1       1.462   3.547   0.315  0.00  0.00    +0.081 C 
BRANCH  13  14
ATOM     14  C   UNL     1       1.435   2.050  -0.001  0.00  0.00    +0.019 C 
ATOM     15  C   UNL     1      -0.019   1.551   0.011  0.00  0.00    +0.028 C 
ATOM     16  C   UNL     1       0.002  -0.004   0.002  0.00  0.00    +0.166 C 
ATOM     17  S   UNL     1       1.390  -0.329   1.169  0.00  0.00    -0.031 S 
ATOM     18  O   UNL     1       0.865  -0.484   2.480  0.00  0.00    -0.174 OA
ATOM     19  O   UNL     1       2.224  -1.343   0.625  0.00  0.00    -0.174 OA
ATOM     20  C   UNL     1       2.263   1.286   1.061  0.00  0.00    +0.170 C 
ENDBRANCH  13  14
ENDBRANCH   9  13
ENDBRANCH   6  12
ENDBRANCH   5   6
ENDBRANCH   1   5
BRANCH   3  21
ATOM     21  C   UNL     1      11.027   6.888   0.045  0.00  0.00    +0.134 C 
BRANCH  21  22
ATOM     22  C   UNL     1      11.963   6.875  -1.136  0.00  0.00    -0.023 A 
ATOM     23  C   UNL     1      11.546   7.379  -2.354  0.00  0.00    +0.006 A 
ATOM     24  C   UNL     1      12.406   7.371  -3.436  0.00  0.00    +0.000 A 
ATOM     25  C   UNL     1      13.679   6.850  -3.304  0.00  0.00    +0.000 A 
ATOM     26  C   UNL     1      14.094   6.340  -2.087  0.00  0.00    +0.000 A 
ATOM     27  C   UNL     1      13.236   6.353  -1.004  0.00  0.00    +0.006 A 
ENDBRANCH  21  22
BRANCH  21  28
ATOM     28  C   UNL     1      11.021   8.262   0.665  0.00  0.00    -0.023 A 
ATOM     29  C   UNL     1      10.270   9.273   0.096  0.00  0.00    +0.006 A 
ATOM     30  C   UNL     1      10.260  10.532   0.668  0.00  0.00    +0.000 A 
ATOM     31  C   UNL     1      11.009  10.782   1.802  0.00  0.00    +0.000 A 
ATOM     32  C   UNL     1      11.764   9.771   2.368  0.00  0.00    +0.000 A 
ATOM     33  C   UNL     1      11.770   8.511   1.800  0.00  0.00    +0.006 A 
ENDBRANCH  21  28
ENDBRANCH   3  21
TORSDOF 8
