REMARK  Name = ZINC47346761
REMARK  4 active torsions:
REMARK  status: ('A' for Active; 'I' for Inactive)
REMARK    1  A    between atoms: C_1  and  C_2
REMARK    2  A    between atoms: C_5  and  C_7
REMARK    3  A    between atoms: C_9  and  C_12
REMARK    4  A    between atoms: C_12  and  N_13
REMARK                            x       y       z     vdW  Elec       q    Type
REMARK                         _______ _______ _______ _____ _____    ______ ____
ROOT
ATOM      1  N   UNL     1       5.646  -4.227  -1.414  0.00  0.00    -0.218 N 
ATOM      2  C   UNL     1       5.899  -5.267  -2.235  0.00  0.00    +0.251 C 
ATOM      3  O   UNL     1       5.773  -6.447  -1.985  0.00  0.00    -0.272 OA
ATOM      4  C   UNL     1       6.374  -4.653  -3.533  0.00  0.00    +0.138 C 
ATOM      5  C   UNL     1       7.799  -5.098  -3.837  0.00  0.00    +0.040 C 
ATOM      6  C   UNL     1       8.169  -4.613  -5.245  0.00  0.00    +0.008 C 
ATOM      7  C   UNL     1       7.345  -5.401  -6.260  0.00  0.00    +0.035 C 
ATOM      8  C   UNL     1       5.881  -5.353  -5.908  0.00  0.00    -0.042 A 
ATOM      9  C   UNL     1       5.435  -5.012  -4.650  0.00  0.00    -0.012 A 
ATOM     10  C   UNL     1       4.071  -4.992  -4.387  0.00  0.00    +0.006 A 
ATOM     11  C   UNL     1       3.162  -5.309  -5.375  0.00  0.00    +0.000 A 
ATOM     12  C   UNL     1       3.610  -5.648  -6.637  0.00  0.00    +0.000 A 
ATOM     13  C   UNL     1       4.964  -5.670  -6.901  0.00  0.00    +0.004 A 
ATOM     14  N   UNL     1       6.332  -3.207  -3.277  0.00  0.00    -0.281 N 
ATOM     15  C   UNL     1       5.889  -3.055  -2.014  0.00  0.00    +0.310 C 
ATOM     16  O   UNL     1       5.731  -1.976  -1.478  0.00  0.00    -0.252 OA
ATOM     17  H   UNL     1       6.573  -2.500  -3.896  0.00  0.00    +0.152 HD
ENDROOT
BRANCH   1  18
ATOM     18  C   UNL     1       5.160  -4.363  -0.039  0.00  0.00    +0.174 C 
BRANCH  18  21
ATOM     19  C   UNL     1       1.662  -3.220  -0.025  0.00  0.00    +0.144 A 
ATOM     20  N   UNL     1       2.990  -3.240  -0.027  0.00  0.00    -0.239 NA
ATOM     21  C   UNL     1       3.654  -4.372  -0.037  0.00  0.00    +0.067 A 
ATOM     22  C   UNL     1       2.980  -5.552  -0.047  0.00  0.00    +0.072 A 
ATOM     23  S   UNL     1       1.289  -4.969  -0.033  0.00  0.00    -0.072 S 
BRANCH  19  28
ATOM     24  C   UNL     1      -0.018   1.503   0.010  0.00  0.00    +0.086 C 
ATOM     25  C   UNL     1       0.002  -0.004   0.002  0.00  0.00    +0.103 A 
ATOM     26  C   UNL     1      -1.083  -0.804   0.003  0.00  0.00    +0.045 A 
ATOM     27  C   UNL     1      -0.617  -2.133  -0.008  0.00  0.00    +0.052 A 
ATOM     28  C   UNL     1       0.745  -2.071  -0.014  0.00  0.00    +0.160 A 
ATOM     29  O   UNL     1       1.104  -0.771  -0.013  0.00  0.00    -0.458 OA
ENDBRANCH  19  28
ENDBRANCH  18  21
ENDBRANCH   1  18
TORSDOF 3
