REMARK  Name = ZINC51710965
REMARK  4 active torsions:
REMARK  status: ('A' for Active; 'I' for Inactive)
REMARK    1  A    between atoms: C_6  and  C_7
REMARK    2  A    between atoms: C_7  and  C_8
REMARK    3  A    between atoms: C_7  and  N_12
REMARK    4  A    between atoms: C_19  and  C_21
REMARK                            x       y       z     vdW  Elec       q    Type
REMARK                         _______ _______ _______ _____ _____    ______ ____
ROOT
ATOM      1  N   UNL     1      -1.180  -1.929  -0.885  0.00  0.00    -0.292 N 
ATOM      2  C   UNL     1      -2.286  -2.465  -1.437  0.00  0.00    +0.303 C 
ATOM      3  O   UNL     1      -3.385  -2.050  -1.122  0.00  0.00    -0.253 OA
ATOM      4  N   UNL     1      -2.175  -3.461  -2.338  0.00  0.00    -0.280 N 
ATOM      5  C   UNL     1      -0.867  -4.059  -2.649  0.00  0.00    +0.137 C 
ATOM      6  C   UNL     1      -0.692  -4.071  -4.172  0.00  0.00    +0.180 C 
ATOM      7  O   UNL     1      -1.832  -4.691  -4.772  0.00  0.00    -0.364 OA
ATOM      8  C   UNL     1      -3.062  -4.000  -4.543  0.00  0.00    +0.221 C 
ATOM      9  C   UNL     1      -3.360  -3.988  -3.035  0.00  0.00    +0.150 C 
ATOM     10  H   UNL     1      -0.307  -2.300  -1.089  0.00  0.00    +0.151 HD
ENDROOT
BRANCH   8  11
ATOM     11  C   UNL     1      -4.179  -4.706  -5.268  0.00  0.00    +0.241 C 
ATOM     12  O   UNL     1      -3.962  -5.752  -5.843  0.00  0.00    -0.273 OA
ATOM     13  N   UNL     1      -5.417  -4.175  -5.279  0.00  0.00    -0.327 N 
ATOM     14  H   UNL     1      -5.590  -3.338  -4.819  0.00  0.00    +0.145 HD
ATOM     15  H   UNL     1      -6.136  -4.629  -5.746  0.00  0.00    +0.145 HD
ENDBRANCH   8  11
BRANCH   1  16
ATOM     16  C   UNL     1      -1.294  -0.786   0.024  0.00  0.00    +0.108 C 
BRANCH  16  22
ATOM     17  C   UNL     1      -0.030   1.374   0.041  0.00  0.00    +0.006 A 
ATOM     18  C   UNL     1       1.153   2.089   0.035  0.00  0.00    +0.015 A 
ATOM     19  C   UNL     1       2.364   1.421   0.006  0.00  0.00    +0.018 A 
ATOM     20  C   UNL     1       2.390   0.038  -0.018  0.00  0.00    +0.015 A 
ATOM     21  C   UNL     1       1.206  -0.676  -0.012  0.00  0.00    +0.006 A 
ATOM     22  C   UNL     1      -0.004  -0.008   0.018  0.00  0.00    -0.027 A 
ATOM     23 BR   UNL     1       3.983   2.397  -0.003  0.00  0.00    -0.050 Br
ENDBRANCH  16  22
BRANCH  16  24
ATOM     24  C   UNL     1      -1.580  -1.288   1.441  0.00  0.00    +0.014 C 
ATOM     25  C   UNL     1      -2.247  -0.237   2.344  0.00  0.00    +0.006 C 
ATOM     26  C   UNL     1      -3.120  -1.377   2.894  0.00  0.00    +0.001 C 
ATOM     27  C   UNL     1      -2.882  -2.098   1.557  0.00  0.00    +0.006 C 
ENDBRANCH  16  24
ENDBRANCH   1  16
TORSDOF 4
