REMARK  Name = ZINC40399648
REMARK  4 active torsions:
REMARK  status: ('A' for Active; 'I' for Inactive)
REMARK    1  A    between atoms: C_3  and  N_11
REMARK    2  A    between atoms: C_6  and  C_7
REMARK    3  A    between atoms: N_24  and  C_25
REMARK    4  A    between atoms: C_25  and  C_26
REMARK                            x       y       z     vdW  Elec       q    Type
REMARK                         _______ _______ _______ _____ _____    ______ ____
ROOT
ATOM      1  N   UNL     1       4.178   4.743  -1.429  0.00  0.00    -0.269 N 
ATOM      2  C   UNL     1       4.843   3.596  -1.184  0.00  0.00    +0.306 C 
ATOM      3  O   UNL     1       4.324   2.526  -1.435  0.00  0.00    -0.252 OA
ATOM      4  N   UNL     1       6.085   3.636  -0.660  0.00  0.00    -0.285 N 
ATOM      5  C   UNL     1       6.651   4.902  -0.174  0.00  0.00    +0.109 C 
ATOM      6  C   UNL     1       8.003   5.132  -0.859  0.00  0.00    +0.025 C 
ATOM      7  C   UNL     1       8.895   3.910  -0.643  0.00  0.00    +0.006 C 
ATOM      8  C   UNL     1       8.245   2.666  -1.245  0.00  0.00    +0.025 C 
ATOM      9  C   UNL     1       6.894   2.414  -0.559  0.00  0.00    +0.109 C 
ATOM     10  N   UNL     1      10.213   4.138  -1.270  0.00  0.00    +0.399 N 
ATOM     11  C   UNL     1      11.145   3.426  -0.362  0.00  0.00    +0.018 C 
ATOM     12  C   UNL     1      10.448   3.423   0.981  0.00  0.00    +0.198 C 
ATOM     13  O   UNL     1      10.973   3.200   2.051  0.00  0.00    -0.278 OA
ATOM     14  N   UNL     1       9.144   3.711   0.787  0.00  0.00    -0.310 N 
ATOM     15  H   UNL     1       4.640   5.593  -1.371  0.00  0.00    +0.156 HD
ATOM     16  H   UNL     1      10.242   3.738  -2.196  0.00  0.00    -0.082 HD
ATOM     17  H   UNL     1      10.428   5.124  -1.300  0.00  0.00    -0.082 HD
ENDROOT
BRANCH   1  20
ATOM     18  C   UNL     1       0.607   5.606  -1.575  0.00  0.00    +0.014 A 
ATOM     19  C   UNL     1       1.946   5.645  -1.239  0.00  0.00    +0.024 A 
ATOM     20  C   UNL     1       2.821   4.705  -1.767  0.00  0.00    +0.035 A 
ATOM     21  C   UNL     1       2.345   3.728  -2.631  0.00  0.00    +0.024 A 
ATOM     22  C   UNL     1       1.005   3.694  -2.963  0.00  0.00    +0.014 A 
ATOM     23  C   UNL     1       0.137   4.632  -2.436  0.00  0.00    +0.055 A 
BRANCH  23  24
ATOM     24  C   UNL     1      -1.325   4.591  -2.800  0.00  0.00    +0.417 C 
ATOM     25  F   UNL     1      -1.544   5.373  -3.939  0.00  0.00    -0.166 F 
ATOM     26  F   UNL     1      -1.704   3.270  -3.061  0.00  0.00    -0.166 F 
ATOM     27  F   UNL     1      -2.084   5.093  -1.737  0.00  0.00    -0.166 F 
ENDBRANCH  23  24
ENDBRANCH   1  20
BRANCH  14  28
ATOM     28  C   UNL     1       8.133   3.809   1.843  0.00  0.00    +0.141 C 
BRANCH  28  29
ATOM     29  C   UNL     1       8.279   5.128   2.557  0.00  0.00    -0.026 A 
ATOM     30  C   UNL     1       9.417   5.391   3.296  0.00  0.00    +0.009 A 
ATOM     31  C   UNL     1       9.556   6.600   3.952  0.00  0.00    +0.050 A 
ATOM     32  C   UNL     1       8.553   7.552   3.870  0.00  0.00    +0.166 A 
ATOM     33  C   UNL     1       7.406   7.287   3.125  0.00  0.00    +0.167 A 
ATOM     34  C   UNL     1       7.276   6.076   2.466  0.00  0.00    +0.054 A 
ATOM     35  O   UNL     1       6.577   8.370   3.200  0.00  0.00    -0.453 OA
ATOM     36  C   UNL     1       7.045   9.134   4.328  0.00  0.00    +0.466 C 
ATOM     37  O   UNL     1       8.443   8.800   4.411  0.00  0.00    -0.453 OA
ENDBRANCH  28  29
ENDBRANCH  14  28
TORSDOF 4
