REMARK  Name = ZINC22472603
REMARK  6 active torsions:
REMARK  status: ('A' for Active; 'I' for Inactive)
REMARK    1  A    between atoms: C_9  and  O_10
REMARK    2  A    between atoms: N_12  and  C_13
REMARK    3  A    between atoms: C_13  and  C_14
REMARK    4  A    between atoms: C_14  and  N_15
REMARK    5  A    between atoms: C_21  and  C_23
REMARK    6  A    between atoms: C_23  and  C_24
REMARK                            x       y       z     vdW  Elec       q    Type
REMARK                         _______ _______ _______ _____ _____    ______ ____
ROOT
ATOM      1  C   UNL     1      -3.637   2.333   0.032  0.00  0.00    +0.105 C 
ENDROOT
BRANCH   1   2
ATOM      2  N   UNL     1      -4.912   1.604   0.034  0.00  0.00    -0.298 NA
ATOM      3  C   UNL     1      -5.095   0.859  -1.219  0.00  0.00    +0.103 C 
ATOM      4  C   UNL     1      -6.341  -0.026  -1.106  0.00  0.00    +0.123 C 
ATOM      5  N   UNL     1      -7.479   0.817  -0.712  0.00  0.00    -0.299 N 
ATOM      6  C   UNL     1      -7.322   1.696   0.457  0.00  0.00    +0.123 C 
ATOM      7  C   UNL     1      -6.038   2.514   0.283  0.00  0.00    +0.103 C 
ATOM      8  C   UNL     1      -8.636   0.785  -1.403  0.00  0.00    +0.220 C 
ATOM      9  O   UNL     1      -9.565   1.487  -1.063  0.00  0.00    -0.275 OA
BRANCH   8  10
ATOM     10  C   UNL     1      -8.775  -0.123  -2.598  0.00  0.00    +0.131 C 
BRANCH  10  11
ATOM     11  C   UNL     1     -10.153   0.030  -3.187  0.00  0.00    -0.039 A 
ATOM     12  C   UNL     1     -11.185  -0.779  -2.749  0.00  0.00    +0.005 A 
ATOM     13  C   UNL     1     -12.451  -0.636  -3.286  0.00  0.00    +0.020 A 
ATOM     14  C   UNL     1     -12.683   0.310  -4.268  0.00  0.00    +0.041 A 
ATOM     15  C   UNL     1     -11.648   1.116  -4.710  0.00  0.00    +0.020 A 
ATOM     16  C   UNL     1     -10.384   0.975  -4.169  0.00  0.00    +0.005 A 
ATOM     17 CL   UNL     1     -14.271   0.486  -4.947  0.00  0.00    -0.084 Cl
ENDBRANCH  10  11
ENDBRANCH   8  10
ENDBRANCH   1   2
BRANCH   1  18
ATOM     18  C   UNL     1      -2.478   1.334   0.021  0.00  0.00    +0.128 C 
BRANCH  18  29
ATOM     19  C   UNL     1       2.556   4.101  -0.001  0.00  0.00    +0.001 A 
ATOM     20  C   UNL     1       3.727   3.358  -0.016  0.00  0.00    +0.004 A 
ATOM     21  C   UNL     1       3.684   1.979  -0.022  0.00  0.00    +0.047 A 
ATOM     22  C   UNL     1       2.460   1.323  -0.014  0.00  0.00    +0.141 A 
ATOM     23  C   UNL     1       1.275   2.075   0.001  0.00  0.00    +0.041 A 
ATOM     24  C   UNL     1       1.332   3.470   0.007  0.00  0.00    +0.013 A 
ATOM     25  C   UNL     1      -0.017   1.367   0.010  0.00  0.00    +0.053 A 
ATOM     26  C   UNL     1       0.002  -0.004   0.002  0.00  0.00    +0.113 A 
ATOM     27  C   UNL     1       1.228  -0.681  -0.013  0.00  0.00    +0.286 A 
ATOM     28  O   UNL     1       2.400  -0.026  -0.021  0.00  0.00    -0.425 OA
ATOM     29  N   UNL     1      -1.206   2.061   0.019  0.00  0.00    -0.382 N 
ATOM     30  H   UNL     1      -1.202   3.161   0.025  0.00  0.00    +0.160 HD
BRANCH  27  31
ATOM     31  O   UNL     1       1.231  -1.900  -0.020  0.00  0.00    -0.480 OA
ATOM     32  H   UNL     1       2.185  -2.448  -0.032  0.00  0.00    +0.295 HD
ENDBRANCH  27  31
ENDBRANCH  18  29
ENDBRANCH   1  18
TORSDOF 6
