REMARK  Name = ZINC39990462
REMARK  16 active torsions:
REMARK  status: ('A' for Active; 'I' for Inactive)
REMARK    1  A    between atoms: C_1  and  C_2
REMARK    2  A    between atoms: C_2  and  C_3
REMARK    3  A    between atoms: C_3  and  C_4
REMARK    4  A    between atoms: C_4  and  C_5
REMARK    5  A    between atoms: C_5  and  C_6
REMARK    6  A    between atoms: C_6  and  N_7
REMARK    7  A    between atoms: C_11  and  C_12
REMARK    8  A    between atoms: C_13  and  C_35
REMARK    9  A    between atoms: C_14  and  C_33
REMARK   10  A    between atoms: N_17  and  C_29
REMARK   11  A    between atoms: C_18  and  N_19
REMARK   12  A    between atoms: C_21  and  C_28
REMARK   13  A    between atoms: C_24  and  C_27
REMARK   14  A    between atoms: C_29  and  C_30
REMARK   15  A    between atoms: C_30  and  C_31
REMARK   16  A    between atoms: C_31  and  C_32
REMARK                            x       y       z     vdW  Elec       q    Type
REMARK                         _______ _______ _______ _____ _____    ______ ____
ROOT
ATOM      1  C   UNL     1       3.050  -5.710  -8.447  0.00  0.00    +0.019 A 
ATOM      2  C   UNL     1       4.364  -6.044  -8.080  0.00  0.00    -0.017 A 
ATOM      3  C   UNL     1       5.008  -7.079  -8.752  0.00  0.00    +0.120 A 
ATOM      4  C   UNL     1       4.327  -7.769  -9.786  0.00  0.00    +0.270 A 
ATOM      5  O   UNL     1       4.885  -8.677 -10.377  0.00  0.00    -0.266 OA
ATOM      6  N   UNL     1       3.068  -7.431 -10.119  0.00  0.00    -0.295 N 
ATOM      7  C   UNL     1       2.416  -6.428  -9.475  0.00  0.00    +0.112 A 
ATOM      8  C   UNL     1       5.065  -5.293  -6.977  0.00  0.00    +0.046 C 
ENDROOT
BRANCH   1  13
ATOM      9  N   UNL     1       1.411  -4.065  -4.264  0.00  0.00    -0.255 N 
ATOM     10  C   UNL     1       1.536  -3.743  -5.540  0.00  0.00    +0.258 C 
ATOM     11  O   UNL     1       1.173  -2.655  -5.951  0.00  0.00    -0.269 OA
ATOM     12  C   UNL     1       2.108  -4.709  -6.423  0.00  0.00    +0.077 C 
ATOM     13  C   UNL     1       2.343  -4.627  -7.761  0.00  0.00    +0.032 C 
ATOM     14  S   UNL     1       2.432  -6.055  -5.292  0.00  0.00    -0.061 S 
ATOM     15  C   UNL     1       1.819  -5.270  -3.808  0.00  0.00    +0.121 C 
ATOM     16  S   UNL     1       1.761  -5.889  -2.213  0.00  0.00    -0.027 S 
BRANCH   9  17
ATOM     17  C   UNL     1       0.829  -3.099  -3.330  0.00  0.00    +0.115 C 
BRANCH  17  18
ATOM     18  C   UNL     1       1.938  -2.222  -2.746  0.00  0.00    +0.019 C 
BRANCH  18  19
ATOM     19  C   UNL     1       1.329  -1.213  -1.770  0.00  0.00    +0.002 C 
BRANCH  19  20
ATOM     20  C   UNL     1       2.438  -0.336  -1.185  0.00  0.00    -0.000 C 
BRANCH  20  22
ATOM     21  C   UNL     1       2.938   1.550   0.375  0.00  0.00    +0.004 C 
ATOM     22  C   UNL     1       1.829   0.673  -0.209  0.00  0.00    -0.003 C 
ENDBRANCH  20  22
ENDBRANCH  19  20
ENDBRANCH  18  19
ENDBRANCH  17  18
ENDBRANCH   9  17
ENDBRANCH   1  13
BRANCH   7  23
ATOM     23  N   UNL     1       1.138  -6.113  -9.833  0.00  0.00    -0.315 N 
ATOM     24  C   UNL     1       0.039  -7.058  -9.591  0.00  0.00    +0.109 C 
ATOM     25  C   UNL     1      -1.063  -6.341  -8.805  0.00  0.00    +0.004 C 
ATOM     26  C   UNL     1      -1.477  -5.072  -9.555  0.00  0.00    +0.009 C 
ATOM     27  C   UNL     1      -0.276  -4.131  -9.671  0.00  0.00    +0.004 C 
ATOM     28  C   UNL     1       0.834  -4.821 -10.461  0.00  0.00    +0.109 C 
ATOM     29  C   UNL     1      -0.699  -2.849 -10.391  0.00  0.00    +0.009 C 
ATOM     30  C   UNL     1      -0.539  -5.966  -7.417  0.00  0.00    +0.009 C 
ENDBRANCH   7  23
BRANCH   3  31
ATOM     31  C   UNL     1       6.348  -7.443  -8.401  0.00  0.00    +0.105 C 
ATOM     32  N   UNL     1       7.411  -7.732  -8.124  0.00  0.00    -0.191 NA
ENDBRANCH   3  31
BRANCH   6  33
ATOM     33  C   UNL     1       2.387  -8.160 -11.192  0.00  0.00    +0.126 C 
BRANCH  33  34
ATOM     34  C   UNL     1       1.768  -9.439 -10.625  0.00  0.00    +0.021 C 
BRANCH  34  35
ATOM     35  C   UNL     1       1.166 -10.263 -11.766  0.00  0.00    -0.002 C 
ATOM     36  C   UNL     1       0.547 -11.542 -11.199  0.00  0.00    +0.004 C 
ENDBRANCH  34  35
ENDBRANCH  33  34
ENDBRANCH   6  33
TORSDOF 11
