REMARK  Name = ZINC19974046
REMARK  3 active torsions:
REMARK  status: ('A' for Active; 'I' for Inactive)
REMARK    1  A    between atoms: C_1  and  C_2
REMARK    2  A    between atoms: C_7  and  C_8
REMARK    3  A    between atoms: C_11  and  N_17
REMARK                            x       y       z     vdW  Elec       q    Type
REMARK                         _______ _______ _______ _____ _____    ______ ____
ROOT
ATOM      1  C   UNL     1      -0.681   3.917  -1.178  0.00  0.00    +0.028 C 
ATOM      2  C   UNL     1      -0.336   2.428  -1.122  0.00  0.00    +0.031 C 
ATOM      3  C   UNL     1       0.501   2.137   0.125  0.00  0.00    +0.080 C 
ATOM      4  C   UNL     1       1.835   2.886   0.029  0.00  0.00    +0.096 C 
ATOM      5  C   UNL     1       1.546   4.354  -0.199  0.00  0.00    +0.136 C 
ATOM      6  O   UNL     1       2.052   5.200   0.499  0.00  0.00    -0.297 OA
ATOM      7  C   UNL     1       0.608   4.734  -1.323  0.00  0.00    +0.082 C 
ENDROOT
BRANCH   3   8
ATOM      8  N   UNL     1       0.756   0.697   0.217  0.00  0.00    -0.320 N 
ATOM      9  C   UNL     1       1.018   0.115   1.452  0.00  0.00    +0.204 A 
ATOM     10  C   UNL     1       1.290  -1.307   1.692  0.00  0.00    +0.202 A 
ATOM     11  N   UNL     1       1.488  -1.476   2.970  0.00  0.00    -0.032 NA
ATOM     12  O   UNL     1       1.360  -0.215   3.601  0.00  0.00    -0.239 OA
ATOM     13  N   UNL     1       1.071   0.741   2.595  0.00  0.00    -0.032 NA
ATOM     14  N   UNL     1       1.328  -2.303   0.723  0.00  0.00    -0.338 N 
ATOM     15  H   UNL     1       0.739   0.076  -0.691  0.00  0.00    +0.148 HD
ATOM     16  H   UNL     1       1.541  -3.343   1.011  0.00  0.00    +0.144 HD
ATOM     17  H   UNL     1       1.145  -2.051  -0.333  0.00  0.00    +0.144 HD
ENDBRANCH   3   8
BRANCH   1  24
ATOM     18  C   UNL     1      -3.399   4.804  -0.760  0.00  0.00    +0.044 C 
ATOM     19  C   UNL     1      -2.878   4.605  -2.160  0.00  0.00    -0.047 A 
ATOM     20  C   UNL     1      -3.701   4.847  -3.244  0.00  0.00    +0.003 A 
ATOM     21  C   UNL     1      -3.223   4.666  -4.528  0.00  0.00    +0.000 A 
ATOM     22  C   UNL     1      -1.923   4.242  -4.729  0.00  0.00    +0.000 A 
ATOM     23  C   UNL     1      -1.099   4.004  -3.645  0.00  0.00    +0.004 A 
ATOM     24  C   UNL     1      -1.578   4.181  -2.360  0.00  0.00    -0.041 A 
ENDBRANCH   1  24
TORSDOF 2
