REMARK  Name = ZINC15222196
REMARK  8 active torsions:
REMARK  status: ('A' for Active; 'I' for Inactive)
REMARK    1  A    between atoms: C_1  and  C_2
REMARK    2  A    between atoms: C_8  and  C_16
REMARK    3  A    between atoms: C_16  and  O_18
REMARK    4  A    between atoms: O_18  and  C_19
REMARK    5  A    between atoms: C_19  and  C_20
REMARK    6  A    between atoms: N_22  and  C_23
REMARK    7  A    between atoms: C_23  and  C_25
REMARK    8  A    between atoms: C_23  and  C_26
REMARK                            x       y       z     vdW  Elec       q    Type
REMARK                         _______ _______ _______ _____ _____    ______ ____
ROOT
ATOM      1  C   UNL     1      -2.494   3.475  -2.960  0.00  0.00    +0.341 C 
ATOM      2  O   UNL     1      -2.260   3.026  -4.064  0.00  0.00    -0.245 OA
ENDROOT
BRANCH   1   9
ATOM      3  C   UNL     1       0.002  -0.004   0.002  0.00  0.00    +0.008 C 
ATOM      4  C   UNL     1      -0.019   1.526   0.010  0.00  0.00    -0.009 C 
ATOM      5  C   UNL     1       1.418   2.062  -0.000  0.00  0.00    +0.010 C 
ATOM      6  C   UNL     1       1.375   3.566   0.259  0.00  0.00    +0.056 C 
ATOM      7  C   UNL     1       0.408   4.240  -0.683  0.00  0.00    +0.046 A 
ATOM      8  C   UNL     1      -0.570   3.529  -1.368  0.00  0.00    -0.011 A 
ATOM      9  C   UNL     1      -1.442   4.204  -2.221  0.00  0.00    +0.073 A 
ATOM     10  C   UNL     1      -1.295   5.605  -2.360  0.00  0.00    +0.015 A 
ATOM     11  C   UNL     1      -2.133   6.353  -3.196  0.00  0.00    +0.011 A 
ATOM     12  C   UNL     1      -1.953   7.700  -3.300  0.00  0.00    +0.001 A 
ATOM     13  C   UNL     1      -0.946   8.343  -2.584  0.00  0.00    +0.002 A 
ATOM     14  C   UNL     1      -0.115   7.647  -1.762  0.00  0.00    +0.028 A 
ATOM     15  C   UNL     1      -0.269   6.255  -1.629  0.00  0.00    +0.072 A 
ATOM     16  N   UNL     1       0.527   5.545  -0.831  0.00  0.00    -0.251 NA
ATOM     17  C   UNL     1      -0.732   2.038  -1.239  0.00  0.00    +0.041 C 
ENDBRANCH   1   9
BRANCH   1  18
ATOM     18  O   UNL     1      -3.712   3.309  -2.409  0.00  0.00    -0.452 OA
BRANCH  18  19
ATOM     19  C   UNL     1      -4.696   2.583  -3.193  0.00  0.00    +0.328 C 
BRANCH  19  20
ATOM     20  C   UNL     1      -5.988   2.497  -2.421  0.00  0.00    +0.251 C 
ATOM     21  O   UNL     1      -6.071   2.998  -1.320  0.00  0.00    -0.272 OA
ATOM     22  N   UNL     1      -7.051   1.863  -2.955  0.00  0.00    -0.306 N 
ATOM     23  H   UNL     1      -6.984   1.463  -3.836  0.00  0.00    +0.149 HD
BRANCH  22  24
ATOM     24  C   UNL     1      -8.307   1.780  -2.206  0.00  0.00    +0.100 C 
ATOM     25  C   UNL     1      -9.128   3.048  -2.444  0.00  0.00    +0.033 C 
BRANCH  24  26
ATOM     26  C   UNL     1      -9.090   0.579  -2.670  0.00  0.00    -0.027 A 
ATOM     27  C   UNL     1      -9.136   0.262  -4.015  0.00  0.00    +0.005 A 
ATOM     28  C   UNL     1      -9.851  -0.842  -4.440  0.00  0.00    +0.000 A 
ATOM     29  C   UNL     1     -10.528  -1.623  -3.522  0.00  0.00    +0.000 A 
ATOM     30  C   UNL     1     -10.486  -1.303  -2.178  0.00  0.00    +0.000 A 
ATOM     31  C   UNL     1      -9.767  -0.202  -1.752  0.00  0.00    +0.005 A 
ENDBRANCH  24  26
ENDBRANCH  22  24
ENDBRANCH  19  20
ENDBRANCH  18  19
ENDBRANCH   1  18
TORSDOF 6
