REMARK  Name = ZINC16430014
REMARK  16 active torsions:
REMARK  status: ('A' for Active; 'I' for Inactive)
REMARK    1  A    between atoms: C_1  and  C_2
REMARK    2  A    between atoms: C_2  and  C_3
REMARK    3  A    between atoms: C_6  and  N_9
REMARK    4  A    between atoms: N_15  and  C_18
REMARK    5  A    between atoms: C_18  and  C_19
REMARK    6  A    between atoms: C_19  and  N_20
REMARK    7  A    between atoms: N_20  and  C_21
REMARK    8  A    between atoms: C_21  and  C_22
REMARK    9  A    between atoms: C_23  and  C_24
REMARK   10  A    between atoms: C_29  and  O_30
REMARK   11  A    between atoms: O_30  and  C_31
REMARK   12  A    between atoms: C_32  and  C_34
REMARK   13  A    between atoms: C_34  and  C_35
REMARK   14  A    between atoms: C_35  and  C_36
REMARK   15  A    between atoms: C_35  and  C_37
REMARK   16  A    between atoms: C_35  and  C_38
REMARK                            x       y       z     vdW  Elec       q    Type
REMARK                         _______ _______ _______ _____ _____    ______ ____
ROOT
ATOM      1  C   UNL     1     -12.236  -2.260  -2.252  0.00  0.00    +0.123 C 
ENDROOT
BRANCH   1   2
ATOM      2  N   UNL     1     -13.564  -1.643  -2.282  0.00  0.00    -0.296 N 
ATOM      3  C   UNL     1     -14.565  -2.160  -1.542  0.00  0.00    +0.216 C 
ATOM      4  O   UNL     1     -15.664  -1.649  -1.567  0.00  0.00    -0.276 OA
BRANCH   2   5
ATOM      5  C   UNL     1     -13.806  -0.463  -3.118  0.00  0.00    +0.135 C 
BRANCH   5   6
ATOM      6  C   UNL     1     -14.255  -0.901  -4.488  0.00  0.00    -0.007 C 
ATOM      7  C   UNL     1     -15.394  -0.444  -4.989  0.00  0.00    +0.009 C 
BRANCH   7   8
ATOM      8  C   UNL     1     -15.835  -0.873  -6.333  0.00  0.00    +0.016 A 
ATOM      9  C   UNL     1     -15.059  -1.765  -7.074  0.00  0.00    +0.011 A 
ATOM     10  C   UNL     1     -15.475  -2.163  -8.327  0.00  0.00    +0.001 A 
ATOM     11  C   UNL     1     -16.662  -1.681  -8.853  0.00  0.00    +0.004 A 
ATOM     12  C   UNL     1     -17.439  -0.797  -8.128  0.00  0.00    +0.046 A 
ATOM     13  C   UNL     1     -17.037  -0.392  -6.866  0.00  0.00    +0.127 A 
BRANCH  13  14
ATOM     14  O   UNL     1     -17.802   0.472  -6.151  0.00  0.00    -0.495 OA
ATOM     15  C   UNL     1     -19.015   0.920  -6.759  0.00  0.00    +0.277 C 
ENDBRANCH  13  14
ENDBRANCH   7   8
ENDBRANCH   5   6
ENDBRANCH   2   5
BRANCH   3  16
ATOM     16  C   UNL     1     -14.316  -3.373  -0.683  0.00  0.00    +0.102 C 
BRANCH  16  17
ATOM     17  C   UNL     1     -15.605  -3.752   0.049  0.00  0.00    -0.029 C 
ATOM     18  C   UNL     1     -16.699  -4.067  -0.975  0.00  0.00    +0.011 C 
ATOM     19  C   UNL     1     -15.354  -4.984   0.921  0.00  0.00    +0.011 C 
ATOM     20  C   UNL     1     -16.054  -2.586   0.931  0.00  0.00    +0.011 C 
ENDBRANCH  16  17
ENDBRANCH   3  16
ENDBRANCH   1   2
BRANCH   1  21
ATOM     21  C   UNL     1     -11.401  -1.619  -1.142  0.00  0.00    +0.103 C 
BRANCH  21  28
ATOM     22  N   UNL     1      -5.303  -2.028   0.038  0.00  0.00    -0.269 N 
ATOM     23  C   UNL     1      -5.997  -2.105  -1.115  0.00  0.00    +0.307 C 
ATOM     24  O   UNL     1      -5.454  -1.841  -2.170  0.00  0.00    -0.252 OA
ATOM     25  N   UNL     1      -7.293  -2.475  -1.099  0.00  0.00    -0.283 N 
ATOM     26  C   UNL     1      -8.019  -2.623   0.172  0.00  0.00    +0.124 C 
ATOM     27  C   UNL     1      -9.322  -1.822   0.083  0.00  0.00    +0.103 C 
ATOM     28  N   UNL     1     -10.069  -2.238  -1.112  0.00  0.00    -0.298 NA
ATOM     29  C   UNL     1      -9.321  -1.936  -2.339  0.00  0.00    +0.103 C 
ATOM     30  C   UNL     1      -8.019  -2.736  -2.350  0.00  0.00    +0.124 C 
ATOM     31  H   UNL     1      -5.693  -2.360   0.861  0.00  0.00    +0.156 HD
BRANCH  22  35
ATOM     32  C   UNL     1      -1.485  -0.360   0.065  0.00  0.00    -0.048 A 
ATOM     33  C   UNL     1      -2.228  -0.403   1.230  0.00  0.00    +0.005 A 
ATOM     34  C   UNL     1      -3.494  -0.955   1.225  0.00  0.00    +0.023 A 
ATOM     35  C   UNL     1      -4.021  -1.467   0.047  0.00  0.00    +0.035 A 
ATOM     36  C   UNL     1      -3.273  -1.423  -1.122  0.00  0.00    +0.023 A 
ATOM     37  C   UNL     1      -2.010  -0.865  -1.111  0.00  0.00    +0.005 A 
BRANCH  32  39
ATOM     38  C   UNL     1      -0.199   1.740  -0.227  0.00  0.00    +0.009 C 
ATOM     39  C   UNL     1      -0.104   0.243   0.074  0.00  0.00    +0.032 C 
ENDBRANCH  32  39
ENDBRANCH  22  35
ENDBRANCH  21  28
ENDBRANCH   1  21
TORSDOF 11
