REMARK  Name = ZINC38984096
REMARK  7 active torsions:
REMARK  status: ('A' for Active; 'I' for Inactive)
REMARK    1  A    between atoms: N_7  and  S_8
REMARK    2  A    between atoms: S_8  and  C_11
REMARK    3  A    between atoms: C_18  and  N_23
REMARK    4  A    between atoms: N_23  and  C_24
REMARK    5  A    between atoms: C_27  and  C_30
REMARK    6  A    between atoms: N_32  and  C_33
REMARK    7  A    between atoms: C_33  and  C_34
REMARK                            x       y       z     vdW  Elec       q    Type
REMARK                         _______ _______ _______ _____ _____    ______ ____
ROOT
ATOM      1  C   UNL     1       0.575   1.429  -0.707  0.00  0.00    +0.002 A 
ATOM      2  C   UNL     1       1.794   2.107  -0.545  0.00  0.00    +0.002 A 
ATOM      3  C   UNL     1       2.961   1.467  -0.316  0.00  0.00    +0.030 A 
ATOM      4  C   UNL     1       2.998   0.052  -0.228  0.00  0.00    +0.089 A 
ATOM      5  N   UNL     1       4.138  -0.567  -0.004  0.00  0.00    -0.226 NA
ATOM      6  C   UNL     1       4.208  -1.904   0.085  0.00  0.00    +0.192 C 
ATOM      7  N   UNL     1       5.346  -2.493   0.307  0.00  0.00    -0.110 NA
ATOM      8  C   UNL     1       2.943  -2.717  -0.078  0.00  0.00    +0.237 C 
ATOM      9  N   UNL     1       1.687  -1.992  -0.327  0.00  0.00    -0.359 N 
ATOM     10  C   UNL     1       1.724  -0.690  -0.396  0.00  0.00    +0.063 A 
ATOM     11  C   UNL     1       0.497   0.082  -0.642  0.00  0.00    +0.027 A 
ATOM     12  H   UNL     1       0.851  -2.471  -0.438  0.00  0.00    +0.162 HD
ENDROOT
BRANCH   7  13
ATOM     13  S   UNL     1       6.723  -1.591   0.483  0.00  0.00    +0.100 S 
ATOM     14  O   UNL     1       6.972  -0.979  -0.775  0.00  0.00    -0.146 OA
ATOM     15  O   UNL     1       6.566  -0.838   1.678  0.00  0.00    -0.146 OA
BRANCH  13  16
ATOM     16  C   UNL     1       8.050  -2.715   0.768  0.00  0.00    +0.113 A 
ATOM     17  C   UNL     1       8.370  -3.093   2.059  0.00  0.00    +0.030 A 
ATOM     18  C   UNL     1       9.411  -3.975   2.283  0.00  0.00    +0.022 A 
ATOM     19  C   UNL     1      10.131  -4.480   1.215  0.00  0.00    +0.041 A 
ATOM     20  C   UNL     1       9.809  -4.102  -0.077  0.00  0.00    +0.022 A 
ATOM     21  C   UNL     1       8.765  -3.224  -0.300  0.00  0.00    +0.030 A 
ATOM     22 CL   UNL     1      11.438  -5.588   1.495  0.00  0.00    -0.084 Cl
ENDBRANCH  13  16
ENDBRANCH   7  13
BRANCH   8  23
ATOM     23  N   UNL     1       2.764  -3.514   1.139  0.00  0.00    -0.318 N 
ATOM     24  H   UNL     1       2.908  -3.109   2.009  0.00  0.00    +0.148 HD
BRANCH  23  25
ATOM     25  C   UNL     1       2.389  -4.849   1.046  0.00  0.00    +0.029 A 
ATOM     26  C   UNL     1       2.367  -5.645   2.188  0.00  0.00    +0.024 A 
ATOM     27  C   UNL     1       1.996  -6.968   2.100  0.00  0.00    +0.015 A 
ATOM     28  C   UNL     1       1.641  -7.511   0.862  0.00  0.00    +0.037 A 
ATOM     29  C   UNL     1       1.664  -6.709  -0.283  0.00  0.00    +0.015 A 
ATOM     30  C   UNL     1       2.030  -5.386  -0.187  0.00  0.00    +0.024 A 
BRANCH  28  31
ATOM     31  C   UNL     1       1.243  -8.928   0.764  0.00  0.00    +0.245 C 
ATOM     32  O   UNL     1       1.224  -9.625   1.760  0.00  0.00    -0.270 OA
ATOM     33  N   UNL     1       0.901  -9.451  -0.430  0.00  0.00    -0.301 N 
ATOM     34  H   UNL     1       0.916  -8.896  -1.225  0.00  0.00    +0.150 HD
BRANCH  33  35
ATOM     35  C   UNL     1       0.506 -10.858  -0.528  0.00  0.00    +0.229 C 
BRANCH  35  36
ATOM     36  C   UNL     1       0.175 -11.189  -1.960  0.00  0.00    +0.373 C 
ATOM     37  O   UNL     1       0.262 -10.329  -2.820  0.00  0.00    -0.245 OA
ATOM     38  O   UNL     1      -0.178 -12.317  -2.259  0.00  0.00    -0.245 OA
ENDBRANCH  35  36
ENDBRANCH  33  35
ENDBRANCH  28  31
ENDBRANCH  23  25
ENDBRANCH   8  23
TORSDOF 7
