REMARK  Name = ZINC35841175
REMARK  12 active torsions:
REMARK  status: ('A' for Active; 'I' for Inactive)
REMARK    1  A    between atoms: C_1  and  O_2
REMARK    2  A    between atoms: O_2  and  C_3
REMARK    3  A    between atoms: C_3  and  C_5
REMARK    4  A    between atoms: C_10  and  C_11
REMARK    5  A    between atoms: C_11  and  N_12
REMARK    6  A    between atoms: N_12  and  C_13
REMARK    7  A    between atoms: N_12  and  C_20
REMARK    8  A    between atoms: C_13  and  C_14
REMARK    9  A    between atoms: C_20  and  C_21
REMARK   10  A    between atoms: N_25  and  C_26
REMARK   11  A    between atoms: C_26  and  C_27
REMARK   12  A    between atoms: C_31  and  C_33
REMARK                            x       y       z     vdW  Elec       q    Type
REMARK                         _______ _______ _______ _____ _____    ______ ____
ROOT
ATOM      1  N   UNL     1       2.183   1.869  -2.676  0.00  0.00    +0.389 N 
ATOM      2  H   UNL     1       1.897   1.017  -2.217  0.00  0.00    -0.080 HD
ENDROOT
BRANCH   1   3
ATOM      3  C   UNL     1       1.268   2.956  -2.304  0.00  0.00    -0.041 C 
BRANCH   3   9
ATOM      4  C   UNL     1      -0.920   3.137  -1.076  0.00  0.00    +0.060 A 
ATOM      5  C   UNL     1      -2.139   2.592  -0.668  0.00  0.00    +0.015 A 
ATOM      6  C   UNL     1      -2.470   1.303  -1.030  0.00  0.00    +0.001 A 
ATOM      7  C   UNL     1      -1.598   0.550  -1.797  0.00  0.00    +0.000 A 
ATOM      8  C   UNL     1      -0.388   1.084  -2.204  0.00  0.00    +0.002 A 
ATOM      9  C   UNL     1      -0.047   2.374  -1.854  0.00  0.00    -0.050 A 
BRANCH   4  10
ATOM     10  C   UNL     1      -0.559   4.517  -0.692  0.00  0.00    +0.339 C 
ATOM     11  O   UNL     1       0.272   5.128  -1.333  0.00  0.00    -0.245 OA
BRANCH  10  13
ATOM     12  C   UNL     1      -0.753   6.433   0.684  0.00  0.00    +0.280 C 
ATOM     13  O   UNL     1      -1.151   5.097   0.369  0.00  0.00    -0.464 OA
ENDBRANCH  10  13
ENDBRANCH   4  10
ENDBRANCH   3   9
ENDBRANCH   1   3
BRANCH   1  14
ATOM     14  C   UNL     1       2.150   1.677  -4.132  0.00  0.00    -0.042 C 
BRANCH  14  15
ATOM     15  C   UNL     1       2.651   0.296  -4.468  0.00  0.00    -0.064 A 
ATOM     16  C   UNL     1       3.685   0.136  -5.371  0.00  0.00    +0.002 A 
ATOM     17  C   UNL     1       4.145  -1.131  -5.679  0.00  0.00    +0.000 A 
ATOM     18  C   UNL     1       3.570  -2.238  -5.084  0.00  0.00    +0.000 A 
ATOM     19  C   UNL     1       2.536  -2.079  -4.181  0.00  0.00    +0.000 A 
ATOM     20  C   UNL     1       2.079  -0.811  -3.869  0.00  0.00    +0.002 A 
ENDBRANCH  14  15
ENDBRANCH   1  14
BRANCH   1  21
ATOM     21  C   UNL     1       3.549   2.214  -2.259  0.00  0.00    -0.024 C 
BRANCH  21  22
ATOM     22  C   UNL     1       4.490   1.105  -2.652  0.00  0.00    +0.003 A 
ATOM     23  C   UNL     1       5.207   1.044  -3.792  0.00  0.00    +0.021 A 
ATOM     24  C   UNL     1       5.950  -0.152  -3.760  0.00  0.00    +0.019 A 
ATOM     25  C   UNL     1       5.659  -0.777  -2.601  0.00  0.00    +0.086 A 
ATOM     26  N   UNL     1       4.768  -0.007  -1.914  0.00  0.00    -0.348 N 
BRANCH  26  27
ATOM     27  C   UNL     1       4.199  -0.325  -0.602  0.00  0.00    +0.156 C 
BRANCH  27  28
ATOM     28  C   UNL     1       4.607  -1.719  -0.202  0.00  0.00    -0.027 A 
ATOM     29  C   UNL     1       3.964  -2.812  -0.753  0.00  0.00    +0.005 A 
ATOM     30  C   UNL     1       4.338  -4.091  -0.386  0.00  0.00    +0.001 A 
ATOM     31  C   UNL     1       5.355  -4.278   0.532  0.00  0.00    +0.012 A 
ATOM     32  C   UNL     1       5.998  -3.185   1.082  0.00  0.00    +0.055 A 
ATOM     33  C   UNL     1       5.627  -1.905   0.712  0.00  0.00    +0.017 A 
BRANCH  32  34
ATOM     34  C   UNL     1       7.106  -3.388   2.083  0.00  0.00    +0.417 C 
ATOM     35  F   UNL     1       7.301  -4.757   2.292  0.00  0.00    -0.166 F 
ATOM     36  F   UNL     1       8.287  -2.818   1.594  0.00  0.00    -0.166 F 
ATOM     37  F   UNL     1       6.760  -2.776   3.293  0.00  0.00    -0.166 F 
ENDBRANCH  32  34
ENDBRANCH  27  28
ENDBRANCH  26  27
ENDBRANCH  21  22
ENDBRANCH   1  21
TORSDOF 11
