REMARK  Name = ZINC63697923
REMARK  11 active torsions:
REMARK  status: ('A' for Active; 'I' for Inactive)
REMARK    1  A    between atoms: C_1  and  C_2
REMARK    2  A    between atoms: C_2  and  O_3
REMARK    3  A    between atoms: O_3  and  C_4
REMARK    4  A    between atoms: C_7  and  C_10
REMARK    5  A    between atoms: C_25  and  C_27
REMARK    6  A    between atoms: C_29  and  O_37
REMARK    7  A    between atoms: C_30  and  O_35
REMARK    8  A    between atoms: C_31  and  O_33
REMARK    9  A    between atoms: O_33  and  C_34
REMARK   10  A    between atoms: O_35  and  C_36
REMARK   11  A    between atoms: O_37  and  C_38
REMARK                            x       y       z     vdW  Elec       q    Type
REMARK                         _______ _______ _______ _____ _____    ______ ____
ROOT
ATOM      1  C   UNL     1      -1.990  -6.423  -0.174  0.00  0.00    +0.133 C 
ATOM      2  C   UNL     1      -2.152  -7.267  -1.442  0.00  0.00    +0.131 C 
ATOM      3  C   UNL     1      -3.618  -7.171  -1.845  0.00  0.00    -0.035 C 
ATOM      4  C   UNL     1      -3.635  -6.723  -3.095  0.00  0.00    -0.001 A 
ATOM      5  C   UNL     1      -4.741  -6.494  -4.038  0.00  0.00    +0.010 A 
ATOM      6  C   UNL     1      -4.396  -6.009  -5.260  0.00  0.00    +0.001 A 
ATOM      7  C   UNL     1      -3.076  -5.733  -5.634  0.00  0.00    +0.002 A 
ATOM      8  C   UNL     1      -1.998  -5.919  -4.832  0.00  0.00    +0.026 A 
ATOM      9  C   UNL     1      -2.233  -6.429  -3.523  0.00  0.00    +0.043 A 
ATOM     10  N   UNL     1      -1.377  -6.725  -2.560  0.00  0.00    -0.375 N 
ATOM     11  C   UNL     1      -4.743  -7.476  -0.887  0.00  0.00    +0.052 C 
ATOM     12  C   UNL     1      -4.467  -6.665   0.392  0.00  0.00    +0.113 C 
ATOM     13  N   UNL     1      -3.055  -6.809   0.765  0.00  0.00    -0.288 N 
ATOM     14  C   UNL     1      -2.730  -7.299   1.978  0.00  0.00    +0.247 C 
ATOM     15  O   UNL     1      -1.565  -7.350   2.321  0.00  0.00    -0.270 OA
ATOM     16  H   UNL     1      -0.415  -6.604  -2.577  0.00  0.00    +0.160 HD
ENDROOT
BRANCH   1  20
ATOM     17  C   UNL     1      -2.349  -2.276  -1.142  0.00  0.00    +0.121 A 
ATOM     18  C   UNL     1      -3.410  -3.138  -1.375  0.00  0.00    +0.046 A 
ATOM     19  C   UNL     1      -3.292  -4.478  -1.062  0.00  0.00    +0.009 A 
ATOM     20  C   UNL     1      -2.117  -4.960  -0.515  0.00  0.00    -0.025 A 
ATOM     21  C   UNL     1      -1.058  -4.103  -0.281  0.00  0.00    +0.009 A 
ATOM     22  C   UNL     1      -1.169  -2.763  -0.599  0.00  0.00    +0.046 A 
BRANCH  17  23
ATOM     23  O   UNL     1      -2.463  -0.957  -1.450  0.00  0.00    -0.492 OA
BRANCH  23  25
ATOM     24  C   UNL     1      -3.647   0.977  -2.285  0.00  0.00    +0.048 C 
ATOM     25  C   UNL     1      -3.707  -0.526  -2.006  0.00  0.00    +0.225 C 
ENDBRANCH  23  25
ENDBRANCH  17  23
ENDBRANCH   1  20
BRANCH  14  26
ATOM     26  C   UNL     1      -3.789  -7.776   2.889  0.00  0.00    +0.044 A 
ATOM     27  C   UNL     1      -3.623  -8.973   3.590  0.00  0.00    +0.062 A 
ATOM     28  C   UNL     1      -4.615  -9.417   4.443  0.00  0.00    +0.166 A 
ATOM     29  C   UNL     1      -5.781  -8.672   4.604  0.00  0.00    +0.204 A 
ATOM     30  C   UNL     1      -5.949  -7.479   3.907  0.00  0.00    +0.166 A 
ATOM     31  C   UNL     1      -4.957  -7.028   3.057  0.00  0.00    +0.062 A 
BRANCH  30  32
ATOM     32  O   UNL     1      -7.089  -6.754   4.066  0.00  0.00    -0.491 OA
ATOM     33  C   UNL     1      -7.195  -5.540   3.320  0.00  0.00    +0.277 C 
ENDBRANCH  30  32
BRANCH  29  34
ATOM     34  O   UNL     1      -6.755  -9.111   5.443  0.00  0.00    -0.488 OA
ATOM     35  C   UNL     1      -6.681  -8.683   6.805  0.00  0.00    +0.277 C 
ENDBRANCH  29  34
BRANCH  28  36
ATOM     36  O   UNL     1      -4.454 -10.582   5.125  0.00  0.00    -0.491 OA
ATOM     37  C   UNL     1      -3.234 -11.296   4.912  0.00  0.00    +0.277 C 
ENDBRANCH  28  36
ENDBRANCH  14  26
TORSDOF 7
