REMARK  Name = ZINC20617442
REMARK  10 active torsions:
REMARK  status: ('A' for Active; 'I' for Inactive)
REMARK    1  A    between atoms: C_1  and  C_2
REMARK    2  A    between atoms: C_6  and  C_18
REMARK    3  A    between atoms: N_8  and  C_9
REMARK    4  A    between atoms: C_13  and  S_15
REMARK    5  A    between atoms: S_15  and  C_16
REMARK    6  A    between atoms: N_20  and  C_21
REMARK    7  A    between atoms: C_28  and  C_31
REMARK    8  A    between atoms: C_31  and  O_32
REMARK    9  A    between atoms: O_32  and  C_33
REMARK   10  A    between atoms: C_33  and  C_35
REMARK                            x       y       z     vdW  Elec       q    Type
REMARK                         _______ _______ _______ _____ _____    ______ ____
ROOT
ATOM      1  C   UNL     1       1.124   1.210   0.232  0.00  0.00    +0.069 C 
ATOM      2  C   UNL     1       0.377  -0.091   0.083  0.00  0.00    +0.081 A 
ATOM      3  C   UNL     1       0.095  -0.584  -1.183  0.00  0.00    +0.159 A 
ATOM      4  C   UNL     1      -0.601  -1.802  -1.296  0.00  0.00    +0.028 A 
ATOM      5  C   UNL     1      -0.904  -2.342  -2.623  0.00  0.00    +0.030 A 
ATOM      6  C   UNL     1      -0.262  -1.770  -3.700  0.00  0.00    +0.098 A 
ATOM      7  C   UNL     1       0.676  -0.664  -3.418  0.00  0.00    +0.212 A 
ATOM      8  N   UNL     1       1.680  -0.408  -4.228  0.00  0.00    -0.325 N 
ATOM      9  O   UNL     1       0.473   0.080  -2.301  0.00  0.00    -0.437 OA
ATOM     10  C   UNL     1      -0.985  -2.466  -0.125  0.00  0.00    +0.018 A 
ATOM     11  C   UNL     1      -0.661  -1.897   1.089  0.00  0.00    +0.118 A 
ATOM     12  N   UNL     1       0.001  -0.756   1.156  0.00  0.00    -0.256 NA
ATOM     13  H   UNL     1       1.869  -1.004  -4.969  0.00  0.00    +0.169 HD
ENDROOT
BRANCH   8  14
ATOM     14  C   UNL     1       2.456   0.699  -4.024  0.00  0.00    +0.043 A 
ATOM     15  C   UNL     1       1.861   1.930  -3.734  0.00  0.00    +0.026 A 
ATOM     16  C   UNL     1       2.647   3.046  -3.528  0.00  0.00    +0.003 A 
ATOM     17  C   UNL     1       4.024   2.951  -3.609  0.00  0.00    +0.015 A 
ATOM     18  C   UNL     1       4.627   1.732  -3.898  0.00  0.00    +0.010 A 
ATOM     19  C   UNL     1       3.846   0.603  -4.100  0.00  0.00    +0.040 A 
BRANCH  18  20
ATOM     20  S   UNL     1       6.382   1.619  -4.000  0.00  0.00    -0.129 S 
ATOM     21  C   UNL     1       6.950   3.309  -3.662  0.00  0.00    +0.090 C 
ENDBRANCH  18  20
ENDBRANCH   8  14
BRANCH   6  22
ATOM     22  C   UNL     1      -0.500  -2.243  -5.075  0.00  0.00    +0.253 C 
ATOM     23  O   UNL     1      -1.173  -3.237  -5.269  0.00  0.00    -0.270 OA
ATOM     24  N   UNL     1       0.027  -1.572  -6.119  0.00  0.00    -0.280 N 
ATOM     25  H   UNL     1       0.608  -0.811  -5.963  0.00  0.00    +0.155 HD
BRANCH  24  26
ATOM     26  C   UNL     1      -0.264  -1.974  -7.427  0.00  0.00    +0.052 A 
ATOM     27  C   UNL     1      -0.584  -3.299  -7.694  0.00  0.00    +0.025 A 
ATOM     28  C   UNL     1      -0.871  -3.692  -8.986  0.00  0.00    +0.002 A 
ATOM     29  C   UNL     1      -0.841  -2.768 -10.015  0.00  0.00    +0.002 A 
ATOM     30  C   UNL     1      -0.522  -1.448  -9.754  0.00  0.00    +0.022 A 
ATOM     31  C   UNL     1      -0.239  -1.047  -8.462  0.00  0.00    +0.062 A 
ATOM     32 CL   UNL     1       0.153   0.612  -8.134  0.00  0.00    -0.082 Cl
ENDBRANCH  24  26
ENDBRANCH   6  22
BRANCH  10  33
ATOM     33  C   UNL     1      -1.735  -3.771  -0.189  0.00  0.00    +0.269 C 
BRANCH  33  34
ATOM     34  O   UNL     1      -2.003  -4.233   1.136  0.00  0.00    -0.460 OA
BRANCH  34  35
ATOM     35  C   UNL     1      -2.669  -5.392   1.255  0.00  0.00    +0.304 C 
ATOM     36  O   UNL     1      -3.013  -5.995   0.267  0.00  0.00    -0.251 OA
ATOM     37  C   UNL     1      -2.987  -5.941   2.622  0.00  0.00    +0.136 C 
ENDBRANCH  34  35
ENDBRANCH  33  34
ENDBRANCH  10  33
TORSDOF 7
