REMARK  Name = ZINC36309233
REMARK  19 active torsions:
REMARK  status: ('A' for Active; 'I' for Inactive)
REMARK    1  A    between atoms: C_1  and  C_2
REMARK    2  A    between atoms: C_2  and  C_3
REMARK    3  A    between atoms: C_3  and  N_4
REMARK    4  A    between atoms: N_4  and  C_5
REMARK    5  A    between atoms: N_4  and  C_14
REMARK    6  A    between atoms: C_5  and  C_6
REMARK    7  A    between atoms: C_6  and  C_8
REMARK    8  A    between atoms: C_6  and  O_13
REMARK    9  A    between atoms: C_8  and  O_9
REMARK   10  A    between atoms: O_9  and  C_10
REMARK   11  A    between atoms: C_10  and  C_11
REMARK   12  A    between atoms: C_10  and  C_12
REMARK   13  A    between atoms: C_14  and  C_15
REMARK   14  A    between atoms: C_25  and  C_27
REMARK   15  A    between atoms: C_27  and  O_28
REMARK   16  A    between atoms: O_28  and  C_29
REMARK   17  A    between atoms: C_32  and  C_35
REMARK   18  A    between atoms: C_35  and  C_36
REMARK   19  A    between atoms: C_35  and  C_37
REMARK                            x       y       z     vdW  Elec       q    Type
REMARK                         _______ _______ _______ _____ _____    ______ ____
ROOT
ATOM      1  C   UNL     1       2.930  -2.510  -1.844  0.00  0.00    +0.200 C 
ATOM      2  O   UNL     1       3.248  -1.855  -0.874  0.00  0.00    -0.278 OA
ATOM      3  N   UNL     1       3.880  -3.038  -2.640  0.00  0.00    -0.292 N 
ATOM      4  C   UNL     1       3.506  -3.829  -3.822  0.00  0.00    +0.113 C 
ATOM      5  C   UNL     1       3.981  -3.077  -5.076  0.00  0.00    +0.061 C 
ATOM      6  C   UNL     1       5.359  -2.555  -4.828  0.00  0.00    -0.004 A 
ATOM      7  C   UNL     1       5.999  -2.417  -3.635  0.00  0.00    -0.014 A 
ATOM      8  C   UNL     1       7.290  -1.893  -3.674  0.00  0.00    +0.013 A 
ATOM      9  C   UNL     1       7.847  -1.555  -4.860  0.00  0.00    +0.046 A 
ATOM     10  S   UNL     1       6.545  -1.971  -6.010  0.00  0.00    -0.101 S 
ATOM     11  C   UNL     1       5.303  -2.827  -2.343  0.00  0.00    +0.144 C 
ENDROOT
BRANCH   1  12
ATOM     12  C   UNL     1       1.473  -2.732  -2.158  0.00  0.00    +0.019 C 
BRANCH  12  13
ATOM     13  N   UNL     1       0.646  -2.059  -1.148  0.00  0.00    +0.387 N 
ATOM     14  H   UNL     1       0.912  -2.378  -0.229  0.00  0.00    -0.081 HD
BRANCH  13  15
ATOM     15  C   UNL     1       0.845  -0.607  -1.240  0.00  0.00    -0.078 C 
BRANCH  15  17
ATOM     16  C   UNL     1       0.649   1.387  -2.732  0.00  0.00    +0.002 C 
ATOM     17  C   UNL     1       0.383  -0.115  -2.613  0.00  0.00    -0.022 C 
ENDBRANCH  15  17
ENDBRANCH  13  15
BRANCH  13  18
ATOM     18  C   UNL     1      -0.769  -2.375  -1.385  0.00  0.00    -0.044 C 
BRANCH  18  19
ATOM     19  C   UNL     1      -1.620  -1.778  -0.262  0.00  0.00    +0.124 C 
BRANCH  19  20
ATOM     20  O   UNL     1      -1.215  -2.334   0.990  0.00  0.00    -0.391 OA
ATOM     21  H   UNL     1      -1.308  -3.295   1.042  0.00  0.00    +0.210 HD
ENDBRANCH  19  20
BRANCH  19  22
ATOM     22  C   UNL     1      -3.094  -2.102  -0.511  0.00  0.00    +0.189 C 
BRANCH  22  23
ATOM     23  O   UNL     1      -3.899  -1.448   0.471  0.00  0.00    -0.375 OA
BRANCH  23  24
ATOM     24  C   UNL     1      -5.301  -1.687   0.328  0.00  0.00    +0.112 C 
ATOM     25  C   UNL     1      -5.971  -1.629   1.702  0.00  0.00    +0.037 C 
ATOM     26  C   UNL     1      -5.910  -0.618  -0.581  0.00  0.00    +0.037 C 
ENDBRANCH  23  24
ENDBRANCH  22  23
ENDBRANCH  19  22
ENDBRANCH  18  19
ENDBRANCH  13  18
ENDBRANCH  12  13
ENDBRANCH   1  12
BRANCH  11  27
ATOM     27  C   UNL     1       5.920  -4.125  -1.817  0.00  0.00    +0.256 C 
BRANCH  27  28
ATOM     28  O   UNL     1       5.896  -5.116  -2.847  0.00  0.00    -0.490 OA
BRANCH  28  29
ATOM     29  C   UNL     1       6.410  -6.336  -2.541  0.00  0.00    +0.121 A 
ATOM     30  C   UNL     1       6.924  -6.576  -1.275  0.00  0.00    +0.046 A 
ATOM     31  C   UNL     1       7.446  -7.817  -0.967  0.00  0.00    +0.007 A 
ATOM     32  C   UNL     1       7.458  -8.819  -1.919  0.00  0.00    -0.045 A 
ATOM     33  C   UNL     1       6.947  -8.582  -3.182  0.00  0.00    +0.007 A 
ATOM     34  C   UNL     1       6.418  -7.345  -3.494  0.00  0.00    +0.046 A 
BRANCH  32  35
ATOM     35  C   UNL     1       8.029 -10.172  -1.581  0.00  0.00    +0.013 C 
ATOM     36  C   UNL     1       6.945 -11.240  -1.748  0.00  0.00    +0.012 C 
ATOM     37  C   UNL     1       9.198 -10.482  -2.518  0.00  0.00    +0.012 C 
ENDBRANCH  32  35
ENDBRANCH  28  29
ENDBRANCH  27  28
ENDBRANCH  11  27
TORSDOF 14
