REMARK  Name = ZINC64815434
REMARK  7 active torsions:
REMARK  status: ('A' for Active; 'I' for Inactive)
REMARK    1  A    between atoms: C_1  and  C_2
REMARK    2  A    between atoms: C_5  and  C_8
REMARK    3  A    between atoms: C_8  and  N_9
REMARK    4  A    between atoms: C_10  and  C_12
REMARK    5  A    between atoms: C_12  and  C_34
REMARK    6  A    between atoms: C_17  and  C_19
REMARK    7  A    between atoms: N_26  and  C_27
REMARK                            x       y       z     vdW  Elec       q    Type
REMARK                         _______ _______ _______ _____ _____    ______ ____
ROOT
ATOM      1  C   UNL     1       3.084  -6.749  -0.059  0.00  0.00    +0.135 C 
ATOM      2  C   UNL     1       3.060  -8.181  -0.592  0.00  0.00    +0.179 C 
ATOM      3  N   UNL     1       4.426  -8.592  -0.940  0.00  0.00    -0.256 N 
ATOM      4  C   UNL     1       5.361  -7.672  -1.365  0.00  0.00    +0.125 A 
ATOM      5  C   UNL     1       6.510  -8.357  -1.633  0.00  0.00    +0.063 A 
ATOM      6  C   UNL     1       6.209  -9.705  -1.335  0.00  0.00    +0.100 A 
ATOM      7  N   UNL     1       4.953  -9.754  -0.925  0.00  0.00    -0.170 NA
ATOM      8  C   UNL     1       5.042  -6.238  -1.451  0.00  0.00    +0.270 C 
ATOM      9  O   UNL     1       5.792  -5.445  -1.988  0.00  0.00    -0.268 OA
ATOM     10  N   UNL     1       3.866  -5.850  -0.901  0.00  0.00    -0.250 N 
ATOM     11  C   UNL     1       3.684  -6.757   1.348  0.00  0.00    +0.044 C 
ENDROOT
BRANCH  10  12
ATOM     12  C   UNL     1       3.392  -4.558  -1.145  0.00  0.00    +0.039 A 
ATOM     13  C   UNL     1       3.100  -4.156  -2.443  0.00  0.00    +0.023 A 
ATOM     14  C   UNL     1       2.632  -2.880  -2.681  0.00  0.00    +0.003 A 
ATOM     15  C   UNL     1       2.451  -2.000  -1.629  0.00  0.00    +0.020 A 
ATOM     16  C   UNL     1       2.740  -2.396  -0.335  0.00  0.00    +0.043 A 
ATOM     17  C   UNL     1       3.205  -3.674  -0.090  0.00  0.00    +0.043 A 
ATOM     18 CL   UNL     1       2.513  -1.288   0.982  0.00  0.00    -0.083 Cl
ENDBRANCH  10  12
BRANCH   6  19
ATOM     19  C   UNL     1       7.133 -10.854  -1.458  0.00  0.00    +0.039 A 
ATOM     20  C   UNL     1       6.904 -12.177  -1.192  0.00  0.00    +0.018 A 
ATOM     21  C   UNL     1       7.929 -13.079  -1.384  0.00  0.00    +0.008 A 
ATOM     22  C   UNL     1       9.130 -12.630  -1.829  0.00  0.00    +0.046 A 
ATOM     23  S   UNL     1       8.833 -10.877  -2.001  0.00  0.00    -0.095 S 
ENDBRANCH   6  19
BRANCH   1  25
ATOM     24  N   UNL     1       1.064  -5.757  -1.086  0.00  0.00    -0.309 N 
ATOM     25  C   UNL     1       1.669  -6.235   0.019  0.00  0.00    +0.239 C 
ATOM     26  O   UNL     1       1.075  -6.252   1.076  0.00  0.00    -0.273 OA
ATOM     27  H   UNL     1       1.511  -5.809  -1.946  0.00  0.00    +0.149 HD
BRANCH  24  28
ATOM     28  C   UNL     1      -0.270  -5.159  -0.990  0.00  0.00    +0.139 C 
BRANCH  28  33
ATOM     29  C   UNL     1      -2.212  -3.913  -6.288  0.00  0.00    +0.044 C 
ATOM     30  C   UNL     1      -1.705  -4.237  -4.907  0.00  0.00    -0.050 A 
ATOM     31  C   UNL     1      -1.867  -5.511  -4.393  0.00  0.00    +0.003 A 
ATOM     32  C   UNL     1      -1.403  -5.809  -3.126  0.00  0.00    +0.005 A 
ATOM     33  C   UNL     1      -0.775  -4.834  -2.372  0.00  0.00    -0.030 A 
ATOM     34  C   UNL     1      -0.612  -3.561  -2.887  0.00  0.00    +0.005 A 
ATOM     35  C   UNL     1      -1.073  -3.264  -4.156  0.00  0.00    +0.003 A 
ENDBRANCH  28  33
ENDBRANCH  24  28
ENDBRANCH   1  25
TORSDOF 5
