REMARK  Name = ZINC04645981
REMARK  11 active torsions:
REMARK  status: ('A' for Active; 'I' for Inactive)
REMARK    1  A    between atoms: C_1  and  C_2
REMARK    2  A    between atoms: C_2  and  C_4
REMARK    3  A    between atoms: C_2  and  N_60
REMARK    4  A    between atoms: C_10  and  C_11
REMARK    5  A    between atoms: C_10  and  N_60
REMARK    6  A    between atoms: N_13  and  C_14
REMARK    7  A    between atoms: C_15  and  C_22
REMARK    8  A    between atoms: N_24  and  C_25
REMARK    9  A    between atoms: C_30  and  C_31
REMARK   10  A    between atoms: C_31  and  O_33
REMARK   11  A    between atoms: O_33  and  C_34
REMARK                            x       y       z     vdW  Elec       q    Type
REMARK                         _______ _______ _______ _____ _____    ______ ____
ROOT
ATOM      1  C   UNL     1      -0.969   1.768  -3.604  0.00  0.00    +0.084 A 
ATOM      2  C   UNL     1      -0.652   1.538  -4.932  0.00  0.00    +0.069 A 
ATOM      3  C   UNL     1      -1.523   2.128  -5.948  0.00  0.00    -0.023 A 
ATOM      4  C   UNL     1      -2.555   2.845  -5.469  0.00  0.00    -0.004 A 
ATOM      5  S   UNL     1      -2.397   2.741  -3.703  0.00  0.00    -0.077 S 
ATOM      6  C   UNL     1      -3.402   3.421  -6.572  0.00  0.00    +0.043 C 
ATOM      7  C   UNL     1      -2.515   3.327  -7.833  0.00  0.00    +0.010 C 
ATOM      8  C   UNL     1      -1.585   2.151  -7.476  0.00  0.00    +0.037 C 
ENDROOT
BRANCH   1  11
ATOM      9  C   UNL     1      -0.769   1.650  -1.247  0.00  0.00    +0.201 C 
ATOM     10  O   UNL     1      -1.763   2.336  -1.139  0.00  0.00    -0.278 OA
ATOM     11  N   UNL     1      -0.308   1.321  -2.470  0.00  0.00    -0.281 N 
ATOM     12  H   UNL     1       0.487   0.773  -2.557  0.00  0.00    +0.155 HD
BRANCH   9  13
ATOM     13  C   UNL     1      -0.050   1.165  -0.015  0.00  0.00    +0.016 C 
BRANCH  13  14
ATOM     14  N   UNL     1      -0.754   1.661   1.182  0.00  0.00    +0.389 N 
ATOM     15  H   UNL     1      -0.766   2.688   1.167  0.00  0.00    -0.084 HD
ATOM     16  H   UNL     1      -1.718   1.307   1.179  0.00  0.00    -0.084 HD
BRANCH  14  18
ATOM     17  C   UNL     1       1.065   2.166   2.751  0.00  0.00    -0.009 C 
ATOM     18  C   UNL     1      -0.071   1.201   2.406  0.00  0.00    -0.043 C 
BRANCH  18  19
ATOM     19  C   UNL     1      -1.061   1.164   3.541  0.00  0.00    -0.062 A 
ATOM     20  C   UNL     1      -1.998   2.171   3.675  0.00  0.00    +0.002 A 
ATOM     21  C   UNL     1      -2.909   2.135   4.714  0.00  0.00    +0.000 A 
ATOM     22  C   UNL     1      -2.877   1.096   5.625  0.00  0.00    +0.000 A 
ATOM     23  C   UNL     1      -1.937   0.091   5.494  0.00  0.00    +0.000 A 
ATOM     24  C   UNL     1      -1.029   0.125   4.453  0.00  0.00    +0.002 A 
ENDBRANCH  18  19
ENDBRANCH  14  18
ENDBRANCH  13  14
ENDBRANCH   9  13
ENDBRANCH   1  11
BRANCH   2  25
ATOM     25  C   UNL     1       0.513   0.732  -5.306  0.00  0.00    +0.251 C 
ATOM     26  O   UNL     1       0.400  -0.471  -5.453  0.00  0.00    -0.270 OA
ATOM     27  N   UNL     1       1.711   1.323  -5.487  0.00  0.00    -0.281 N 
ATOM     28  H   UNL     1       1.789   2.288  -5.433  0.00  0.00    +0.155 HD
BRANCH  27  29
ATOM     29  C   UNL     1       2.837   0.547  -5.751  0.00  0.00    +0.048 A 
ATOM     30  C   UNL     1       2.726  -0.605  -6.518  0.00  0.00    +0.024 A 
ATOM     31  C   UNL     1       3.845  -1.369  -6.783  0.00  0.00    +0.002 A 
ATOM     32  C   UNL     1       5.082  -1.001  -6.278  0.00  0.00    +0.001 A 
ATOM     33  C   UNL     1       5.210   0.136  -5.511  0.00  0.00    +0.017 A 
ATOM     34  C   UNL     1       4.088   0.923  -5.238  0.00  0.00    +0.080 A 
BRANCH  34  35
ATOM     35  C   UNL     1       4.218   2.140  -4.417  0.00  0.00    +0.341 C 
ATOM     36  O   UNL     1       3.227   2.768  -4.101  0.00  0.00    -0.245 OA
BRANCH  35  37
ATOM     37  O   UNL     1       5.435   2.557  -4.018  0.00  0.00    -0.464 OA
ATOM     38  C   UNL     1       5.488   3.763  -3.212  0.00  0.00    +0.280 C 
ENDBRANCH  35  37
ENDBRANCH  34  35
ENDBRANCH  27  29
ENDBRANCH   2  25
TORSDOF 9
