REMARK  Name = ZINC42360736
REMARK  7 active torsions:
REMARK  status: ('A' for Active; 'I' for Inactive)
REMARK    1  A    between atoms: C_1  and  N_2
REMARK    2  A    between atoms: N_2  and  C_3
REMARK    3  A    between atoms: N_2  and  C_10
REMARK    4  A    between atoms: C_3  and  C_4
REMARK    5  A    between atoms: C_10  and  C_12
REMARK    6  A    between atoms: C_10  and  C_14
REMARK    7  A    between atoms: C_12  and  N_13
REMARK                            x       y       z     vdW  Elec       q    Type
REMARK                         _______ _______ _______ _____ _____    ______ ____
ROOT
ATOM      1  C   UNL     1       0.527  -0.615  -1.225  0.00  0.00    +0.076 C 
ENDROOT
BRANCH   1   2
ATOM      2  C   UNL     1       0.134   0.147  -2.464  0.00  0.00    +0.006 A 
ATOM      3  C   UNL     1       0.891   0.478  -3.538  0.00  0.00    +0.014 A 
ATOM      4  C   UNL     1       0.313   1.190  -4.573  0.00  0.00    +0.028 A 
ATOM      5  C   UNL     1      -0.995   1.536  -4.481  0.00  0.00    +0.078 A 
ATOM      6  S   UNL     1      -1.451   0.842  -2.901  0.00  0.00    -0.080 S 
ATOM      7 CL   UNL     1      -1.974   2.419  -5.611  0.00  0.00    -0.076 Cl
ENDBRANCH   1   2
BRANCH   1   9
ATOM      8  C   UNL     1       0.221   1.426   0.040  0.00  0.00    +0.105 C 
ATOM      9  N   UNL     1      -0.109  -0.003  -0.051  0.00  0.00    -0.296 NA
BRANCH   9  10
ATOM     10  C   UNL     1       0.268  -0.709   1.180  0.00  0.00    +0.120 C 
BRANCH  10  11
ATOM     11  C   UNL     1      -0.628  -0.267   2.308  0.00  0.00    -0.025 A 
ATOM     12  C   UNL     1      -0.282   0.816   3.096  0.00  0.00    +0.028 A 
ATOM     13  C   UNL     1      -1.111   1.187   4.103  0.00  0.00    +0.055 A 
ATOM     14  S   UNL     1      -2.429  -0.009   3.957  0.00  0.00    -0.090 S 
ATOM     15  C   UNL     1      -1.788  -0.920   2.561  0.00  0.00    +0.051 A 
ATOM     16 BR   UNL     1      -0.921   2.605   5.340  0.00  0.00    -0.043 Br
ENDBRANCH  10  11
ENDBRANCH   9  10
ENDBRANCH   1   9
BRANCH   1  17
ATOM     17  C   UNL     1       0.067  -2.069  -1.354  0.00  0.00    -0.062 C 
BRANCH  17  18
ATOM     18  N   UNL     1      -1.401  -2.118  -1.376  0.00  0.00    +0.379 N 
ATOM     19  H   UNL     1      -1.746  -1.528  -2.118  0.00  0.00    -0.090 HD
ATOM     20  H   UNL     1      -1.704  -3.067  -1.532  0.00  0.00    -0.090 HD
ATOM     21  H   UNL     1      -1.762  -1.791  -0.492  0.00  0.00    -0.090 HD
ENDBRANCH  17  18
ENDBRANCH   1  17
TORSDOF 6
