REMARK  Name = ZINC21936835
REMARK  13 active torsions:
REMARK  status: ('A' for Active; 'I' for Inactive)
REMARK    1  A    between atoms: C_1  and  C_2
REMARK    2  A    between atoms: C_2  and  C_3
REMARK    3  A    between atoms: C_3  and  C_5
REMARK    4  A    between atoms: C_3  and  S_17
REMARK    5  A    between atoms: N_7  and  C_8
REMARK    6  A    between atoms: C_11  and  C_14
REMARK    7  A    between atoms: C_14  and  C_15
REMARK    8  A    between atoms: C_14  and  C_16
REMARK    9  A    between atoms: S_17  and  C_18
REMARK   10  A    between atoms: C_28  and  C_33
REMARK   11  A    between atoms: C_33  and  C_34
REMARK   12  A    between atoms: C_34  and  C_35
REMARK   13  A    between atoms: C_34  and  C_36
REMARK                            x       y       z     vdW  Elec       q    Type
REMARK                         _______ _______ _______ _____ _____    ______ ____
ROOT
ATOM      1  C   UNL     1       2.573  -0.359   1.535  0.00  0.00    +0.170 C 
ATOM      2  N   UNL     1       3.586  -0.639   2.310  0.00  0.00    -0.225 NA
ATOM      3  C   UNL     1       3.421  -1.121   3.568  0.00  0.00    +0.077 A 
ATOM      4  C   UNL     1       4.518  -1.414   4.382  0.00  0.00    +0.028 A 
ATOM      5  C   UNL     1       4.313  -1.901   5.654  0.00  0.00    +0.002 A 
ATOM      6  C   UNL     1       3.028  -2.106   6.138  0.00  0.00    +0.001 A 
ATOM      7  C   UNL     1       1.931  -1.823   5.352  0.00  0.00    +0.013 A 
ATOM      8  C   UNL     1       2.118  -1.330   4.065  0.00  0.00    +0.041 A 
ATOM      9  C   UNL     1       0.972  -1.013   3.185  0.00  0.00    +0.139 C 
ATOM     10  N   UNL     1      -0.310  -1.115   3.398  0.00  0.00    -0.255 NA
ATOM     11  C   UNL     1      -1.005  -0.658   2.187  0.00  0.00    +0.194 C 
ATOM     12  C   UNL     1       0.116  -0.286   1.240  0.00  0.00    +0.251 C 
ATOM     13  O   UNL     1       0.011   0.143   0.111  0.00  0.00    -0.272 OA
ATOM     14  N   UNL     1       1.259  -0.527   1.921  0.00  0.00    -0.200 N 
ENDROOT
BRANCH   1  15
ATOM     15  S   UNL     1       2.901   0.262  -0.081  0.00  0.00    -0.077 S 
BRANCH  15  16
ATOM     16  C   UNL     1       4.702   0.421   0.002  0.00  0.00    +0.140 C 
BRANCH  16  17
ATOM     17  C   UNL     1       5.326  -0.950   0.033  0.00  0.00    +0.231 C 
ATOM     18  O   UNL     1       4.733  -1.898  -0.437  0.00  0.00    -0.274 OA
ATOM     19  N   UNL     1       6.544  -1.123   0.584  0.00  0.00    -0.285 N 
ATOM     20  H   UNL     1       7.045  -0.283   1.087  0.00  0.00    +0.155 HD
BRANCH  19  21
ATOM     21  C   UNL     1       7.171  -2.372   0.516  0.00  0.00    +0.033 A 
ATOM     22  C   UNL     1       7.973  -2.806   1.563  0.00  0.00    +0.023 A 
ATOM     23  C   UNL     1       8.588  -4.041   1.495  0.00  0.00    +0.006 A 
ATOM     24  C   UNL     1       8.413  -4.841   0.381  0.00  0.00    -0.045 A 
ATOM     25  C   UNL     1       7.619  -4.410  -0.666  0.00  0.00    +0.006 A 
ATOM     26  C   UNL     1       6.998  -3.178  -0.602  0.00  0.00    +0.023 A 
BRANCH  24  27
ATOM     27  C   UNL     1       9.090  -6.186   0.307  0.00  0.00    +0.013 C 
ATOM     28  C   UNL     1      10.606  -5.999   0.396  0.00  0.00    +0.012 C 
ATOM     29  C   UNL     1       8.614  -7.061   1.469  0.00  0.00    +0.012 C 
ENDBRANCH  24  27
ENDBRANCH  19  21
ENDBRANCH  16  17
BRANCH  16  31
ATOM     30  C   UNL     1       4.682   2.620  -1.183  0.00  0.00    +0.005 C 
ATOM     31  C   UNL     1       5.204   1.182  -1.226  0.00  0.00    +0.020 C 
ENDBRANCH  16  31
ENDBRANCH  15  16
ENDBRANCH   1  15
BRANCH  11  32
ATOM     32  C   UNL     1      -1.875   0.563   2.493  0.00  0.00    +0.039 C 
BRANCH  32  33
ATOM     33  C   UNL     1      -3.069   0.136   3.350  0.00  0.00    -0.015 C 
ATOM     34  C   UNL     1      -3.871   1.373   3.760  0.00  0.00    +0.007 C 
ATOM     35  C   UNL     1      -3.964  -0.808   2.543  0.00  0.00    +0.007 C 
ENDBRANCH  32  33
ENDBRANCH  11  32
TORSDOF 8
