REMARK  Name = ZINC64507153
REMARK  4 active torsions:
REMARK  status: ('A' for Active; 'I' for Inactive)
REMARK    1  A    between atoms: C_6  and  C_7
REMARK    2  A    between atoms: N_9  and  C_10
REMARK    3  A    between atoms: C_10  and  C_11
REMARK    4  A    between atoms: C_11  and  C_12
REMARK                            x       y       z     vdW  Elec       q    Type
REMARK                         _______ _______ _______ _____ _____    ______ ____
ROOT
ATOM      1  C   UNL     1      -1.264  -0.762   0.000  0.00  0.00    +0.244 C 
ATOM      2  O   UNL     1      -1.245  -1.978  -0.006  0.00  0.00    -0.270 OA
ATOM      3  N   UNL     1      -2.441  -0.106   0.006  0.00  0.00    -0.311 N 
ATOM      4  H   UNL     1      -2.457   0.864   0.011  0.00  0.00    +0.149 HD
ENDROOT
BRANCH   1  10
ATOM      5  C   UNL     1      -0.017   1.393   0.010  0.00  0.00    +0.015 A 
ATOM      6  C   UNL     1       1.165   2.098   0.002  0.00  0.00    +0.026 A 
ATOM      7  C   UNL     1       2.387   1.429  -0.006  0.00  0.00    +0.052 A 
ATOM      8  C   UNL     1       2.412   0.030  -0.000  0.00  0.00    +0.051 A 
ATOM      9  C   UNL     1       1.224  -0.681  -0.004  0.00  0.00    +0.038 A 
ATOM     10  C   UNL     1       0.002  -0.004   0.002  0.00  0.00    +0.039 A 
ATOM     11  N   UNL     1       3.741  -0.422   0.034  0.00  0.00    -0.323 N 
ATOM     12  C   UNL     1       4.595   0.762   0.152  0.00  0.00    +0.185 C 
ATOM     13  N   UNL     1       3.687   1.907  -0.048  0.00  0.00    -0.306 N 
ATOM     14  C   UNL     1       4.168   3.270  -0.300  0.00  0.00    +0.135 C 
ATOM     15  C   UNL     1       5.262   3.166  -1.375  0.00  0.00    +0.179 C 
ATOM     16  O   UNL     1       6.184   2.134  -1.022  0.00  0.00    -0.375 OA
ATOM     17  C   UNL     1       5.645   0.804  -0.963  0.00  0.00    +0.202 C 
ATOM     18  H   UNL     1       4.038  -1.344  -0.013  0.00  0.00    +0.148 HD
ENDBRANCH   1  10
BRANCH   3  19
ATOM     19  C   UNL     1      -3.699  -0.859   0.004  0.00  0.00    +0.109 C 
BRANCH  19  20
ATOM     20  C   UNL     1      -4.877   0.117   0.012  0.00  0.00    +0.052 C 
BRANCH  20  21
ATOM     21  C   UNL     1      -6.170  -0.657   0.010  0.00  0.00    -0.040 C 
ATOM     22  C   UNL     1      -6.917  -0.995   1.086  0.00  0.00    +0.000 A 
ATOM     23  C   UNL     1      -6.754  -0.753   2.525  0.00  0.00    +0.030 A 
ATOM     24  C   UNL     1      -7.690  -1.227   3.380  0.00  0.00    +0.042 A 
ATOM     25  C   UNL     1      -8.808  -1.942   2.926  0.00  0.00    +0.022 A 
ATOM     26  C   UNL     1      -9.025  -2.204   1.620  0.00  0.00    +0.027 A 
ATOM     27  C   UNL     1      -8.106  -1.752   0.633  0.00  0.00    +0.043 A 
ATOM     28  N   UNL     1      -8.094  -1.877  -0.671  0.00  0.00    -0.380 N 
ATOM     29  C   UNL     1      -6.899  -1.207  -1.195  0.00  0.00    +0.144 C 
ATOM     30 CL   UNL     1      -7.502  -0.943   5.082  0.00  0.00    -0.084 Cl
ATOM     31  H   UNL     1      -8.766  -2.333  -1.202  0.00  0.00    +0.160 HD
ENDBRANCH  20  21
ENDBRANCH  19  20
ENDBRANCH   3  19
TORSDOF 4
