REMARK  Name = ZINC12135418
REMARK  9 active torsions:
REMARK  status: ('A' for Active; 'I' for Inactive)
REMARK    1  A    between atoms: C_1  and  N_2
REMARK    2  A    between atoms: N_2  and  C_3
REMARK    3  A    between atoms: C_3  and  C_4
REMARK    4  A    between atoms: C_15  and  C_17
REMARK    5  A    between atoms: C_17  and  S_18
REMARK    6  A    between atoms: S_18  and  C_19
REMARK    7  A    between atoms: C_22  and  C_30
REMARK    8  A    between atoms: N_23  and  C_24
REMARK    9  A    between atoms: C_30  and  N_66
REMARK                            x       y       z     vdW  Elec       q    Type
REMARK                         _______ _______ _______ _____ _____    ______ ____
ROOT
ATOM      1  C   UNL     1       6.515  -0.194   1.336  0.00  0.00    +0.197 A 
ATOM      2  N   UNL     1       6.271   0.876   2.057  0.00  0.00    -0.122 NA
ATOM      3  N   UNL     1       5.045   0.876   2.441  0.00  0.00    -0.135 NA
ATOM      4  C   UNL     1       4.435  -0.185   1.993  0.00  0.00    +0.122 A 
ATOM      5  N   UNL     1       5.350  -0.909   1.276  0.00  0.00    -0.276 N 
ENDROOT
BRANCH   5   6
ATOM      6  C   UNL     1       5.138  -2.129   0.617  0.00  0.00    +0.050 A 
ATOM      7  C   UNL     1       4.835  -3.270   1.347  0.00  0.00    +0.026 A 
ATOM      8  C   UNL     1       4.620  -4.468   0.694  0.00  0.00    +0.002 A 
ATOM      9  C   UNL     1       4.718  -4.534  -0.684  0.00  0.00    +0.000 A 
ATOM     10  C   UNL     1       5.025  -3.400  -1.413  0.00  0.00    +0.002 A 
ATOM     11  C   UNL     1       5.235  -2.198  -0.766  0.00  0.00    +0.026 A 
ENDBRANCH   5   6
BRANCH   1  12
ATOM     12  S   UNL     1       8.052  -0.629   0.592  0.00  0.00    -0.076 S 
BRANCH  12  13
ATOM     13  C   UNL     1       9.065   0.774   1.121  0.00  0.00    +0.173 C 
BRANCH  13  16
ATOM     14  C   UNL     1      11.058   2.714   1.666  0.00  0.00    +0.132 C 
ATOM     15  N   UNL     1      11.401   1.544   0.854  0.00  0.00    -0.300 N 
ATOM     16  C   UNL     1      10.465   0.613   0.585  0.00  0.00    +0.226 C 
ATOM     17  O   UNL     1      10.749  -0.356  -0.087  0.00  0.00    -0.275 OA
BRANCH  15  18
ATOM     18  C   UNL     1      12.761   1.387   0.333  0.00  0.00    +0.155 C 
BRANCH  18  19
ATOM     19  C   UNL     1      12.861   2.052  -1.041  0.00  0.00    +0.228 C 
ATOM     20  C   UNL     1      14.256   1.809  -1.633  0.00  0.00    +0.275 C 
ATOM     21  O   UNL     1      14.319   2.454  -2.910  0.00  0.00    -0.485 OA
ATOM     22  C   UNL     1      13.845   3.728  -2.976  0.00  0.00    +0.162 A 
ATOM     23  C   UNL     1      14.191   4.529  -4.054  0.00  0.00    +0.049 A 
ATOM     24  C   UNL     1      13.713   5.823  -4.138  0.00  0.00    +0.004 A 
ATOM     25  C   UNL     1      12.888   6.322  -3.147  0.00  0.00    +0.004 A 
ATOM     26  C   UNL     1      12.540   5.531  -2.069  0.00  0.00    +0.049 A 
ATOM     27  C   UNL     1      13.018   4.232  -1.979  0.00  0.00    +0.163 A 
ATOM     28  O   UNL     1      12.669   3.465  -0.910  0.00  0.00    -0.480 OA
ENDBRANCH  18  19
ENDBRANCH  15  18
ENDBRANCH  13  16
ENDBRANCH  12  13
ENDBRANCH   1  12
BRANCH   4  29
ATOM     29  C   UNL     1       2.991  -0.550   2.226  0.00  0.00    -0.001 C 
BRANCH  29  35
ATOM     30  C   UNL     1       0.793  -0.505   1.212  0.00  0.00    -0.078 C 
ATOM     31  C   UNL     1       0.002  -0.004   0.002  0.00  0.00    -0.019 C 
ATOM     32  C   UNL     1      -0.019   1.527   0.010  0.00  0.00    -0.004 C 
ATOM     33  C   UNL     1       1.421   2.049  -0.001  0.00  0.00    -0.019 C 
ATOM     34  C   UNL     1       2.171   1.488   1.210  0.00  0.00    -0.078 C 
ATOM     35  N   UNL     1       2.176   0.012   1.129  0.00  0.00    +0.384 N 
ATOM     36  H   UNL     1       2.584  -0.271   0.231  0.00  0.00    -0.081 HD
ENDBRANCH  29  35
ENDBRANCH   4  29
TORSDOF 8
