REMARK  Name = ZINC39227660
REMARK  7 active torsions:
REMARK  status: ('A' for Active; 'I' for Inactive)
REMARK    1  A    between atoms: C_1  and  C_2
REMARK    2  A    between atoms: C_2  and  C_3
REMARK    3  A    between atoms: C_2  and  C_4
REMARK    4  A    between atoms: C_9  and  N_10
REMARK    5  A    between atoms: C_11  and  C_13
REMARK    6  A    between atoms: C_16  and  C_19
REMARK    7  A    between atoms: N_32  and  C_35
REMARK                            x       y       z     vdW  Elec       q    Type
REMARK                         _______ _______ _______ _____ _____    ______ ____
ROOT
ATOM      1  C   UNL     1      -0.510  -2.373  -4.334  0.00  0.00    +0.037 A 
ATOM      2  C   UNL     1       0.848  -2.065  -4.209  0.00  0.00    +0.013 A 
ATOM      3  C   UNL     1       1.719  -2.374  -5.229  0.00  0.00    +0.009 A 
ATOM      4  C   UNL     1       1.248  -2.994  -6.387  0.00  0.00    -0.018 A 
ATOM      5  C   UNL     1      -0.108  -3.301  -6.512  0.00  0.00    +0.009 A 
ATOM      6  C   UNL     1      -0.980  -2.998  -5.492  0.00  0.00    +0.013 A 
ENDROOT
BRANCH   4   7
ATOM      7  C   UNL     1       2.187  -3.325  -7.485  0.00  0.00    -0.017 A 
ATOM      8  C   UNL     1       3.546  -3.022  -7.358  0.00  0.00    +0.012 A 
ATOM      9  C   UNL     1       4.428  -3.323  -8.372  0.00  0.00    +0.047 A 
ATOM     10  C   UNL     1       3.975  -3.934  -9.536  0.00  0.00    +0.132 A 
ATOM     11  C   UNL     1       2.611  -4.244  -9.667  0.00  0.00    +0.060 A 
ATOM     12  C   UNL     1       1.718  -3.942  -8.639  0.00  0.00    +0.023 A 
ATOM     13  C   UNL     1       2.141  -4.902 -10.900  0.00  0.00    +0.170 C 
ATOM     14  O   UNL     1       1.029  -5.380 -10.984  0.00  0.00    -0.292 OA
ATOM     15  C   UNL     1       3.121  -4.949 -12.058  0.00  0.00    +0.127 C 
ATOM     16  C   UNL     1       4.506  -5.242 -11.466  0.00  0.00    +0.114 C 
ATOM     17  O   UNL     1       4.848  -4.221 -10.530  0.00  0.00    -0.485 OA
ATOM     18  C   UNL     1       4.477  -6.599 -10.760  0.00  0.00    +0.030 C 
ATOM     19  C   UNL     1       5.880  -6.932 -10.247  0.00  0.00    -0.075 C 
ATOM     20  N   UNL     1       6.818  -6.983 -11.375  0.00  0.00    +0.378 N 
ATOM     21  C   UNL     1       6.906  -5.662 -12.010  0.00  0.00    -0.075 C 
ATOM     22  C   UNL     1       5.542  -5.280 -12.591  0.00  0.00    +0.030 C 
ATOM     23  C   UNL     1       8.146  -7.380 -10.889  0.00  0.00    -0.096 C 
ATOM     24  H   UNL     1       6.493  -7.659 -12.050  0.00  0.00    -0.082 HD
ENDBRANCH   4   7
BRANCH   1  26
ATOM     25  N   UNL     1      -0.991  -1.440  -2.124  0.00  0.00    -0.281 N 
ATOM     26  C   UNL     1      -1.445  -2.043  -3.240  0.00  0.00    +0.248 C 
ATOM     27  O   UNL     1      -2.626  -2.315  -3.347  0.00  0.00    -0.270 OA
ATOM     28  H   UNL     1      -0.061  -1.171  -2.062  0.00  0.00    +0.155 HD
BRANCH  25  34
ATOM     29  C   UNL     1      -1.363  -1.100   0.238  0.00  0.00    -0.024 A 
ATOM     30  C   UNL     1      -2.224  -0.859   1.291  0.00  0.00    +0.006 A 
ATOM     31  C   UNL     1      -3.580  -0.725   1.060  0.00  0.00    +0.000 A 
ATOM     32  C   UNL     1      -4.080  -0.831  -0.225  0.00  0.00    +0.002 A 
ATOM     33  C   UNL     1      -3.225  -1.072  -1.283  0.00  0.00    +0.023 A 
ATOM     34  C   UNL     1      -1.861  -1.202  -1.055  0.00  0.00    +0.037 A 
BRANCH  29  36
ATOM     35  C   UNL     1       0.677   0.078   1.011  0.00  0.00    +0.012 C 
ATOM     36  C   UNL     1       0.116  -1.246   0.490  0.00  0.00    +0.015 C 
ATOM     37  C   UNL     1       0.349  -2.343   1.531  0.00  0.00    +0.012 C 
ENDBRANCH  29  36
ENDBRANCH  25  34
ENDBRANCH   1  26
TORSDOF 4
