REMARK  Name = ZINC39937986
REMARK  8 active torsions:
REMARK  status: ('A' for Active; 'I' for Inactive)
REMARK    1  A    between atoms: C_1  and  C_2
REMARK    2  A    between atoms: C_2  and  C_3
REMARK    3  A    between atoms: C_2  and  C_4
REMARK    4  A    between atoms: C_4  and  C_6
REMARK    5  A    between atoms: C_4  and  N_20
REMARK    6  A    between atoms: N_8  and  N_9
REMARK    7  A    between atoms: C_10  and  C_11
REMARK    8  A    between atoms: C_21  and  C_23
REMARK                            x       y       z     vdW  Elec       q    Type
REMARK                         _______ _______ _______ _____ _____    ______ ____
ROOT
ATOM      1  C   UNL     1      -1.409  -0.547   0.007  0.00  0.00    +0.163 C 
ENDROOT
BRANCH   1   2
ATOM      2  C   UNL     1      -1.371  -2.048   0.141  0.00  0.00    +0.253 C 
ATOM      3  O   UNL     1      -1.799  -2.748  -0.751  0.00  0.00    -0.272 OA
ATOM      4  N   UNL     1      -0.860  -2.612   1.253  0.00  0.00    -0.205 N 
ATOM      5  H   UNL     1      -0.451  -2.056   1.935  0.00  0.00    +0.177 HD
BRANCH   4   6
ATOM      6  N   UNL     1      -0.919  -4.001   1.425  0.00  0.00    -0.188 NA
ATOM      7  C   UNL     1      -0.422  -4.549   2.506  0.00  0.00    +0.136 C 
BRANCH   7   8
ATOM      8  C   UNL     1      -0.482  -5.939   2.677  0.00  0.00    +0.000 C 
ATOM      9  C   UNL     1      -0.010  -6.675   3.762  0.00  0.00    +0.004 A 
ATOM     10  C   UNL     1       0.638  -6.300   4.960  0.00  0.00    +0.010 A 
ATOM     11  C   UNL     1       0.993  -7.252   5.859  0.00  0.00    +0.001 A 
ATOM     12  C   UNL     1       0.735  -8.607   5.632  0.00  0.00    +0.002 A 
ATOM     13  C   UNL     1       0.119  -9.039   4.506  0.00  0.00    +0.026 A 
ATOM     14  C   UNL     1      -0.284  -8.102   3.517  0.00  0.00    +0.043 A 
ATOM     15  N   UNL     1      -0.888  -8.262   2.359  0.00  0.00    -0.380 N 
ATOM     16  C   UNL     1      -1.078  -6.954   1.726  0.00  0.00    +0.150 C 
ATOM     17  H   UNL     1      -1.167  -9.113   1.985  0.00  0.00    +0.160 HD
ENDBRANCH   7   8
ENDBRANCH   4   6
ENDBRANCH   1   2
BRANCH   1  18
ATOM     18  N   UNL     1      -2.416  -0.172  -0.989  0.00  0.00    -0.300 N 
ATOM     19  C   UNL     1      -2.993   1.045  -0.938  0.00  0.00    +0.246 C 
ATOM     20  O   UNL     1      -2.677   1.832  -0.066  0.00  0.00    -0.270 OA
ATOM     21  H   UNL     1      -2.668  -0.799  -1.685  0.00  0.00    +0.150 HD
BRANCH  19  22
ATOM     22  C   UNL     1      -4.008   1.424  -1.942  0.00  0.00    +0.055 A 
ATOM     23  C   UNL     1      -4.377   0.521  -2.941  0.00  0.00    +0.016 A 
ATOM     24  C   UNL     1      -5.325   0.880  -3.875  0.00  0.00    +0.021 A 
ATOM     25  C   UNL     1      -5.912   2.134  -3.825  0.00  0.00    +0.042 A 
ATOM     26  C   UNL     1      -5.551   3.035  -2.837  0.00  0.00    +0.040 A 
ATOM     27  C   UNL     1      -4.608   2.685  -1.892  0.00  0.00    +0.054 A 
ATOM     28 CL   UNL     1      -4.162   3.812  -0.649  0.00  0.00    -0.083 Cl
ATOM     29 CL   UNL     1      -7.105   2.578  -5.005  0.00  0.00    -0.083 Cl
ENDBRANCH  19  22
ENDBRANCH   1  18
BRANCH   1  31
ATOM     30  C   UNL     1       0.262  -0.552  -1.851  0.00  0.00    +0.009 C 
ATOM     31  C   UNL     1      -0.036  -0.040  -0.440  0.00  0.00    +0.012 C 
ATOM     32  C   UNL     1      -0.034   1.490  -0.442  0.00  0.00    +0.009 C 
ENDBRANCH   1  31
TORSDOF 6
