REMARK  Name = ZINC32104846
REMARK  3 active torsions:
REMARK  status: ('A' for Active; 'I' for Inactive)
REMARK    1  A    between atoms: C_6  and  C_7
REMARK    2  A    between atoms: C_7  and  N_8
REMARK    3  A    between atoms: C_15  and  O_17
REMARK                            x       y       z     vdW  Elec       q    Type
REMARK                         _______ _______ _______ _____ _____    ______ ____
ROOT
ATOM      1  N   UNL     1      -1.726  -1.017  -1.368  0.00  0.00    -0.242 N 
ATOM      2  C   UNL     1      -2.514  -0.210  -2.107  0.00  0.00    +0.159 A 
ATOM      3  C   UNL     1      -2.666  -0.813  -3.351  0.00  0.00    +0.036 A 
ATOM      4  C   UNL     1      -1.958  -2.000  -3.335  0.00  0.00    +0.141 A 
ATOM      5  N   UNL     1      -1.390  -2.129  -2.158  0.00  0.00    -0.177 NA
ATOM      6  C   UNL     1      -3.482  -0.168  -4.436  0.00  0.00    +0.112 C 
ATOM      7  C   UNL     1      -4.566   0.692  -3.788  0.00  0.00    +0.121 C 
ATOM      8  C   UNL     1      -4.031   1.447  -2.604  0.00  0.00    +0.191 C 
ATOM      9  N   UNL     1      -3.094   0.993  -1.827  0.00  0.00    -0.198 NA
ATOM     10  C   UNL     1      -2.625   0.641  -5.355  0.00  0.00    -0.005 A 
ATOM     11  C   UNL     1      -1.815   1.733  -5.128  0.00  0.00    +0.026 A 
ATOM     12  C   UNL     1      -1.140   2.258  -6.226  0.00  0.00    +0.041 A 
ATOM     13  C   UNL     1      -1.279   1.707  -7.485  0.00  0.00    +0.022 A 
ATOM     14  C   UNL     1      -2.091   0.609  -7.720  0.00  0.00    +0.025 A 
ATOM     15  C   UNL     1      -2.774   0.073  -6.627  0.00  0.00    +0.038 A 
ATOM     16  N   UNL     1      -3.641  -1.005  -6.574  0.00  0.00    -0.284 N 
ATOM     17  C   UNL     1      -4.106  -1.220  -5.325  0.00  0.00    +0.233 C 
ATOM     18  O   UNL     1      -4.877  -2.090  -4.982  0.00  0.00    -0.274 OA
ATOM     19 CL   UNL     1      -0.104   3.633  -6.009  0.00  0.00    -0.084 Cl
ATOM     20  H   UNL     1      -3.885  -1.543  -7.344  0.00  0.00    +0.155 HD
ENDROOT
BRANCH   8  21
ATOM     21  O   UNL     1      -4.552   2.662  -2.333  0.00  0.00    -0.495 OA
ATOM     22  H   UNL     1      -4.164   3.092  -1.560  0.00  0.00    +0.293 HD
ENDBRANCH   8  21
BRANCH   1  23
ATOM     23  C   UNL     1      -1.293  -0.775   0.011  0.00  0.00    +0.181 C 
BRANCH  23  29
ATOM     24  C   UNL     1      -0.017   1.378   0.010  0.00  0.00    +0.007 A 
ATOM     25  C   UNL     1       1.171   2.086   0.002  0.00  0.00    +0.020 A 
ATOM     26  C   UNL     1       2.378   1.410  -0.013  0.00  0.00    +0.041 A 
ATOM     27  C   UNL     1       2.396   0.027  -0.021  0.00  0.00    +0.020 A 
ATOM     28  C   UNL     1       1.208  -0.679  -0.013  0.00  0.00    +0.007 A 
ATOM     29  C   UNL     1       0.002  -0.004   0.002  0.00  0.00    -0.026 A 
ATOM     30 CL   UNL     1       3.870   2.298  -0.023  0.00  0.00    -0.084 Cl
ENDBRANCH  23  29
ENDBRANCH   1  23
TORSDOF 3
