REMARK  Name = ZINC19209083
REMARK  8 active torsions:
REMARK  status: ('A' for Active; 'I' for Inactive)
REMARK    1  A    between atoms: C_1  and  C_2
REMARK    2  A    between atoms: C_5  and  C_8
REMARK    3  A    between atoms: N_16  and  C_19
REMARK    4  A    between atoms: C_22  and  C_25
REMARK    5  A    between atoms: C_26  and  C_28
REMARK    6  A    between atoms: C_26  and  C_29
REMARK    7  A    between atoms: C_29  and  O_31
REMARK    8  A    between atoms: O_31  and  C_32
REMARK                            x       y       z     vdW  Elec       q    Type
REMARK                         _______ _______ _______ _____ _____    ______ ____
ROOT
ATOM      1  C   UNL     1       0.059  -4.275  -0.021  0.00  0.00    +0.097 C 
ATOM      2  C   UNL     1       1.484  -4.783   0.121  0.00  0.00    +0.111 C 
ATOM      3  C   UNL     1       1.581  -4.768   1.695  0.00  0.00    +0.120 C 
ATOM      4  C   UNL     1       3.004  -4.858   1.902  0.00  0.00    +0.232 C 
ATOM      5  O   UNL     1       3.584  -5.422   2.806  0.00  0.00    -0.274 OA
ATOM      6  N   UNL     1       3.562  -4.168   0.855  0.00  0.00    -0.210 N 
ATOM      7  C   UNL     1       2.660  -3.899  -0.151  0.00  0.00    +0.232 C 
ATOM      8  O   UNL     1       2.785  -3.110  -1.063  0.00  0.00    -0.274 OA
ATOM      9  C   UNL     1       0.337  -5.455   2.083  0.00  0.00    +0.127 C 
ATOM     10  N   UNL     1      -0.679  -4.808   1.163  0.00  0.00    -0.294 NA
ATOM     11  C   UNL     1       0.445  -6.960   1.830  0.00  0.00    +0.040 C 
ATOM     12  H   UNL     1      -1.186  -4.074   1.633  0.00  0.00    +0.124 HD
ENDROOT
BRANCH   1  17
ATOM     13  C   UNL     1      -0.012   1.503   0.010  0.00  0.00    +0.044 C 
ATOM     14  C   UNL     1       0.007  -0.004   0.002  0.00  0.00    -0.050 A 
ATOM     15  C   UNL     1       0.020  -0.702   1.195  0.00  0.00    +0.003 A 
ATOM     16  C   UNL     1       0.037  -2.084   1.188  0.00  0.00    +0.005 A 
ATOM     17  C   UNL     1       0.040  -2.768  -0.013  0.00  0.00    -0.030 A 
ATOM     18  C   UNL     1       0.026  -2.071  -1.206  0.00  0.00    +0.005 A 
ATOM     19  C   UNL     1       0.004  -0.689  -1.199  0.00  0.00    +0.003 A 
ENDBRANCH   1  17
BRANCH   6  20
ATOM     20  C   UNL     1       4.910  -3.786   0.806  0.00  0.00    +0.044 A 
ATOM     21  C   UNL     1       5.763  -4.109   1.853  0.00  0.00    +0.024 A 
ATOM     22  C   UNL     1       7.090  -3.731   1.802  0.00  0.00    +0.005 A 
ATOM     23  C   UNL     1       7.570  -3.032   0.710  0.00  0.00    -0.050 A 
ATOM     24  C   UNL     1       6.723  -2.709  -0.335  0.00  0.00    +0.005 A 
ATOM     25  C   UNL     1       5.396  -3.089  -0.292  0.00  0.00    +0.024 A 
ATOM     26  C   UNL     1       9.019  -2.620   0.658  0.00  0.00    +0.044 C 
ENDBRANCH   6  20
BRANCH   9  27
ATOM     27  C   UNL     1      -0.002  -5.175   3.525  0.00  0.00    +0.328 C 
ATOM     28  O   UNL     1       0.872  -4.877   4.304  0.00  0.00    -0.249 OA
BRANCH  27  29
ATOM     29  O   UNL     1      -1.275  -5.257   3.943  0.00  0.00    -0.467 OA
ATOM     30  C   UNL     1      -1.524  -4.979   5.322  0.00  0.00    +0.280 C 
ENDBRANCH  27  29
ENDBRANCH   9  27
TORSDOF 4
