REMARK  Name = ZINC02927189
REMARK  9 active torsions:
REMARK  status: ('A' for Active; 'I' for Inactive)
REMARK    1  A    between atoms: C_1  and  C_2
REMARK    2  A    between atoms: C_5  and  N_9
REMARK    3  A    between atoms: C_7  and  C_8
REMARK    4  A    between atoms: C_13  and  C_31
REMARK    5  A    between atoms: C_19  and  S_20
REMARK    6  A    between atoms: S_20  and  C_21
REMARK    7  A    between atoms: C_21  and  C_22
REMARK    8  A    between atoms: N_24  and  C_25
REMARK    9  A    between atoms: C_25  and  C_26
REMARK                            x       y       z     vdW  Elec       q    Type
REMARK                         _______ _______ _______ _____ _____    ______ ____
ROOT
ATOM      1  N   UNL     1      -4.484   2.081   0.943  0.00  0.00    -0.275 N 
ATOM      2  C   UNL     1      -3.238   1.732   0.446  0.00  0.00    +0.124 A 
ATOM      3  N   UNL     1      -3.086   1.333  -0.793  0.00  0.00    -0.384 N 
ATOM      4  C   UNL     1      -2.095   1.832   1.363  0.00  0.00    +0.082 A 
ATOM      5  C   UNL     1      -0.718   1.572   1.248  0.00  0.00    +0.072 A 
ATOM      6  N   UNL     1      -0.154   1.828   2.397  0.00  0.00    -0.177 NA
ATOM      7  N   UNL     1      -1.127   2.258   3.308  0.00  0.00    -0.260 N 
ATOM      8  H   UNL     1      -0.839   2.522   4.336  0.00  0.00    +0.191 HD
ATOM      9  C   UNL     1      -2.332   2.259   2.676  0.00  0.00    +0.162 A 
ATOM     10  N   UNL     1      -3.579   2.573   3.057  0.00  0.00    -0.204 NA
ATOM     11  C   UNL     1      -4.603   2.492   2.243  0.00  0.00    +0.177 A 
ATOM     12  C   UNL     1      -0.013   1.086   0.008  0.00  0.00    +0.068 C 
ATOM     13  H   UNL     1      -2.087   1.062  -1.165  0.00  0.00    +0.157 HD
ATOM     14  H   UNL     1      -3.957   1.271  -1.462  0.00  0.00    +0.157 HD
ENDROOT
BRANCH   1  19
ATOM     15  C   UNL     1      -9.066   1.804  -2.393  0.00  0.00    +0.044 C 
ATOM     16  C   UNL     1      -7.849   1.878  -1.507  0.00  0.00    -0.047 A 
ATOM     17  C   UNL     1      -7.167   0.721  -1.175  0.00  0.00    +0.005 A 
ATOM     18  C   UNL     1      -6.048   0.786  -0.367  0.00  0.00    +0.026 A 
ATOM     19  C   UNL     1      -5.615   2.012   0.120  0.00  0.00    +0.051 A 
ATOM     20  C   UNL     1      -6.303   3.171  -0.216  0.00  0.00    +0.030 A 
ATOM     21  C   UNL     1      -7.417   3.101  -1.028  0.00  0.00    -0.046 A 
ATOM     22  C   UNL     1      -8.164   4.358  -1.393  0.00  0.00    +0.044 C 
ENDBRANCH   1  19
BRANCH  11  23
ATOM     23  S   UNL     1      -6.200   2.929   2.847  0.00  0.00    -0.078 S 
BRANCH  23  24
ATOM     24  C   UNL     1      -5.779   3.375   4.551  0.00  0.00    +0.173 C 
BRANCH  24  25
ATOM     25  C   UNL     1      -7.028   3.795   5.282  0.00  0.00    +0.224 C 
ATOM     26  O   UNL     1      -8.097   3.793   4.709  0.00  0.00    -0.275 OA
ATOM     27  N   UNL     1      -6.957   4.173   6.574  0.00  0.00    -0.308 N 
ATOM     28  H   UNL     1      -5.988   4.175   7.094  0.00  0.00    +0.149 HD
BRANCH  27  29
ATOM     29  C   UNL     1      -8.171   4.581   7.286  0.00  0.00    +0.178 C 
BRANCH  29  30
ATOM     30  C   UNL     1      -7.821   4.952   8.704  0.00  0.00    +0.122 A 
ATOM     31  C   UNL     1      -7.473   6.179   9.133  0.00  0.00    +0.046 A 
ATOM     32  C   UNL     1      -7.232   6.074  10.522  0.00  0.00    +0.041 A 
ATOM     33  C   UNL     1      -7.447   4.789  10.859  0.00  0.00    +0.195 A 
ATOM     34  O   UNL     1      -7.809   4.116   9.755  0.00  0.00    -0.466 OA
ENDBRANCH  29  30
ENDBRANCH  27  29
ENDBRANCH  24  25
ENDBRANCH  23  24
ENDBRANCH  11  23
TORSDOF 6
