REMARK  Name = ZINC54431488
REMARK  5 active torsions:
REMARK  status: ('A' for Active; 'I' for Inactive)
REMARK    1  A    between atoms: C_1  and  C_2
REMARK    2  A    between atoms: C_2  and  C_4
REMARK    3  A    between atoms: C_2  and  N_9
REMARK    4  A    between atoms: N_9  and  C_10
REMARK    5  A    between atoms: C_11  and  C_13
REMARK                            x       y       z     vdW  Elec       q    Type
REMARK                         _______ _______ _______ _____ _____    ______ ____
ROOT
ATOM      1  N   UNL     1       0.646  -0.563  -1.245  0.00  0.00    -0.292 N 
ATOM      2  C   UNL     1       0.238  -0.253  -2.618  0.00  0.00    +0.133 C 
ATOM      3  C   UNL     1       1.666  -1.416  -1.022  0.00  0.00    +0.272 C 
ATOM      4  O   UNL     1       2.053  -1.617   0.112  0.00  0.00    -0.268 OA
ENDROOT
BRANCH   3   5
ATOM      5  C   UNL     1       2.316  -2.107  -2.160  0.00  0.00    +0.210 A 
ATOM      6  C   UNL     1       3.349  -3.144  -2.059  0.00  0.00    +0.192 A 
ATOM      7  N   UNL     1       3.677  -3.515  -3.267  0.00  0.00    -0.033 NA
ATOM      8  O   UNL     1       2.899  -2.763  -4.181  0.00  0.00    -0.240 OA
ATOM      9  N   UNL     1       2.062  -1.903  -3.426  0.00  0.00    -0.042 NA
ATOM     10  N   UNL     1       3.886  -3.645  -0.881  0.00  0.00    -0.339 N 
ATOM     11  H   UNL     1       3.578  -3.307  -0.026  0.00  0.00    +0.144 HD
ATOM     12  H   UNL     1       4.569  -4.333  -0.913  0.00  0.00    +0.144 HD
ENDBRANCH   3   5
BRANCH   1  14
ATOM     13  C   UNL     1      -0.056   1.573  -0.284  0.00  0.00    +0.034 C 
ATOM     14  C   UNL     1      -0.054   0.052  -0.116  0.00  0.00    +0.110 C 
BRANCH  14  15
ATOM     15  C   UNL     1      -1.474  -0.450  -0.071  0.00  0.00    +0.010 A 
ATOM     16  C   UNL     1      -2.196  -0.875   0.995  0.00  0.00    +0.013 A 
ATOM     17  C   UNL     1      -3.498  -1.296   0.798  0.00  0.00    +0.008 A 
ATOM     18  C   UNL     1      -4.014  -1.271  -0.455  0.00  0.00    +0.045 A 
ATOM     19  S   UNL     1      -2.645  -0.632  -1.406  0.00  0.00    -0.100 S 
ENDBRANCH  14  15
ENDBRANCH   1  14
TORSDOF 3
