REMARK  Name = ZINC08963406
REMARK  7 active torsions:
REMARK  status: ('A' for Active; 'I' for Inactive)
REMARK    1  A    between atoms: C_1  and  N_2
REMARK    2  A    between atoms: C_9  and  C_11
REMARK    3  A    between atoms: C_11  and  C_13
REMARK    4  A    between atoms: C_11  and  N_60
REMARK    5  A    between atoms: C_13  and  N_14
REMARK    6  A    between atoms: C_15  and  C_17
REMARK    7  A    between atoms: C_17  and  N_18
REMARK                            x       y       z     vdW  Elec       q    Type
REMARK                         _______ _______ _______ _____ _____    ______ ____
ROOT
ATOM      1  C   UNL     1      -0.042  -3.862   3.032  0.00  0.00    -0.020 C 
ENDROOT
BRANCH   1  10
ATOM      2  C   UNL     1      -3.021  -5.221   8.605  0.00  0.00    +0.129 C 
ATOM      3  N   UNL     1      -1.717  -4.577   8.402  0.00  0.00    -0.332 N 
ATOM      4  C   UNL     1      -0.622  -5.418   8.933  0.00  0.00    +0.109 C 
ATOM      5  C   UNL     1       0.557  -5.069   7.996  0.00  0.00    +0.056 C 
ATOM      6  C   UNL     1      -0.142  -4.622   6.727  0.00  0.00    -0.025 A 
ATOM      7  C   UNL     1      -1.471  -4.360   7.040  0.00  0.00    +0.033 A 
ATOM      8  C   UNL     1      -2.334  -3.939   6.031  0.00  0.00    +0.023 A 
ATOM      9  C   UNL     1      -1.869  -3.776   4.743  0.00  0.00    +0.004 A 
ATOM     10  C   UNL     1      -0.545  -4.040   4.441  0.00  0.00    -0.059 A 
ATOM     11  C   UNL     1       0.317  -4.461   5.437  0.00  0.00    +0.007 A 
ENDBRANCH   1  10
BRANCH   1  16
ATOM     12  C   UNL     1      -0.435  -4.527   0.723  0.00  0.00    -0.078 C 
ATOM     13  C   UNL     1      -1.320  -5.595   0.032  0.00  0.00    -0.020 C 
ATOM     14  C   UNL     1      -1.581  -6.614   1.164  0.00  0.00    -0.020 C 
ATOM     15  C   UNL     1      -1.349  -5.832   2.470  0.00  0.00    -0.078 C 
ATOM     16  N   UNL     1      -1.017  -4.463   2.073  0.00  0.00    +0.385 N 
ATOM     17  H   UNL     1      -1.869  -3.891   2.056  0.00  0.00    -0.081 HD
ENDBRANCH   1  16
BRANCH   1  18
ATOM     18  C   UNL     1       0.126  -2.371   2.734  0.00  0.00    +0.093 C 
BRANCH  18  19
ATOM     19  N   UNL     1       0.793  -2.203   1.441  0.00  0.00    -0.315 N 
ATOM     20  C   UNL     1       0.915  -0.975   0.900  0.00  0.00    +0.231 C 
ATOM     21  O   UNL     1       0.472  -0.008   1.484  0.00  0.00    -0.274 OA
ATOM     22  H   UNL     1       1.147  -2.976   0.974  0.00  0.00    +0.149 HD
BRANCH  20  23
ATOM     23  C   UNL     1       1.601  -0.802  -0.431  0.00  0.00    +0.212 C 
BRANCH  23  24
ATOM     24  N   UNL     1       1.604   0.616  -0.798  0.00  0.00    -0.225 N 
ATOM     25  C   UNL     1       0.637   1.219  -1.512  0.00  0.00    +0.254 C 
ATOM     26  O   UNL     1      -0.362   0.683  -1.948  0.00  0.00    -0.270 OA
ATOM     27  C   UNL     1       0.993   2.645  -1.676  0.00  0.00    +0.049 A 
ATOM     28  C   UNL     1       0.392   3.726  -2.300  0.00  0.00    +0.014 A 
ATOM     29  C   UNL     1       1.011   4.966  -2.272  0.00  0.00    +0.001 A 
ATOM     30  C   UNL     1       2.221   5.131  -1.626  0.00  0.00    +0.001 A 
ATOM     31  C   UNL     1       2.834   4.058  -0.997  0.00  0.00    +0.014 A 
ATOM     32  C   UNL     1       2.227   2.813  -1.017  0.00  0.00    +0.049 A 
ATOM     33  C   UNL     1       2.578   1.485  -0.471  0.00  0.00    +0.254 C 
ATOM     34  O   UNL     1       3.577   1.222   0.167  0.00  0.00    -0.270 OA
ENDBRANCH  23  24
ENDBRANCH  20  23
ENDBRANCH  18  19
ENDBRANCH   1  18
TORSDOF 6
