REMARK  Name = ZINC16837151
REMARK  7 active torsions:
REMARK  status: ('A' for Active; 'I' for Inactive)
REMARK    1  A    between atoms: C_1  and  C_2
REMARK    2  A    between atoms: C_5  and  C_34
REMARK    3  A    between atoms: N_8  and  S_10
REMARK    4  A    between atoms: S_10  and  C_13
REMARK    5  A    between atoms: C_16  and  C_19
REMARK    6  A    between atoms: N_21  and  C_22
REMARK    7  A    between atoms: C_23  and  C_32
REMARK                            x       y       z     vdW  Elec       q    Type
REMARK                         _______ _______ _______ _____ _____    ______ ____
ROOT
ATOM      1  C   UNL     1      -1.253   1.526   4.835  0.00  0.00    +0.106 A 
ATOM      2  C   UNL     1      -0.452   1.981   5.867  0.00  0.00    +0.029 A 
ATOM      3  C   UNL     1      -0.940   2.908   6.766  0.00  0.00    +0.015 A 
ATOM      4  C   UNL     1      -2.248   3.379   6.638  0.00  0.00    +0.037 A 
ATOM      5  C   UNL     1      -3.052   2.912   5.597  0.00  0.00    +0.015 A 
ATOM      6  C   UNL     1      -2.551   1.989   4.702  0.00  0.00    +0.029 A 
ENDROOT
BRANCH   4   7
ATOM      7  C   UNL     1      -2.779   4.367   7.600  0.00  0.00    +0.249 C 
ATOM      8  O   UNL     1      -3.918   4.774   7.487  0.00  0.00    -0.270 OA
ATOM      9  N   UNL     1      -1.999   4.816   8.604  0.00  0.00    -0.275 N 
ATOM     10  H   UNL     1      -0.968   4.447   8.707  0.00  0.00    +0.156 HD
BRANCH   9  11
ATOM     11  C   UNL     1      -2.497   5.743   9.507  0.00  0.00    +0.090 A 
ATOM     12  C   UNL     1      -1.857   6.317  10.593  0.00  0.00    +0.084 A 
ATOM     13  C   UNL     1      -2.606   7.276  11.393  0.00  0.00    -0.018 A 
ATOM     14  C   UNL     1      -3.873   7.495  10.979  0.00  0.00    -0.004 A 
ATOM     15  S   UNL     1      -4.069   6.470   9.547  0.00  0.00    -0.077 S 
ATOM     16  C   UNL     1      -4.893   8.403  11.593  0.00  0.00    +0.043 C 
ATOM     17  C   UNL     1      -4.261   9.780  11.838  0.00  0.00    +0.005 C 
ATOM     18  C   UNL     1      -3.634   9.784  13.228  0.00  0.00    +0.001 C 
ATOM     19  C   UNL     1      -3.101   8.394  13.569  0.00  0.00    +0.005 C 
ATOM     20  C   UNL     1      -2.000   7.990  12.594  0.00  0.00    +0.037 C 
BRANCH  12  21
ATOM     21  C   UNL     1      -0.504   5.979  10.918  0.00  0.00    +0.102 C 
ATOM     22  N   UNL     1       0.569   5.711  11.176  0.00  0.00    -0.191 NA
ENDBRANCH  12  21
ENDBRANCH   9  11
ENDBRANCH   4   7
BRANCH   1  23
ATOM     23  S   UNL     1      -0.621   0.347   3.688  0.00  0.00    +0.061 S 
ATOM     24  O   UNL     1      -1.744  -0.332   3.144  0.00  0.00    -0.153 OA
ATOM     25  O   UNL     1       0.435  -0.336   4.349  0.00  0.00    -0.153 OA
BRANCH  23  31
ATOM     26  C   UNL     1       3.619   1.586   1.189  0.00  0.00    +0.009 C 
ATOM     27  C   UNL     1       2.175   1.082   1.218  0.00  0.00    +0.002 C 
ATOM     28  C   UNL     1       1.423   1.616  -0.003  0.00  0.00    +0.009 C 
ATOM     29  C   UNL     1      -0.013   1.086   0.008  0.00  0.00    +0.002 C 
ATOM     30  C   UNL     1      -0.726   1.581   1.270  0.00  0.00    +0.112 C 
ATOM     31  N   UNL     1       0.069   1.195   2.444  0.00  0.00    -0.176 NA
ATOM     32  C   UNL     1       1.486   1.577   2.494  0.00  0.00    +0.112 C 
ATOM     33  C   UNL     1      -0.754   1.593  -1.230  0.00  0.00    +0.009 C 
ENDBRANCH  23  31
ENDBRANCH   1  23
TORSDOF 5
