REMARK  Name = ZINC13048109
REMARK  10 active torsions:
REMARK  status: ('A' for Active; 'I' for Inactive)
REMARK    1  A    between atoms: C_1  and  C_2
REMARK    2  A    between atoms: C_7  and  C_13
REMARK    3  A    between atoms: C_13  and  S_14
REMARK    4  A    between atoms: S_14  and  C_15
REMARK    5  A    between atoms: C_19  and  C_31
REMARK    6  A    between atoms: N_25  and  C_26
REMARK    7  A    between atoms: C_26  and  C_27
REMARK    8  A    between atoms: C_27  and  C_28
REMARK    9  A    between atoms: C_28  and  O_29
REMARK   10  A    between atoms: O_29  and  C_30
REMARK                            x       y       z     vdW  Elec       q    Type
REMARK                         _______ _______ _______ _____ _____    ______ ____
ROOT
ATOM      1  C   UNL     1       0.979   1.847   3.001  0.00  0.00    +0.172 A 
ATOM      2  N   UNL     1       1.654   1.476   4.061  0.00  0.00    -0.223 NA
ATOM      3  C   UNL     1       1.400   0.304   4.689  0.00  0.00    +0.080 A 
ATOM      4  C   UNL     1       2.122  -0.089   5.820  0.00  0.00    +0.043 A 
ATOM      5  C   UNL     1       1.825  -1.300   6.432  0.00  0.00    +0.065 A 
ATOM      6  C   UNL     1       0.812  -2.123   5.924  0.00  0.00    +0.016 A 
ATOM      7  C   UNL     1       0.101  -1.750   4.820  0.00  0.00    +0.016 A 
ATOM      8  C   UNL     1       0.382  -0.538   4.190  0.00  0.00    +0.065 A 
ATOM      9  C   UNL     1      -0.365  -0.094   3.002  0.00  0.00    +0.262 A 
ATOM     10  O   UNL     1      -1.257  -0.773   2.527  0.00  0.00    -0.267 OA
ATOM     11  N   UNL     1      -0.020   1.094   2.454  0.00  0.00    -0.287 N 
ENDROOT
BRANCH   5  12
ATOM     12  C   UNL     1       2.585  -1.723   7.629  0.00  0.00    +0.387 C 
ATOM     13  O   UNL     1       3.464  -1.012   8.073  0.00  0.00    -0.241 OA
ATOM     14  O   UNL     1       2.301  -2.897   8.226  0.00  0.00    -0.241 OA
ENDBRANCH   5  12
BRANCH   1  15
ATOM     15  S   UNL     1       1.377   3.389   2.248  0.00  0.00    -0.083 S 
BRANCH  15  16
ATOM     16  C   UNL     1       2.713   3.936   3.340  0.00  0.00    +0.115 C 
BRANCH  16  23
ATOM     17  C   UNL     1       4.768  11.355   1.457  0.00  0.00    +0.044 C 
ATOM     18  C   UNL     1       4.217  10.043   1.956  0.00  0.00    -0.048 A 
ATOM     19  C   UNL     1       3.173  10.045   2.878  0.00  0.00    +0.004 A 
ATOM     20  C   UNL     1       2.655   8.877   3.348  0.00  0.00    +0.010 A 
ATOM     21  C   UNL     1       3.178   7.654   2.896  0.00  0.00    +0.001 A 
ATOM     22  C   UNL     1       2.669   6.425   3.357  0.00  0.00    +0.017 A 
ATOM     23  C   UNL     1       3.225   5.275   2.875  0.00  0.00    +0.000 A 
ATOM     24  C   UNL     1       4.272   5.342   1.956  0.00  0.00    +0.134 A 
ATOM     25  N   UNL     1       4.740   6.489   1.524  0.00  0.00    -0.235 NA
ATOM     26  C   UNL     1       4.238   7.651   1.958  0.00  0.00    +0.073 A 
ATOM     27  C   UNL     1       4.747   8.877   1.497  0.00  0.00    +0.031 A 
ATOM     28 CL   UNL     1       4.970   3.867   1.361  0.00  0.00    -0.062 Cl
ENDBRANCH  16  23
ENDBRANCH  15  16
ENDBRANCH   1  15
BRANCH  11  29
ATOM     29  C   UNL     1      -0.729   1.579   1.267  0.00  0.00    +0.129 C 
BRANCH  29  30
ATOM     30  C   UNL     1      -0.013   1.086   0.008  0.00  0.00    +0.050 C 
BRANCH  30  31
ATOM     31  C   UNL     1      -0.753   1.593  -1.232  0.00  0.00    +0.161 C 
BRANCH  31  32
ATOM     32  O   UNL     1      -0.084   1.132  -2.407  0.00  0.00    -0.383 OA
ATOM     33  C   UNL     1      -0.698   1.552  -3.627  0.00  0.00    +0.193 C 
ENDBRANCH  31  32
ENDBRANCH  30  31
ENDBRANCH  29  30
ENDBRANCH  11  29
TORSDOF 8
