REMARK  Name = ZINC13897525
REMARK  10 active torsions:
REMARK  status: ('A' for Active; 'I' for Inactive)
REMARK    1  A    between atoms: C_1  and  C_2
REMARK    2  A    between atoms: C_2  and  O_3
REMARK    3  A    between atoms: O_3  and  C_4
REMARK    4  A    between atoms: C_6  and  C_17
REMARK    5  A    between atoms: C_9  and  O_10
REMARK    6  A    between atoms: O_10  and  C_11
REMARK    7  A    between atoms: C_11  and  C_13
REMARK    8  A    between atoms: C_11  and  C_14
REMARK    9  A    between atoms: N_24  and  C_27
REMARK   10  A    between atoms: C_30  and  C_33
REMARK                            x       y       z     vdW  Elec       q    Type
REMARK                         _______ _______ _______ _____ _____    ______ ____
ROOT
ATOM      1  C   UNL     1      -1.347   1.638   0.035  0.00  0.00    +0.026 C 
ATOM      2  C   UNL     1      -1.232   0.386  -0.537  0.00  0.00    +0.102 C 
ATOM      3  C   UNL     1       0.079  -0.278  -0.684  0.00  0.00    +0.274 C 
ATOM      4  O   UNL     1       1.099   0.263  -0.303  0.00  0.00    -0.268 OA
ATOM      5  N   UNL     1       0.112  -1.502  -1.249  0.00  0.00    -0.153 NA
ATOM      6  C   UNL     1      -1.004  -2.107  -1.679  0.00  0.00    +0.171 C 
ATOM      7  S   UNL     1      -0.862  -3.659  -2.388  0.00  0.00    -0.016 S 
ATOM      8  N   UNL     1      -2.225  -1.563  -1.583  0.00  0.00    -0.216 N 
ATOM      9  C   UNL     1      -2.414  -0.345  -1.035  0.00  0.00    +0.262 C 
ATOM     10  O   UNL     1      -3.528   0.138  -0.954  0.00  0.00    -0.269 OA
ENDROOT
BRANCH   8  11
ATOM     11  C   UNL     1      -3.331  -2.277  -2.062  0.00  0.00    +0.043 A 
ATOM     12  C   UNL     1      -3.730  -3.448  -1.431  0.00  0.00    +0.024 A 
ATOM     13  C   UNL     1      -4.824  -4.146  -1.903  0.00  0.00    +0.005 A 
ATOM     14  C   UNL     1      -5.516  -3.687  -3.009  0.00  0.00    -0.050 A 
ATOM     15  C   UNL     1      -5.118  -2.524  -3.642  0.00  0.00    +0.005 A 
ATOM     16  C   UNL     1      -4.027  -1.818  -3.172  0.00  0.00    +0.024 A 
ATOM     17  C   UNL     1      -6.706  -4.454  -3.524  0.00  0.00    +0.044 C 
ENDBRANCH   8  11
BRANCH   1  20
ATOM     18  C   UNL     1      -4.821   1.854   1.420  0.00  0.00    +0.162 A 
ATOM     19  C   UNL     1      -3.579   1.354   1.087  0.00  0.00    +0.057 A 
ATOM     20  C   UNL     1      -2.666   2.161   0.392  0.00  0.00    -0.020 A 
ATOM     21  C   UNL     1      -3.020   3.474   0.045  0.00  0.00    +0.012 A 
ATOM     22  C   UNL     1      -4.263   3.961   0.377  0.00  0.00    +0.050 A 
ATOM     23  C   UNL     1      -5.166   3.159   1.066  0.00  0.00    +0.163 A 
BRANCH  18  24
ATOM     24  O   UNL     1      -5.709   1.075   2.093  0.00  0.00    -0.489 OA
BRANCH  24  26
ATOM     25  C   UNL     1      -6.412  -0.969   3.173  0.00  0.00    +0.048 C 
ATOM     26  C   UNL     1      -5.289  -0.250   2.424  0.00  0.00    +0.226 C 
ENDBRANCH  24  26
ENDBRANCH  18  24
BRANCH  23  27
ATOM     27  O   UNL     1      -6.389   3.648   1.395  0.00  0.00    -0.474 OA
BRANCH  27  28
ATOM     28  C   UNL     1      -6.639   5.024   1.100  0.00  0.00    +0.283 C 
ATOM     29  C   UNL     1      -7.266   5.141  -0.290  0.00  0.00    +0.064 C 
BRANCH  28  30
ATOM     30  C   UNL     1      -7.582   5.595   2.127  0.00  0.00    +0.395 C 
ATOM     31  O   UNL     1      -7.998   4.895   3.020  0.00  0.00    -0.242 OA
ATOM     32  O   UNL     1      -7.961   6.880   2.050  0.00  0.00    -0.242 OA
ENDBRANCH  28  30
ENDBRANCH  27  28
ENDBRANCH  23  27
ENDBRANCH   1  20
TORSDOF 7
