REMARK  Name = ZINC41004832
REMARK  10 active torsions:
REMARK  status: ('A' for Active; 'I' for Inactive)
REMARK    1  A    between atoms: C_1  and  C_2
REMARK    2  A    between atoms: C_2  and  C_3
REMARK    3  A    between atoms: C_3  and  O_4
REMARK    4  A    between atoms: O_4  and  C_5
REMARK    5  A    between atoms: C_10  and  C_11
REMARK    6  A    between atoms: C_13  and  C_25
REMARK    7  A    between atoms: C_14  and  C_24
REMARK    8  A    between atoms: C_19  and  S_21
REMARK    9  A    between atoms: S_21  and  C_22
REMARK   10  A    between atoms: C_22  and  C_23
REMARK                            x       y       z     vdW  Elec       q    Type
REMARK                         _______ _______ _______ _____ _____    ______ ____
ROOT
ATOM      1  C   UNL     1      -1.331  -4.798   0.078  0.00  0.00    +0.181 C 
ATOM      2  C   UNL     1      -1.170  -5.613  -1.177  0.00  0.00    +0.060 C 
ATOM      3  C   UNL     1      -1.403  -6.932  -1.228  0.00  0.00    +0.018 C 
ATOM      4  N   UNL     1      -1.800  -7.648  -0.126  0.00  0.00    -0.287 N 
ATOM      5  C   UNL     1      -1.702  -7.025   1.111  0.00  0.00    +0.219 A 
ATOM      6  N   UNL     1      -1.478  -5.692   1.223  0.00  0.00    -0.220 N 
ATOM      7  N   UNL     1      -1.429  -5.409   2.587  0.00  0.00    -0.141 NA
ATOM      8  C   UNL     1      -1.625  -6.547   3.217  0.00  0.00    +0.210 A 
ATOM      9  N   UNL     1      -1.792  -7.524   2.313  0.00  0.00    -0.187 NA
ATOM     10  C   UNL     1      -1.223  -7.654  -2.539  0.00  0.00    +0.061 C 
ATOM     11  H   UNL     1      -2.136  -8.555  -0.208  0.00  0.00    +0.155 HD
ENDROOT
BRANCH   1  17
ATOM     12  C   UNL     1      -2.440  -2.549   0.034  0.00  0.00    +0.126 A 
ATOM     13  C   UNL     1      -3.569  -1.752  -0.083  0.00  0.00    +0.047 A 
ATOM     14  C   UNL     1      -4.808  -2.333  -0.268  0.00  0.00    +0.019 A 
ATOM     15  C   UNL     1      -4.924  -3.710  -0.337  0.00  0.00    +0.018 A 
ATOM     16  C   UNL     1      -3.799  -4.507  -0.221  0.00  0.00    +0.025 A 
ATOM     17  C   UNL     1      -2.557  -3.929  -0.042  0.00  0.00    +0.024 A 
ATOM     18 BR   UNL     1      -6.622  -4.504  -0.591  0.00  0.00    -0.050 Br
BRANCH  12  19
ATOM     19  O   UNL     1      -1.220  -1.979   0.216  0.00  0.00    -0.492 OA
BRANCH  19  20
ATOM     20  C   UNL     1      -1.174  -0.552   0.284  0.00  0.00    +0.229 C 
BRANCH  20  22
ATOM     21  C   UNL     1       0.321   1.430   0.564  0.00  0.00    +0.007 C 
ATOM     22  C   UNL     1       0.272  -0.097   0.490  0.00  0.00    +0.038 C 
ENDBRANCH  20  22
ENDBRANCH  19  20
ENDBRANCH  12  19
ENDBRANCH   1  17
BRANCH   2  23
ATOM     23  C   UNL     1      -0.753  -4.956  -2.359  0.00  0.00    +0.241 C 
ATOM     24  O   UNL     1       0.428  -4.715  -2.538  0.00  0.00    -0.271 OA
ATOM     25  N   UNL     1      -1.662  -4.597  -3.287  0.00  0.00    -0.325 N 
ATOM     26  H   UNL     1      -2.602  -4.789  -3.145  0.00  0.00    +0.145 HD
ATOM     27  H   UNL     1      -1.376  -4.146  -4.097  0.00  0.00    +0.145 HD
ENDBRANCH   2  23
BRANCH   8  28
ATOM     28  S   UNL     1      -1.663  -6.755   4.967  0.00  0.00    -0.085 S 
BRANCH  28  29
ATOM     29  C   UNL     1      -1.968  -8.529   5.191  0.00  0.00    +0.074 C 
ATOM     30  C   UNL     1      -2.025  -8.851   6.686  0.00  0.00    +0.016 C 
ENDBRANCH  28  29
ENDBRANCH   8  28
TORSDOF 7
