REMARK  Name = ZINC35987747
REMARK  9 active torsions:
REMARK  status: ('A' for Active; 'I' for Inactive)
REMARK    1  A    between atoms: C_1  and  C_2
REMARK    2  A    between atoms: C_5  and  C_8
REMARK    3  A    between atoms: C_11  and  C_30
REMARK    4  A    between atoms: C_21  and  C_23
REMARK    5  A    between atoms: N_32  and  C_33
REMARK    6  A    between atoms: C_33  and  C_34
REMARK    7  A    between atoms: C_34  and  N_35
REMARK    8  A    between atoms: N_35  and  C_36
REMARK    9  A    between atoms: N_35  and  C_37
REMARK                            x       y       z     vdW  Elec       q    Type
REMARK                         _______ _______ _______ _____ _____    ______ ____
ROOT
ATOM      1  C   UNL     1       0.839  -3.311  -0.219  0.00  0.00    +0.249 C 
ATOM      2  O   UNL     1       1.052  -3.795  -1.314  0.00  0.00    -0.270 OA
ATOM      3  N   UNL     1       0.541  -4.109   0.825  0.00  0.00    -0.255 N 
ATOM      4  C   UNL     1       0.182  -3.685   2.196  0.00  0.00    +0.190 C 
ATOM      5  C   UNL     1      -0.561  -4.925   2.754  0.00  0.00    +0.194 C 
ATOM      6  O   UNL     1       0.172  -6.020   2.157  0.00  0.00    -0.353 OA
ATOM      7  C   UNL     1       0.502  -5.580   0.830  0.00  0.00    +0.142 C 
ATOM      8  C   UNL     1      -0.561  -6.069  -0.154  0.00  0.00    +0.074 C 
ATOM      9  C   UNL     1      -0.218  -5.571  -1.562  0.00  0.00    +0.112 C 
ATOM     10  N   UNL     1       1.152  -5.988  -1.890  0.00  0.00    -0.297 N 
ATOM     11  C   UNL     1       2.238  -5.635  -0.965  0.00  0.00    +0.112 C 
ATOM     12  C   UNL     1       1.873  -6.133   0.437  0.00  0.00    +0.074 C 
ATOM     13  C   UNL     1       1.408  -6.680  -3.018  0.00  0.00    +0.249 C 
ATOM     14  O   UNL     1       2.556  -6.934  -3.328  0.00  0.00    -0.270 OA
ENDROOT
BRANCH   1  19
ATOM     15  C   UNL     1       1.097   2.393   0.505  0.00  0.00    +0.044 C 
ATOM     16  C   UNL     1       1.029   0.899   0.315  0.00  0.00    -0.050 A 
ATOM     17  C   UNL     1       0.983   0.368  -0.962  0.00  0.00    +0.004 A 
ATOM     18  C   UNL     1       0.921  -0.998  -1.142  0.00  0.00    +0.013 A 
ATOM     19  C   UNL     1       0.905  -1.845  -0.033  0.00  0.00    +0.037 A 
ATOM     20  C   UNL     1       0.953  -1.303   1.252  0.00  0.00    +0.013 A 
ATOM     21  C   UNL     1       1.020   0.064   1.419  0.00  0.00    +0.004 A 
ENDBRANCH   1  19
BRANCH  13  22
ATOM     22  C   UNL     1       0.294  -7.130  -3.877  0.00  0.00    +0.072 A 
ATOM     23  C   UNL     1      -0.614  -6.202  -4.391  0.00  0.00    +0.016 A 
ATOM     24  C   UNL     1      -1.651  -6.629  -5.193  0.00  0.00    +0.001 A 
ATOM     25  C   UNL     1      -1.795  -7.973  -5.489  0.00  0.00    +0.003 A 
ATOM     26  C   UNL     1      -0.902  -8.899  -4.985  0.00  0.00    +0.039 A 
ATOM     27  C   UNL     1       0.148  -8.486  -4.184  0.00  0.00    +0.135 A 
ATOM     28  F   UNL     1       1.024  -9.390  -3.696  0.00  0.00    -0.205 F 
ENDBRANCH  13  22
BRANCH   4  29
ATOM     29  C   UNL     1      -0.727  -2.483   2.162  0.00  0.00    +0.236 C 
ATOM     30  O   UNL     1      -1.409  -2.266   1.183  0.00  0.00    -0.274 OA
ATOM     31  N   UNL     1      -0.783  -1.651   3.220  0.00  0.00    -0.315 N 
ATOM     32  H   UNL     1      -0.238  -1.824   4.003  0.00  0.00    +0.149 HD
BRANCH  31  33
ATOM     33  C   UNL     1      -1.667  -0.482   3.187  0.00  0.00    +0.085 C 
BRANCH  33  34
ATOM     34  C   UNL     1      -1.541   0.290   4.502  0.00  0.00    -0.061 C 
BRANCH  34  35
ATOM     35  N   UNL     1      -2.427   1.461   4.469  0.00  0.00    +0.377 N 
ATOM     36  C   UNL     1      -2.397   2.135   5.774  0.00  0.00    -0.097 C 
ATOM     37  C   UNL     1      -1.971   2.390   3.427  0.00  0.00    -0.097 C 
ATOM     38  H   UNL     1      -3.370   1.164   4.265  0.00  0.00    -0.083 HD
ENDBRANCH  34  35
ENDBRANCH  33  34
ENDBRANCH  31  33
ENDBRANCH   4  29
TORSDOF 6
