REMARK  Name = ZINC13515954
REMARK  9 active torsions:
REMARK  status: ('A' for Active; 'I' for Inactive)
REMARK    1  A    between atoms: C_1  and  C_2
REMARK    2  A    between atoms: C_2  and  C_3
REMARK    3  A    between atoms: C_3  and  C_4
REMARK    4  A    between atoms: N_15  and  C_18
REMARK    5  A    between atoms: C_20  and  O_32
REMARK    6  A    between atoms: O_32  and  C_33
REMARK    7  A    between atoms: C_33  and  C_35
REMARK    8  A    between atoms: C_35  and  C_36
REMARK    9  A    between atoms: C_36  and  C_37
REMARK                            x       y       z     vdW  Elec       q    Type
REMARK                         _______ _______ _______ _____ _____    ______ ____
ROOT
ATOM      1  C   UNL     1       1.066   1.649  -0.055  0.00  0.00    +0.219 C 
ATOM      2  O   UNL     1       1.034   2.859  -0.127  0.00  0.00    -0.275 OA
ATOM      3  N   UNL     1      -0.081   0.942  -0.077  0.00  0.00    -0.256 N 
ATOM      4  C   UNL     1      -1.295   1.596  -0.082  0.00  0.00    +0.204 A 
ATOM      5  N   UNL     1      -2.441   0.865   0.010  0.00  0.00    -0.293 N 
ATOM      6  H   UNL     1      -2.391  -0.132   0.076  0.00  0.00    +0.172 HD
ATOM      7  C   UNL     1      -3.644   1.480   0.013  0.00  0.00    +0.280 A 
ATOM      8  O   UNL     1      -4.675   0.835   0.100  0.00  0.00    -0.265 OA
ATOM      9  C   UNL     1      -3.678   2.891  -0.092  0.00  0.00    +0.172 A 
ATOM     10  C   UNL     1      -2.466   3.583  -0.189  0.00  0.00    +0.171 A 
ATOM     11  N   UNL     1      -1.312   2.905  -0.180  0.00  0.00    -0.196 NA
ATOM     12  N   UNL     1      -2.793   4.909  -0.277  0.00  0.00    -0.284 N 
ATOM     13  C   UNL     1      -4.153   5.000  -0.234  0.00  0.00    +0.204 A 
ATOM     14  N   UNL     1      -4.671   3.811  -0.125  0.00  0.00    -0.229 NA
ATOM     15  H   UNL     1      -0.108   0.377  -0.902  0.00  0.00    +0.158 HD
ENDROOT
BRANCH  12  16
ATOM     16  C   UNL     1      -1.853   6.027  -0.396  0.00  0.00    +0.266 C 
ATOM     17  C   UNL     1      -1.548   6.304  -1.890  0.00  0.00    +0.258 C 
ATOM     18  C   UNL     1      -2.062   7.740  -2.090  0.00  0.00    +0.206 C 
ATOM     19  C   UNL     1      -1.944   8.299  -0.646  0.00  0.00    +0.180 C 
ATOM     20  O   UNL     1      -2.446   7.230   0.152  0.00  0.00    -0.344 OA
ATOM     21  C   UNL     1      -2.690   9.616  -0.564  0.00  0.00    +0.206 C 
ATOM     22  O   UNL     1      -1.996  10.559  -1.386  0.00  0.00    -0.282 OA
ATOM     23  P   UNL     1      -1.579  10.169  -2.906  0.00  0.00    +0.505 P 
ATOM     24  O   UNL     1      -2.703  10.447  -3.828  0.00  0.00    -0.225 OA
ATOM     25  O   UNL     1      -1.236   8.574  -2.909  0.00  0.00    -0.275 OA
ATOM     26  O   UNL     1      -0.281  11.011  -3.354  0.00  0.00    -0.116 OA
BRANCH  17  27
ATOM     27  O   UNL     1      -0.121   6.227  -2.144  0.00  0.00    -0.454 OA
BRANCH  27  28
ATOM     28  C   UNL     1       0.351   5.066  -2.624  0.00  0.00    +0.308 C 
ATOM     29  O   UNL     1      -0.413   4.172  -2.902  0.00  0.00    -0.251 OA
BRANCH  28  30
ATOM     30  C   UNL     1       1.834   4.877  -2.817  0.00  0.00    +0.120 C 
BRANCH  30  31
ATOM     31  C   UNL     1       2.092   3.530  -3.495  0.00  0.00    +0.008 C 
ATOM     32  C   UNL     1       3.600   3.287  -3.589  0.00  0.00    +0.004 C 
ENDBRANCH  30  31
ENDBRANCH  28  30
ENDBRANCH  27  28
ENDBRANCH  17  27
ENDBRANCH  12  16
BRANCH   1  33
ATOM     33  C   UNL     1       2.389   0.936   0.059  0.00  0.00    +0.096 C 
BRANCH  33  35
ATOM     34  C   UNL     1       4.840   1.242   0.436  0.00  0.00    +0.004 C 
ATOM     35  C   UNL     1       3.513   1.965   0.197  0.00  0.00    +0.006 C 
ENDBRANCH  33  35
ENDBRANCH   1  33
TORSDOF 7
