REMARK  Name = ZINC40019650
REMARK  15 active torsions:
REMARK  status: ('A' for Active; 'I' for Inactive)
REMARK    1  A    between atoms: C_1  and  C_2
REMARK    2  A    between atoms: C_2  and  C_3
REMARK    3  A    between atoms: C_3  and  C_4
REMARK    4  A    between atoms: C_4  and  N_5
REMARK    5  A    between atoms: N_5  and  C_6
REMARK    6  A    between atoms: N_5  and  C_10
REMARK    7  A    between atoms: C_6  and  C_7
REMARK    8  A    between atoms: C_7  and  C_8
REMARK    9  A    between atoms: C_8  and  C_9
REMARK   10  A    between atoms: C_10  and  C_11
REMARK   11  A    between atoms: C_11  and  C_12
REMARK   12  A    between atoms: C_12  and  N_13
REMARK   13  A    between atoms: C_14  and  C_33
REMARK   14  A    between atoms: C_16  and  C_21
REMARK   15  A    between atoms: C_21  and  C_23
REMARK                            x       y       z     vdW  Elec       q    Type
REMARK                         _______ _______ _______ _____ _____    ______ ____
ROOT
ATOM      1  N   UNL     1       4.558  -6.368  -0.426  0.00  0.00    -0.284 N 
ATOM      2  C   UNL     1       4.340  -6.636  -1.853  0.00  0.00    +0.145 C 
ATOM      3  C   UNL     1       5.688  -7.010  -2.423  0.00  0.00    +0.076 C 
ATOM      4  C   UNL     1       6.573  -6.954  -1.401  0.00  0.00    +0.249 C 
ATOM      5  C   UNL     1       5.866  -6.550  -0.168  0.00  0.00    +0.288 C 
ATOM      6  O   UNL     1       6.388  -6.406   0.920  0.00  0.00    -0.266 OA
ATOM      7  O   UNL     1       7.896  -7.220  -1.494  0.00  0.00    -0.282 OA
ENDROOT
BRANCH   2   8
ATOM      8  C   UNL     1       3.811  -5.401  -2.536  0.00  0.00    -0.022 A 
ATOM      9  C   UNL     1       4.452  -4.188  -2.364  0.00  0.00    +0.008 A 
ATOM     10  C   UNL     1       3.969  -3.055  -2.990  0.00  0.00    +0.038 A 
ATOM     11  C   UNL     1       2.842  -3.135  -3.791  0.00  0.00    +0.123 A 
ATOM     12  C   UNL     1       2.201  -4.350  -3.963  0.00  0.00    +0.038 A 
ATOM     13  C   UNL     1       2.689  -5.483  -3.340  0.00  0.00    +0.008 A 
ATOM     14  F   UNL     1       2.368  -2.028  -4.404  0.00  0.00    -0.205 F 
ENDBRANCH   2   8
BRANCH   3  15
ATOM     15  C   UNL     1       5.981  -7.365  -3.815  0.00  0.00    +0.195 C 
ATOM     16  O   UNL     1       6.682  -6.638  -4.494  0.00  0.00    -0.287 OA
BRANCH  15  17
ATOM     17  C   UNL     1       5.425  -8.605  -4.393  0.00  0.00    +0.026 A 
ATOM     18  C   UNL     1       4.652  -9.461  -3.603  0.00  0.00    +0.015 A 
ATOM     19  C   UNL     1       4.136 -10.617  -4.145  0.00  0.00    +0.050 A 
ATOM     20  C   UNL     1       4.380 -10.937  -5.476  0.00  0.00    +0.162 A 
ATOM     21  C   UNL     1       5.147 -10.087  -6.269  0.00  0.00    +0.163 A 
ATOM     22  C   UNL     1       5.666  -8.923  -5.732  0.00  0.00    +0.061 A 
ATOM     23  O   UNL     1       5.389 -10.383  -7.575  0.00  0.00    -0.485 OA
ATOM     24  C   UNL     1       5.162 -11.737  -7.981  0.00  0.00    +0.270 C 
ATOM     25  C   UNL     1       3.808 -12.187  -7.415  0.00  0.00    +0.270 C 
ATOM     26  O   UNL     1       3.863 -12.086  -5.988  0.00  0.00    -0.485 OA
ENDBRANCH  15  17
ENDBRANCH   3  15
BRANCH   1  27
ATOM     27  C   UNL     1       3.535  -5.969   0.543  0.00  0.00    +0.107 C 
BRANCH  27  28
ATOM     28  C   UNL     1       3.432  -4.442   0.576  0.00  0.00    +0.000 C 
BRANCH  28  29
ATOM     29  C   UNL     1       2.364  -4.025   1.588  0.00  0.00    -0.077 C 
BRANCH  29  30
ATOM     30  N   UNL     1       2.265  -2.560   1.619  0.00  0.00    +0.380 N 
ATOM     31  H   UNL     1       3.174  -2.165   1.808  0.00  0.00    -0.082 HD
BRANCH  30  32
ATOM     32  C   UNL     1       1.781  -2.074   0.320  0.00  0.00    -0.079 C 
BRANCH  32  33
ATOM     33  C   UNL     1       1.811  -0.544   0.304  0.00  0.00    -0.019 C 
BRANCH  33  35
ATOM     34  C   UNL     1       1.464   1.489  -1.106  0.00  0.00    +0.004 C 
ATOM     35  C   UNL     1       1.433  -0.041  -1.090  0.00  0.00    -0.005 C 
ENDBRANCH  33  35
ENDBRANCH  32  33
ENDBRANCH  30  32
BRANCH  30  36
ATOM     36  C   UNL     1       1.326  -2.155   2.674  0.00  0.00    -0.079 C 
BRANCH  36  37
ATOM     37  C   UNL     1       1.900  -2.534   4.041  0.00  0.00    -0.019 C 
BRANCH  37  38
ATOM     38  C   UNL     1       0.987  -1.998   5.144  0.00  0.00    -0.005 C 
ATOM     39  C   UNL     1       1.561  -2.377   6.511  0.00  0.00    +0.004 C 
ENDBRANCH  37  38
ENDBRANCH  36  37
ENDBRANCH  30  36
ENDBRANCH  29  30
ENDBRANCH  28  29
ENDBRANCH  27  28
ENDBRANCH   1  27
TORSDOF 13
