REMARK  Name = ZINC38610667
REMARK  5 active torsions:
REMARK  status: ('A' for Active; 'I' for Inactive)
REMARK    1  A    between atoms: C_1  and  O_2
REMARK    2  A    between atoms: O_2  and  C_3
REMARK    3  A    between atoms: C_3  and  C_5
REMARK    4  A    between atoms: C_7  and  N_15
REMARK    5  A    between atoms: C_16  and  C_18
REMARK                            x       y       z     vdW  Elec       q    Type
REMARK                         _______ _______ _______ _____ _____    ______ ____
ROOT
ATOM      1  N   UNL     1      -2.039  -2.488  -1.235  0.00  0.00    -0.286 N 
ATOM      2  C   UNL     1      -3.048  -3.141  -1.846  0.00  0.00    +0.223 C 
ATOM      3  O   UNL     1      -2.810  -3.921  -2.743  0.00  0.00    -0.275 OA
ATOM      4  H   UNL     1      -2.220  -1.928  -0.464  0.00  0.00    +0.155 HD
ENDROOT
BRANCH   2   5
ATOM      5  C   UNL     1      -4.472  -2.901  -1.414  0.00  0.00    +0.049 C 
ATOM      6  C   UNL     1      -4.820  -1.423  -1.603  0.00  0.00    +0.019 C 
ATOM      7  C   UNL     1      -6.265  -1.180  -1.164  0.00  0.00    -0.008 C 
ATOM      8  C   UNL     1      -7.207  -2.038  -2.011  0.00  0.00    +0.007 C 
ATOM      9  C   UNL     1      -6.859  -3.516  -1.822  0.00  0.00    -0.008 C 
ATOM     10  C   UNL     1      -5.413  -3.759  -2.261  0.00  0.00    +0.019 C 
ATOM     11  C   UNL     1      -7.014  -3.892  -0.347  0.00  0.00    +0.021 C 
ATOM     12  C   UNL     1      -6.073  -3.033   0.500  0.00  0.00    +0.028 C 
ATOM     13  C   UNL     1      -6.421  -1.555   0.311  0.00  0.00    +0.021 C 
ATOM     14  C   UNL     1      -4.627  -3.277   0.061  0.00  0.00    +0.034 C 
ATOM     15 BR   UNL     1      -6.272  -3.516   2.395  0.00  0.00    -0.084 Br
ENDBRANCH   2   5
BRANCH   1  17
ATOM     16  C   UNL     1      -0.280  -3.545  -2.790  0.00  0.00    +0.234 C 
ATOM     17  C   UNL     1      -0.766  -2.614  -1.701  0.00  0.00    +0.053 C 
ATOM     18  C   UNL     1       0.352  -1.917  -1.276  0.00  0.00    +0.018 A 
ATOM     19  C   UNL     1       0.537  -0.917  -0.292  0.00  0.00    +0.011 A 
ATOM     20  C   UNL     1       1.773  -0.400  -0.083  0.00  0.00    +0.001 A 
ATOM     21  C   UNL     1       2.881  -0.830  -0.819  0.00  0.00    +0.002 A 
ATOM     22  C   UNL     1       2.779  -1.783  -1.776  0.00  0.00    +0.026 A 
ATOM     23  C   UNL     1       1.518  -2.373  -2.054  0.00  0.00    +0.045 A 
ATOM     24  N   UNL     1       1.160  -3.301  -2.919  0.00  0.00    -0.367 N 
ATOM     25  H   UNL     1       1.754  -3.751  -3.541  0.00  0.00    +0.161 HD
BRANCH  16  26
ATOM     26  C   UNL     1      -0.531  -4.978  -2.398  0.00  0.00    +0.335 C 
ATOM     27  O   UNL     1       0.172  -5.510  -1.571  0.00  0.00    -0.248 OA
BRANCH  26  29
ATOM     28  C   UNL     1      -1.715  -7.018  -2.548  0.00  0.00    +0.280 C 
ATOM     29  O   UNL     1      -1.534  -5.664  -2.967  0.00  0.00    -0.466 OA
ENDBRANCH  26  29
ENDBRANCH  16  26
ENDBRANCH   1  17
TORSDOF 4
