REMARK  Name = ZINC24370110
REMARK  6 active torsions:
REMARK  status: ('A' for Active; 'I' for Inactive)
REMARK    1  A    between atoms: C_1  and  S_2
REMARK    2  A    between atoms: S_2  and  N_5
REMARK    3  A    between atoms: C_11  and  C_13
REMARK    4  A    between atoms: C_13  and  O_14
REMARK    5  A    between atoms: O_14  and  C_15
REMARK    6  A    between atoms: C_18  and  C_21
REMARK                            x       y       z     vdW  Elec       q    Type
REMARK                         _______ _______ _______ _____ _____    ______ ____
ROOT
ATOM      1  O   UNL     1       0.058  -4.133  -0.022  0.00  0.00    -0.483 OA
ENDROOT
BRANCH   1   2
ATOM      2  C   UNL     1       0.040  -2.774  -0.014  0.00  0.00    +0.121 A 
ATOM      3  C   UNL     1      -1.173  -2.098   0.002  0.00  0.00    +0.046 A 
ATOM      4  C   UNL     1      -1.195  -0.719   0.010  0.00  0.00    +0.012 A 
ATOM      5  C   UNL     1       0.002  -0.004   0.002  0.00  0.00    -0.018 A 
ATOM      6  C   UNL     1       1.218  -0.686  -0.019  0.00  0.00    +0.012 A 
ATOM      7  C   UNL     1       1.233  -2.065  -0.021  0.00  0.00    +0.046 A 
BRANCH   5   8
ATOM      8  C   UNL     1      -0.018   1.479   0.010  0.00  0.00    -0.018 A 
ATOM      9  C   UNL     1      -1.233   2.162   0.020  0.00  0.00    +0.009 A 
ATOM     10  C   UNL     1      -1.246   3.542   0.032  0.00  0.00    +0.016 A 
ATOM     11  C   UNL     1      -0.056   4.248   0.025  0.00  0.00    +0.018 A 
ATOM     12  C   UNL     1       1.154   3.575   0.010  0.00  0.00    +0.016 A 
ATOM     13  C   UNL     1       1.178   2.195   0.003  0.00  0.00    +0.009 A 
ATOM     14 BR   UNL     1      -0.081   6.139   0.035  0.00  0.00    -0.050 Br
ENDBRANCH   5   8
ENDBRANCH   1   2
BRANCH   1  15
ATOM     15  C   UNL     1       1.340  -4.764  -0.037  0.00  0.00    +0.324 C 
BRANCH  15  22
ATOM     16  N   UNL     1       4.224  -8.545   1.107  0.00  0.00    -0.178 NA
ATOM     17  C   UNL     1       2.868  -9.111   1.117  0.00  0.00    +0.128 C 
ATOM     18  C   UNL     1       2.085  -8.528  -0.066  0.00  0.00    +0.125 C 
ATOM     19  N   UNL     1       2.243  -7.067  -0.059  0.00  0.00    -0.296 N 
ATOM     20  C   UNL     1       3.599  -6.501  -0.075  0.00  0.00    +0.125 C 
ATOM     21  C   UNL     1       4.382  -7.084   1.114  0.00  0.00    +0.128 C 
ATOM     22  C   UNL     1       1.163  -6.260  -0.044  0.00  0.00    +0.253 C 
ATOM     23  O   UNL     1       0.049  -6.739  -0.036  0.00  0.00    -0.272 OA
BRANCH  16  25
ATOM     24  C   UNL     1       5.908  -9.805  -0.669  0.00  0.00    +0.215 C 
ATOM     25  S   UNL     1       5.551  -9.536   1.089  0.00  0.00    +0.029 S 
ATOM     26  O   UNL     1       6.586  -8.767   1.686  0.00  0.00    -0.158 OA
ATOM     27  O   UNL     1       5.109 -10.745   1.690  0.00  0.00    -0.158 OA
ENDBRANCH  16  25
ENDBRANCH  15  22
ENDBRANCH   1  15
TORSDOF 5
