REMARK  Name = ZINC34830140
REMARK  5 active torsions:
REMARK  status: ('A' for Active; 'I' for Inactive)
REMARK    1  A    between atoms: C_1  and  C_2
REMARK    2  A    between atoms: C_2  and  C_4
REMARK    3  A    between atoms: C_2  and  N_24
REMARK    4  A    between atoms: C_12  and  C_14
REMARK    5  A    between atoms: C_32  and  C_34
REMARK                            x       y       z     vdW  Elec       q    Type
REMARK                         _______ _______ _______ _____ _____    ______ ____
ROOT
ATOM      1  C   UNL     1       1.186  -0.794  -2.213  0.00  0.00    +0.202 C 
ATOM      2  O   UNL     1       2.211  -1.410  -2.414  0.00  0.00    -0.277 OA
ATOM      3  N   UNL     1       0.522  -0.234  -3.244  0.00  0.00    -0.300 N 
ATOM      4  C   UNL     1      -0.775   0.423  -3.030  0.00  0.00    +0.126 C 
ATOM      5  C   UNL     1      -0.690   1.859  -3.564  0.00  0.00    +0.127 C 
ATOM      6  N   UNL     1      -0.130   1.822  -4.923  0.00  0.00    -0.295 N 
ATOM      7  C   UNL     1       1.167   1.164  -5.136  0.00  0.00    +0.127 C 
ATOM      8  C   UNL     1       1.085  -0.266  -4.601  0.00  0.00    +0.126 C 
ATOM      9  C   UNL     1      -0.793   2.381  -5.954  0.00  0.00    +0.247 C 
ATOM     10  O   UNL     1      -0.378   2.246  -7.088  0.00  0.00    -0.270 OA
ENDROOT
BRANCH   9  11
ATOM     11  C   UNL     1      -2.025   3.159  -5.705  0.00  0.00    +0.037 A 
ATOM     12  C   UNL     1      -2.116   3.975  -4.564  0.00  0.00    +0.013 A 
ATOM     13  C   UNL     1      -3.237   4.698  -4.314  0.00  0.00    +0.009 A 
ATOM     14  C   UNL     1      -4.327   4.638  -5.201  0.00  0.00    -0.018 A 
ATOM     15  C   UNL     1      -5.498   5.377  -4.964  0.00  0.00    +0.008 A 
ATOM     16  C   UNL     1      -6.536   5.298  -5.841  0.00  0.00    +0.001 A 
ATOM     17  C   UNL     1      -6.457   4.493  -6.975  0.00  0.00    +0.001 A 
ATOM     18  C   UNL     1      -5.340   3.762  -7.239  0.00  0.00    +0.008 A 
ATOM     19  C   UNL     1      -4.247   3.818  -6.356  0.00  0.00    -0.017 A 
ATOM     20  C   UNL     1      -3.078   3.082  -6.601  0.00  0.00    +0.021 A 
ENDBRANCH   9  11
BRANCH   1  22
ATOM     21  C   UNL     1       0.915   0.767  -0.305  0.00  0.00    -0.004 C 
ATOM     22  C   UNL     1       0.654  -0.653  -0.809  0.00  0.00    +0.018 C 
BRANCH  22  23
ATOM     23  N   UNL     1       1.330  -1.617   0.069  0.00  0.00    +0.395 N 
ATOM     24  C   UNL     1       2.751  -1.260   0.175  0.00  0.00    -0.071 C 
ATOM     25  C   UNL     1       3.513  -2.437   0.810  0.00  0.00    +0.024 C 
ATOM     26  C   UNL     1       2.739  -2.879   2.009  0.00  0.00    -0.010 A 
ATOM     27  C   UNL     1       1.460  -2.529   2.321  0.00  0.00    -0.047 A 
ATOM     28  C   UNL     1       0.939  -3.060   3.499  0.00  0.00    +0.010 A 
ATOM     29  C   UNL     1       1.697  -3.881   4.264  0.00  0.00    +0.045 A 
ATOM     30  S   UNL     1       3.223  -3.947   3.336  0.00  0.00    -0.101 S 
ATOM     31  C   UNL     1       0.687  -1.601   1.389  0.00  0.00    -0.005 C 
ATOM     32  H   UNL     1       1.249  -2.542  -0.328  0.00  0.00    -0.079 HD
BRANCH  31  33
ATOM     33  C   UNL     1      -0.736  -2.081   1.264  0.00  0.00    -0.057 A 
ATOM     34  C   UNL     1      -1.022  -3.208   0.517  0.00  0.00    +0.002 A 
ATOM     35  C   UNL     1      -2.328  -3.648   0.403  0.00  0.00    +0.000 A 
ATOM     36  C   UNL     1      -3.347  -2.961   1.036  0.00  0.00    +0.000 A 
ATOM     37  C   UNL     1      -3.060  -1.834   1.783  0.00  0.00    +0.000 A 
ATOM     38  C   UNL     1      -1.754  -1.396   1.901  0.00  0.00    +0.002 A 
ENDBRANCH  31  33
ENDBRANCH  22  23
ENDBRANCH   1  22
TORSDOF 4
