REMARK  Name = ZINC63908222
REMARK  8 active torsions:
REMARK  status: ('A' for Active; 'I' for Inactive)
REMARK    1  A    between atoms: C_4  and  C_7
REMARK    2  A    between atoms: C_7  and  N_8
REMARK    3  A    between atoms: C_9  and  N_38
REMARK    4  A    between atoms: C_11  and  N_18
REMARK    5  A    between atoms: N_18  and  C_19
REMARK    6  A    between atoms: C_19  and  C_20
REMARK    7  A    between atoms: C_26  and  C_28
REMARK    8  A    between atoms: C_28  and  C_29
REMARK                            x       y       z     vdW  Elec       q    Type
REMARK                         _______ _______ _______ _____ _____    ______ ____
ROOT
ATOM      1  N   UNL     1       7.002  -1.289   2.087  0.00  0.00    -0.282 N 
ATOM      2  C   UNL     1       6.766  -2.222   1.144  0.00  0.00    +0.221 C 
ATOM      3  O   UNL     1       5.628  -2.569   0.905  0.00  0.00    -0.275 OA
ENDROOT
BRANCH   1   6
ATOM      4  N   UNL     1       4.430  -0.140   1.052  0.00  0.00    -0.262 N 
ATOM      5  C   UNL     1       5.223   0.389   2.165  0.00  0.00    +0.173 C 
ATOM      6  C   UNL     1       5.897  -0.773   2.899  0.00  0.00    +0.199 C 
ATOM      7  C   UNL     1       4.887  -1.867   3.131  0.00  0.00    +0.264 C 
ATOM      8  O   UNL     1       4.972  -2.630   4.233  0.00  0.00    -0.271 OA
ATOM      9  N   UNL     1       3.932  -2.079   2.270  0.00  0.00    -0.126 NA
ATOM     10  C   UNL     1       3.785  -1.313   1.176  0.00  0.00    +0.330 C 
ATOM     11  O   UNL     1       3.057  -1.690   0.276  0.00  0.00    -0.250 OA
BRANCH   5  12
ATOM     12  N   UNL     1       4.344   1.114   3.093  0.00  0.00    -0.311 NA
ATOM     13  H   UNL     1       3.884   1.883   2.629  0.00  0.00    +0.120 HD
ATOM     14  H   UNL     1       3.671   0.491   3.514  0.00  0.00    +0.120 HD
ENDBRANCH   5  12
BRANCH   4  15
ATOM     15  C   UNL     1       4.335   0.616  -0.200  0.00  0.00    +0.146 C 
BRANCH  15  19
ATOM     16  C   UNL     1       1.003   3.282  -0.006  0.00  0.00    +0.000 A 
ATOM     17  C   UNL     1       2.248   3.700   0.423  0.00  0.00    +0.000 A 
ATOM     18  C   UNL     1       3.326   2.837   0.361  0.00  0.00    +0.005 A 
ATOM     19  C   UNL     1       3.159   1.556  -0.131  0.00  0.00    -0.030 A 
ATOM     20  C   UNL     1       1.913   1.137  -0.559  0.00  0.00    +0.005 A 
ATOM     21  C   UNL     1       0.835   2.001  -0.498  0.00  0.00    +0.000 A 
ENDBRANCH  15  19
ENDBRANCH   4  15
ENDBRANCH   1   6
BRANCH   1  22
ATOM     22  C   UNL     1       8.363  -0.791   2.301  0.00  0.00    +0.143 C 
BRANCH  22  23
ATOM     23  C   UNL     1       8.556   0.489   1.529  0.00  0.00    -0.030 A 
ATOM     24  C   UNL     1       9.128   0.457   0.271  0.00  0.00    +0.005 A 
ATOM     25  C   UNL     1       9.306   1.631  -0.438  0.00  0.00    +0.000 A 
ATOM     26  C   UNL     1       8.910   2.836   0.112  0.00  0.00    +0.000 A 
ATOM     27  C   UNL     1       8.337   2.868   1.369  0.00  0.00    +0.000 A 
ATOM     28  C   UNL     1       8.156   1.694   2.076  0.00  0.00    +0.005 A 
ENDBRANCH  22  23
ENDBRANCH   1  22
BRANCH   2  29
ATOM     29  C   UNL     1       7.915  -2.835   0.386  0.00  0.00    +0.129 C 
BRANCH  29  30
ATOM     30  C   UNL     1       7.381  -3.765  -0.672  0.00  0.00    -0.033 C 
ATOM     31  C   UNL     1       7.156  -3.474  -1.973  0.00  0.00    -0.001 A 
ATOM     32  C   UNL     1       7.335  -2.250  -2.763  0.00  0.00    +0.010 A 
ATOM     33  C   UNL     1       7.015  -2.264  -4.077  0.00  0.00    +0.001 A 
ATOM     34  C   UNL     1       6.518  -3.416  -4.702  0.00  0.00    +0.002 A 
ATOM     35  C   UNL     1       6.326  -4.578  -4.042  0.00  0.00    +0.026 A 
ATOM     36  C   UNL     1       6.630  -4.677  -2.656  0.00  0.00    +0.043 A 
ATOM     37  N   UNL     1       6.532  -5.673  -1.810  0.00  0.00    -0.380 N 
ATOM     38  C   UNL     1       6.992  -5.216  -0.494  0.00  0.00    +0.145 C 
ATOM     39  H   UNL     1       6.213  -6.565  -2.020  0.00  0.00    +0.160 HD
ENDBRANCH  29  30
ENDBRANCH   2  29
TORSDOF 8
