REMARK  Name = ZINC38707577
REMARK  13 active torsions:
REMARK  status: ('A' for Active; 'I' for Inactive)
REMARK    1  A    between atoms: C_1  and  C_2
REMARK    2  A    between atoms: C_2  and  C_3
REMARK    3  A    between atoms: C_2  and  C_4
REMARK    4  A    between atoms: C_4  and  C_5
REMARK    5  A    between atoms: C_5  and  N_6
REMARK    6  A    between atoms: C_10  and  N_20
REMARK    7  A    between atoms: C_15  and  C_18
REMARK    8  A    between atoms: C_15  and  C_19
REMARK    9  A    between atoms: C_21  and  C_23
REMARK   10  A    between atoms: C_26  and  S_29
REMARK   11  A    between atoms: S_29  and  N_32
REMARK   12  A    between atoms: N_32  and  C_33
REMARK   13  A    between atoms: N_32  and  C_34
REMARK                            x       y       z     vdW  Elec       q    Type
REMARK                         _______ _______ _______ _____ _____    ______ ____
ROOT
ATOM      1  N   UNL     1      -2.853  -2.949   0.021  0.00  0.00    -0.268 N 
ATOM      2  C   UNL     1      -3.555  -3.303   1.183  0.00  0.00    +0.078 A 
ATOM      3  C   UNL     1      -3.495  -2.503   2.313  0.00  0.00    +0.029 A 
ATOM      4  C   UNL     1      -4.189  -2.865   3.452  0.00  0.00    +0.025 A 
ATOM      5  C   UNL     1      -4.946  -4.030   3.466  0.00  0.00    +0.037 A 
ATOM      6  C   UNL     1      -5.011  -4.832   2.334  0.00  0.00    +0.070 A 
ATOM      7  C   UNL     1      -4.319  -4.470   1.192  0.00  0.00    +0.144 A 
ATOM      8  O   UNL     1      -4.384  -5.240   0.074  0.00  0.00    -0.489 OA
ATOM      9  C   UNL     1      -5.196  -4.766  -0.997  0.00  0.00    +0.244 C 
ATOM     10  C   UNL     1      -4.968  -3.272  -1.219  0.00  0.00    +0.076 C 
ATOM     11  C   UNL     1      -3.496  -2.956  -1.168  0.00  0.00    +0.229 C 
ATOM     12  O   UNL     1      -2.890  -2.712  -2.190  0.00  0.00    -0.275 OA
ATOM     13  C   UNL     1      -5.525  -2.872  -2.587  0.00  0.00    +0.024 C 
ATOM     14  C   UNL     1      -5.691  -2.481  -0.128  0.00  0.00    +0.024 C 
ENDROOT
BRANCH   5  15
ATOM     15  N   UNL     1      -5.645  -4.395   4.622  0.00  0.00    -0.281 N 
ATOM     16  C   UNL     1      -6.847  -4.997   4.521  0.00  0.00    +0.248 C 
ATOM     17  O   UNL     1      -7.285  -5.301   3.428  0.00  0.00    -0.270 OA
ATOM     18  H   UNL     1      -5.265  -4.215   5.496  0.00  0.00    +0.155 HD
BRANCH  16  19
ATOM     19  C   UNL     1      -7.633  -5.287   5.739  0.00  0.00    +0.037 A 
ATOM     20  C   UNL     1      -7.136  -4.934   6.994  0.00  0.00    +0.015 A 
ATOM     21  C   UNL     1      -7.875  -5.207   8.127  0.00  0.00    +0.029 A 
ATOM     22  C   UNL     1      -9.105  -5.831   8.020  0.00  0.00    +0.105 A 
ATOM     23  C   UNL     1      -9.604  -6.184   6.779  0.00  0.00    +0.029 A 
ATOM     24  C   UNL     1      -8.878  -5.910   5.638  0.00  0.00    +0.015 A 
BRANCH  22  25
ATOM     25  S   UNL     1     -10.042  -6.178   9.472  0.00  0.00    +0.060 S 
ATOM     26  O   UNL     1     -10.909  -7.255   9.148  0.00  0.00    -0.153 OA
ATOM     27  O   UNL     1      -9.115  -6.243  10.547  0.00  0.00    -0.153 OA
BRANCH  25  28
ATOM     28  N   UNL     1     -11.007  -4.863   9.758  0.00  0.00    -0.183 NA
ATOM     29  C   UNL     1     -12.348  -4.797   9.171  0.00  0.00    +0.131 C 
ATOM     30  C   UNL     1     -10.520  -3.765  10.597  0.00  0.00    +0.131 C 
ENDBRANCH  25  28
ENDBRANCH  22  25
ENDBRANCH  16  19
ENDBRANCH   5  15
BRANCH   1  31
ATOM     31  C   UNL     1      -1.440  -2.572   0.096  0.00  0.00    +0.114 C 
BRANCH  31  32
ATOM     32  C   UNL     1      -1.326  -1.063   0.320  0.00  0.00    +0.022 C 
BRANCH  32  34
ATOM     33  C   UNL     1       0.267   0.854   0.497  0.00  0.00    +0.007 C 
ATOM     34  C   UNL     1       0.150  -0.668   0.398  0.00  0.00    -0.016 C 
ATOM     35  C   UNL     1       0.784  -1.309   1.634  0.00  0.00    +0.007 C 
ENDBRANCH  32  34
ENDBRANCH  31  32
ENDBRANCH   1  31
TORSDOF 7
