REMARK  Name = ZINC13203277
REMARK  14 active torsions:
REMARK  status: ('A' for Active; 'I' for Inactive)
REMARK    1  A    between atoms: C_1  and  C_2
REMARK    2  A    between atoms: C_2  and  C_3
REMARK    3  A    between atoms: C_3  and  C_4
REMARK    4  A    between atoms: C_7  and  S_12
REMARK    5  A    between atoms: N_8  and  C_9
REMARK    6  A    between atoms: C_9  and  C_10
REMARK    7  A    between atoms: S_12  and  C_13
REMARK    8  A    between atoms: C_13  and  C_14
REMARK    9  A    between atoms: C_14  and  C_16
REMARK   10  A    between atoms: C_18  and  C_33
REMARK   11  A    between atoms: N_19  and  C_22
REMARK   12  A    between atoms: C_20  and  C_21
REMARK   13  A    between atoms: C_25  and  O_28
REMARK   14  A    between atoms: O_28  and  C_29
REMARK                            x       y       z     vdW  Elec       q    Type
REMARK                         _______ _______ _______ _____ _____    ______ ____
ROOT
ATOM      1  C   UNL     1       2.883   0.187   7.751  0.00  0.00    +0.039 A 
ATOM      2  C   UNL     1       1.671  -0.595   8.030  0.00  0.00    +0.034 A 
ATOM      3  C   UNL     1       0.867  -0.441   6.964  0.00  0.00    +0.022 A 
ATOM      4  N   UNL     1       1.481   0.370   6.052  0.00  0.00    -0.317 N 
ATOM      5  C   UNL     1       2.691   0.752   6.504  0.00  0.00    +0.031 A 
ATOM      6  C   UNL     1       3.666   1.644   5.778  0.00  0.00    +0.064 C 
ATOM      7  C   UNL     1      -0.496  -1.064   6.801  0.00  0.00    +0.064 C 
ENDROOT
BRANCH   4   8
ATOM      8  C   UNL     1       0.932   0.748   4.818  0.00  0.00    +0.047 A 
ATOM      9  C   UNL     1      -0.212   1.534   4.778  0.00  0.00    +0.030 A 
ATOM     10  C   UNL     1      -0.752   1.904   3.563  0.00  0.00    +0.048 A 
ATOM     11  C   UNL     1      -0.153   1.491   2.382  0.00  0.00    +0.130 A 
ATOM     12  C   UNL     1       0.987   0.701   2.421  0.00  0.00    +0.048 A 
ATOM     13  C   UNL     1       1.532   0.334   3.636  0.00  0.00    +0.030 A 
BRANCH  11  14
ATOM     14  O   UNL     1      -0.686   1.856   1.185  0.00  0.00    -0.406 OA
BRANCH  14  15
ATOM     15  C   UNL     1      -0.017   1.395   0.010  0.00  0.00    +0.575 C 
ATOM     16  F   UNL     1       0.002  -0.004   0.002  0.00  0.00    -0.133 F 
ATOM     17  F   UNL     1       1.296   1.879  -0.000  0.00  0.00    -0.133 F 
ATOM     18  F   UNL     1      -0.694   1.858  -1.124  0.00  0.00    -0.133 F 
ENDBRANCH  14  15
ENDBRANCH  11  14
ENDBRANCH   4   8
BRANCH   1  19
ATOM     19  C   UNL     1       4.056   0.335   8.616  0.00  0.00    +0.175 C 
ATOM     20  O   UNL     1       4.992   1.018   8.256  0.00  0.00    -0.291 OA
BRANCH  19  21
ATOM     21  C   UNL     1       4.099  -0.361   9.951  0.00  0.00    +0.157 C 
BRANCH  21  22
ATOM     22  S   UNL     1       5.667   0.013  10.776  0.00  0.00    -0.078 S 
BRANCH  22  26
ATOM     23  C   UNL     1       5.753  -1.799  14.229  0.00  0.00    +0.135 A 
ATOM     24  N   UNL     1       4.591  -2.151  13.755  0.00  0.00    -0.134 NA
ATOM     25  N   UNL     1       4.407  -1.619  12.600  0.00  0.00    -0.122 NA
ATOM     26  C   UNL     1       5.454  -0.900  12.267  0.00  0.00    +0.193 A 
ATOM     27  N   UNL     1       6.344  -0.990  13.299  0.00  0.00    -0.295 N 
BRANCH  23  28
ATOM     28  C   UNL     1       6.337  -2.208  15.557  0.00  0.00    +0.076 C 
BRANCH  28  30
ATOM     29  C   UNL     1       6.525  -1.608  17.975  0.00  0.00    +0.004 C 
ATOM     30  C   UNL     1       5.932  -1.192  16.627  0.00  0.00    +0.004 C 
ENDBRANCH  28  30
ENDBRANCH  23  28
BRANCH  27  31
ATOM     31  C   UNL     1       7.660  -0.352  13.389  0.00  0.00    +0.250 C 
BRANCH  31  32
ATOM     32  C   UNL     1       7.518   1.004  14.031  0.00  0.00    +0.375 C 
ATOM     33  O   UNL     1       6.429   1.397  14.377  0.00  0.00    -0.244 OA
ATOM     34  O   UNL     1       8.601   1.774  14.218  0.00  0.00    -0.244 OA
ENDBRANCH  31  32
ENDBRANCH  27  31
ENDBRANCH  22  26
ENDBRANCH  21  22
ENDBRANCH  19  21
ENDBRANCH   1  19
TORSDOF 11
