REMARK  Name = ZINC11380047
REMARK  7 active torsions:
REMARK  status: ('A' for Active; 'I' for Inactive)
REMARK    1  A    between atoms: C_1  and  C_2
REMARK    2  A    between atoms: C_2  and  C_4
REMARK    3  A    between atoms: C_2  and  N_10
REMARK    4  A    between atoms: C_11  and  C_13
REMARK    5  A    between atoms: C_18  and  N_19
REMARK    6  A    between atoms: C_20  and  C_22
REMARK    7  A    between atoms: C_22  and  N_23
REMARK                            x       y       z     vdW  Elec       q    Type
REMARK                         _______ _______ _______ _____ _____    ______ ____
ROOT
ATOM      1  N   UNL     1      -2.224   5.892   3.802  0.00  0.00    -0.284 N 
ATOM      2  C   UNL     1      -1.213   5.155   3.300  0.00  0.00    +0.235 C 
ATOM      3  O   UNL     1      -1.262   3.945   3.350  0.00  0.00    -0.274 OA
ATOM      4  H   UNL     1      -2.150   6.859   3.835  0.00  0.00    +0.155 HD
ENDROOT
BRANCH   1  10
ATOM      5  C   UNL     1      -4.171   5.890   5.244  0.00  0.00    +0.058 A 
ATOM      6  C   UNL     1      -5.326   5.253   5.705  0.00  0.00    +0.015 A 
ATOM      7  C   UNL     1      -5.670   4.013   5.212  0.00  0.00    +0.001 A 
ATOM      8  C   UNL     1      -4.878   3.396   4.256  0.00  0.00    +0.002 A 
ATOM      9  C   UNL     1      -3.738   4.016   3.788  0.00  0.00    +0.024 A 
ATOM     10  C   UNL     1      -3.375   5.265   4.273  0.00  0.00    +0.046 A 
BRANCH   5  12
ATOM     11  N   UNL     1      -4.504   7.768   6.775  0.00  0.00    -0.305 N 
ATOM     12  C   UNL     1      -3.794   7.215   5.772  0.00  0.00    +0.246 C 
ATOM     13  O   UNL     1      -2.843   7.809   5.302  0.00  0.00    -0.270 OA
ATOM     14  H   UNL     1      -5.263   7.294   7.151  0.00  0.00    +0.150 HD
BRANCH  11  16
ATOM     15  C   UNL     1      -4.770  10.176   6.441  0.00  0.00    +0.033 C 
ATOM     16  C   UNL     1      -4.130   9.084   7.300  0.00  0.00    +0.100 C 
BRANCH  16  17
ATOM     17  C   UNL     1      -4.613   9.214   8.721  0.00  0.00    -0.027 A 
ATOM     18  C   UNL     1      -5.856   8.724   9.076  0.00  0.00    +0.005 A 
ATOM     19  C   UNL     1      -6.297   8.840  10.381  0.00  0.00    +0.000 A 
ATOM     20  C   UNL     1      -5.499   9.454  11.329  0.00  0.00    +0.000 A 
ATOM     21  C   UNL     1      -4.259   9.949  10.972  0.00  0.00    +0.000 A 
ATOM     22  C   UNL     1      -3.816   9.829   9.668  0.00  0.00    +0.005 A 
ENDBRANCH  16  17
ENDBRANCH  11  16
ENDBRANCH   5  12
ENDBRANCH   1  10
BRANCH   2  23
ATOM     23  C   UNL     1      -0.022   5.837   2.677  0.00  0.00    +0.214 C 
BRANCH  23  24
ATOM     24  N   UNL     1       0.930   4.825   2.211  0.00  0.00    -0.215 N 
ATOM     25  C   UNL     1       1.932   4.321   2.964  0.00  0.00    +0.251 C 
ATOM     26  O   UNL     1       2.206   4.606   4.109  0.00  0.00    -0.272 OA
ATOM     27  C   UNL     1       2.635   3.328   2.075  0.00  0.00    +0.138 C 
ATOM     28  C   UNL     1       4.109   3.704   1.878  0.00  0.00    +0.045 C 
ATOM     29  C   UNL     1       4.812   2.832   2.942  0.00  0.00    +0.038 C 
ATOM     30  C   UNL     1       3.888   1.653   3.164  0.00  0.00    -0.042 A 
ATOM     31  C   UNL     1       2.628   1.946   2.670  0.00  0.00    -0.012 A 
ATOM     32  C   UNL     1       1.614   1.008   2.775  0.00  0.00    +0.006 A 
ATOM     33  C   UNL     1       1.857  -0.216   3.365  0.00  0.00    +0.000 A 
ATOM     34  C   UNL     1       3.115  -0.510   3.855  0.00  0.00    +0.000 A 
ATOM     35  C   UNL     1       4.128   0.424   3.754  0.00  0.00    +0.004 A 
ATOM     36  N   UNL     1       1.898   3.379   0.811  0.00  0.00    -0.281 N 
ATOM     37  C   UNL     1       0.915   4.285   0.985  0.00  0.00    +0.310 C 
ATOM     38  O   UNL     1       0.107   4.579   0.126  0.00  0.00    -0.252 OA
ATOM     39  H   UNL     1       2.081   2.864   0.010  0.00  0.00    +0.152 HD
ENDBRANCH  23  24
ENDBRANCH   2  23
TORSDOF 6
