REMARK  Name = ZINC66952407
REMARK  6 active torsions:
REMARK  status: ('A' for Active; 'I' for Inactive)
REMARK    1  A    between atoms: C_1  and  C_2
REMARK    2  A    between atoms: C_3  and  N_14
REMARK    3  A    between atoms: C_7  and  N_8
REMARK    4  A    between atoms: N_17  and  C_18
REMARK    5  A    between atoms: C_18  and  C_19
REMARK    6  A    between atoms: C_19  and  O_29
REMARK                            x       y       z     vdW  Elec       q    Type
REMARK                         _______ _______ _______ _____ _____    ______ ____
ROOT
ATOM      1  N   UNL     1      -0.014   0.012  -2.412  0.00  0.00    -0.269 N 
ATOM      2  C   UNL     1       0.093  -0.653  -3.580  0.00  0.00    +0.304 C 
ATOM      3  O   UNL     1       0.111  -1.869  -3.588  0.00  0.00    -0.253 OA
ATOM      4  N   UNL     1       0.180   0.030  -4.739  0.00  0.00    -0.296 N 
ATOM      5  H   UNL     1      -0.110   0.977  -2.411  0.00  0.00    +0.156 HD
ATOM      6  H   UNL     1       0.166   1.000  -4.732  0.00  0.00    +0.150 HD
ENDROOT
BRANCH   1   9
ATOM      7  C   UNL     1      -1.269   1.188  -0.147  0.00  0.00    +0.047 C 
ATOM      8  C   UNL     1      -0.586  -0.153  -0.073  0.00  0.00    -0.008 A 
ATOM      9  C   UNL     1       0.014  -0.691  -1.202  0.00  0.00    +0.039 A 
ATOM     10  C   UNL     1       0.643  -1.927  -1.131  0.00  0.00    +0.024 A 
ATOM     11  C   UNL     1       0.670  -2.622   0.063  0.00  0.00    +0.004 A 
ATOM     12  C   UNL     1       0.073  -2.090   1.189  0.00  0.00    +0.024 A 
ATOM     13  C   UNL     1      -0.552  -0.851   1.126  0.00  0.00    +0.041 A 
BRANCH  13  14
ATOM     14  N   UNL     1      -1.151  -0.309   2.269  0.00  0.00    -0.271 N 
ATOM     15  C   UNL     1      -2.546  -0.539   2.660  0.00  0.00    +0.114 C 
ATOM     16  C   UNL     1      -2.629  -0.133   4.149  0.00  0.00    +0.029 C 
ATOM     17  C   UNL     1      -1.466   0.880   4.264  0.00  0.00    +0.098 C 
ATOM     18  C   UNL     1      -0.520   0.485   3.152  0.00  0.00    +0.220 C 
ATOM     19  O   UNL     1       0.638   0.835   3.067  0.00  0.00    -0.275 OA
ENDBRANCH  13  14
ENDBRANCH   1   9
BRANCH   4  20
ATOM     20  C   UNL     1       0.296  -0.692  -6.008  0.00  0.00    +0.145 C 
BRANCH  20  21
ATOM     21  C   UNL     1       0.503   0.309  -7.147  0.00  0.00    +0.107 C 
ATOM     22  C   UNL     1      -0.678   1.277  -7.187  0.00  0.00    +0.041 C 
ATOM     23  C   UNL     1      -0.563   2.126  -8.458  0.00  0.00    +0.008 C 
ATOM     24  C   UNL     1      -0.843   1.230  -9.663  0.00  0.00    +0.035 C 
ATOM     25  C   UNL     1       0.005  -0.014  -9.606  0.00  0.00    -0.041 A 
ATOM     26  C   UNL     1       0.620  -0.439  -8.449  0.00  0.00    -0.011 A 
ATOM     27  C   UNL     1       1.383  -1.599  -8.463  0.00  0.00    +0.007 A 
ATOM     28  C   UNL     1       1.533  -2.326  -9.626  0.00  0.00    +0.000 A 
ATOM     29  C   UNL     1       0.919  -1.897 -10.788  0.00  0.00    +0.000 A 
ATOM     30  C   UNL     1       0.159  -0.746 -10.776  0.00  0.00    +0.004 A 
BRANCH  21  31
ATOM     31  O   UNL     1       1.706   1.044  -6.916  0.00  0.00    -0.382 OA
ATOM     32  H   UNL     1       2.500   0.494  -6.869  0.00  0.00    +0.211 HD
ENDBRANCH  21  31
ENDBRANCH  20  21
ENDBRANCH   4  20
TORSDOF 5
