REMARK  Name = ZINC09463655
REMARK  9 active torsions:
REMARK  status: ('A' for Active; 'I' for Inactive)
REMARK    1  A    between atoms: C_1  and  C_2
REMARK    2  A    between atoms: C_15  and  C_17
REMARK    3  A    between atoms: C_17  and  S_18
REMARK    4  A    between atoms: S_18  and  C_19
REMARK    5  A    between atoms: C_22  and  C_27
REMARK    6  A    between atoms: N_23  and  C_24
REMARK    7  A    between atoms: C_24  and  C_25
REMARK    8  A    between atoms: C_27  and  O_28
REMARK    9  A    between atoms: O_28  and  C_29
REMARK                            x       y       z     vdW  Elec       q    Type
REMARK                         _______ _______ _______ _____ _____    ______ ____
ROOT
ATOM      1  S   UNL     1       1.683   9.141  -1.545  0.00  0.00    -0.077 S 
ENDROOT
BRANCH   1   2
ATOM      2  C   UNL     1       1.903   7.672  -0.597  0.00  0.00    +0.192 A 
ATOM      3  N   UNL     1       1.927   7.584   0.712  0.00  0.00    -0.122 NA
ATOM      4  N   UNL     1       2.107   6.361   1.065  0.00  0.00    -0.130 NA
ATOM      5  C   UNL     1       2.207   5.602   0.010  0.00  0.00    +0.172 A 
ATOM      6  N   UNL     1       2.086   6.410  -1.086  0.00  0.00    -0.299 N 
BRANCH   6   7
ATOM      7  C   UNL     1       2.139   6.006  -2.494  0.00  0.00    +0.152 C 
BRANCH   7   8
ATOM      8  C   UNL     1       0.751   5.664  -2.970  0.00  0.00    -0.013 C 
ATOM      9  C   UNL     1       0.256   6.261  -4.027  0.00  0.00    +0.005 C 
ENDBRANCH   7   8
ENDBRANCH   6   7
BRANCH   5  10
ATOM     10  C   UNL     1       2.423   4.111   0.001  0.00  0.00    +0.305 C 
BRANCH  10  11
ATOM     11  O   UNL     1       1.158   3.446   0.009  0.00  0.00    -0.484 OA
BRANCH  11  12
ATOM     12  C   UNL     1       1.175   2.087   0.002  0.00  0.00    +0.121 A 
ATOM     13  C   UNL     1      -0.017   1.377   0.010  0.00  0.00    +0.048 A 
ATOM     14  C   UNL     1       0.002  -0.004   0.002  0.00  0.00    +0.042 A 
ATOM     15  C   UNL     1       1.210  -0.681  -0.013  0.00  0.00    +0.124 A 
ATOM     16  C   UNL     1       2.401   0.026  -0.021  0.00  0.00    +0.042 A 
ATOM     17  C   UNL     1       2.385   1.407  -0.013  0.00  0.00    +0.048 A 
ATOM     18  F   UNL     1       1.227  -2.031  -0.020  0.00  0.00    -0.205 F 
ENDBRANCH  11  12
ENDBRANCH  10  11
ENDBRANCH   5  10
ENDBRANCH   1   2
BRANCH   1  19
ATOM     19  C   UNL     1       1.518  10.353  -0.211  0.00  0.00    +0.173 C 
BRANCH  19  33
ATOM     20  C   UNL     1       2.288  14.911  -0.465  0.00  0.00    +0.029 C 
ATOM     21  C   UNL     1       0.975  14.131  -0.550  0.00  0.00    +0.087 C 
ATOM     22  C   UNL     1      -0.112  14.868   0.240  0.00  0.00    +0.118 C 
ATOM     23  C   UNL     1      -1.274  13.949   0.509  0.00  0.00    +0.219 C 
ATOM     24  O   UNL     1      -2.299  14.070  -0.129  0.00  0.00    -0.275 OA
ATOM     25  N   UNL     1      -1.184  12.991   1.458  0.00  0.00    -0.284 N 
ATOM     26  C   UNL     1       0.021  12.776   2.136  0.00  0.00    +0.055 A 
ATOM     27  C   UNL     1       0.049  12.661   3.516  0.00  0.00    +0.025 A 
ATOM     28  C   UNL     1       1.243  12.394   4.160  0.00  0.00    +0.002 A 
ATOM     29  C   UNL     1       2.409  12.240   3.432  0.00  0.00    +0.002 A 
ATOM     30  C   UNL     1       2.391  12.364   2.054  0.00  0.00    +0.025 A 
ATOM     31  C   UNL     1       1.201  12.640   1.402  0.00  0.00    +0.058 A 
ATOM     32  N   UNL     1       1.167  12.792   0.009  0.00  0.00    -0.266 N 
ATOM     33  C   UNL     1       1.315  11.725  -0.801  0.00  0.00    +0.230 C 
ATOM     34  O   UNL     1       1.284  11.869  -2.005  0.00  0.00    -0.274 OA
ATOM     35  H   UNL     1      -1.959  12.449   1.669  0.00  0.00    +0.155 HD
ENDBRANCH  19  33
ENDBRANCH   1  19
TORSDOF 8
