REMARK  Name = ZINC12245987
REMARK  9 active torsions:
REMARK  status: ('A' for Active; 'I' for Inactive)
REMARK    1  A    between atoms: C_1  and  O_2
REMARK    2  A    between atoms: O_2  and  C_3
REMARK    3  A    between atoms: C_3  and  C_5
REMARK    4  A    between atoms: C_8  and  N_22
REMARK    5  A    between atoms: C_11  and  C_12
REMARK    6  A    between atoms: C_11  and  N_60
REMARK    7  A    between atoms: C_17  and  C_18
REMARK    8  A    between atoms: C_23  and  C_25
REMARK    9  A    between atoms: C_30  and  C_31
REMARK                            x       y       z     vdW  Elec       q    Type
REMARK                         _______ _______ _______ _____ _____    ______ ____
ROOT
ATOM      1  C   UNL     1       0.029   1.360  -1.009  0.00  0.00    +0.045 C 
ATOM      2  C   UNL     1       0.338   2.837  -0.701  0.00  0.00    +0.016 C 
ATOM      3  C   UNL     1       1.875   2.903  -0.542  0.00  0.00    +0.056 C 
ATOM      4  C   UNL     1       2.252   1.439  -0.206  0.00  0.00    -0.055 C 
ATOM      5  N   UNL     1       1.326   0.673  -1.048  0.00  0.00    +0.393 N 
ATOM      6  H   UNL     1       1.676   0.648  -2.013  0.00  0.00    -0.080 HD
ENDROOT
BRANCH   3   7
ATOM      7  N   UNL     1       2.244   3.799   0.557  0.00  0.00    -0.310 N 
ATOM      8  C   UNL     1       3.453   4.395   0.563  0.00  0.00    +0.245 C 
ATOM      9  O   UNL     1       4.237   4.188  -0.343  0.00  0.00    -0.270 OA
ATOM     10  H   UNL     1       1.619   3.964   1.280  0.00  0.00    +0.149 HD
BRANCH   8  11
ATOM     11  C   UNL     1       3.826   5.298   1.670  0.00  0.00    +0.044 A 
ATOM     12  C   UNL     1       2.846   6.038   2.332  0.00  0.00    +0.013 A 
ATOM     13  C   UNL     1       3.199   6.876   3.369  0.00  0.00    +0.001 A 
ATOM     14  C   UNL     1       4.524   6.996   3.753  0.00  0.00    +0.001 A 
ATOM     15  C   UNL     1       5.508   6.276   3.107  0.00  0.00    +0.009 A 
ATOM     16  C   UNL     1       5.171   5.420   2.061  0.00  0.00    -0.006 A 
BRANCH  16  17
ATOM     17  C   UNL     1       6.223   4.644   1.364  0.00  0.00    -0.017 A 
ATOM     18  C   UNL     1       6.138   3.254   1.296  0.00  0.00    +0.008 A 
ATOM     19  C   UNL     1       7.119   2.537   0.640  0.00  0.00    +0.001 A 
ATOM     20  C   UNL     1       8.190   3.194   0.063  0.00  0.00    +0.000 A 
ATOM     21  C   UNL     1       8.283   4.572   0.132  0.00  0.00    +0.001 A 
ATOM     22  C   UNL     1       7.306   5.301   0.780  0.00  0.00    +0.008 A 
ENDBRANCH  16  17
ENDBRANCH   8  11
ENDBRANCH   3   7
BRANCH   1  23
ATOM     23  C   UNL     1      -0.663   1.248  -2.342  0.00  0.00    +0.293 C 
ATOM     24  O   UNL     1      -0.149   0.623  -3.240  0.00  0.00    -0.253 OA
BRANCH  23  26
ATOM     25  C   UNL     1      -2.460   1.693  -3.844  0.00  0.00    +0.280 C 
ATOM     26  O   UNL     1      -1.851   1.843  -2.534  0.00  0.00    -0.469 OA
ENDBRANCH  23  26
ENDBRANCH   1  23
BRANCH   5  27
ATOM     27  C   UNL     1       1.186  -0.725  -0.540  0.00  0.00    -0.041 C 
BRANCH  27  28
ATOM     28  C   UNL     1       2.548  -1.360  -0.433  0.00  0.00    -0.052 A 
ATOM     29  C   UNL     1       3.163  -1.471   0.801  0.00  0.00    +0.002 A 
ATOM     30  C   UNL     1       4.413  -2.054   0.899  0.00  0.00    +0.000 A 
ATOM     31  C   UNL     1       5.047  -2.526  -0.235  0.00  0.00    +0.001 A 
ATOM     32  C   UNL     1       4.432  -2.415  -1.467  0.00  0.00    +0.012 A 
ATOM     33  C   UNL     1       3.180  -1.836  -1.566  0.00  0.00    +0.056 A 
BRANCH  33  34
ATOM     34  C   UNL     1       2.507  -1.720  -2.909  0.00  0.00    +0.418 C 
ATOM     35  F   UNL     1       3.313  -2.312  -3.887  0.00  0.00    -0.166 F 
ATOM     36  F   UNL     1       1.269  -2.372  -2.868  0.00  0.00    -0.166 F 
ATOM     37  F   UNL     1       2.313  -0.370  -3.219  0.00  0.00    -0.166 F 
ENDBRANCH  33  34
ENDBRANCH  27  28
ENDBRANCH   5  27
TORSDOF 8
