REMARK  Name = ZINC39897283
REMARK  10 active torsions:
REMARK  status: ('A' for Active; 'I' for Inactive)
REMARK    1  A    between atoms: C_1  and  C_2
REMARK    2  A    between atoms: C_2  and  C_3
REMARK    3  A    between atoms: C_6  and  N_9
REMARK    4  A    between atoms: C_12  and  C_29
REMARK    5  A    between atoms: C_16  and  C_17
REMARK    6  A    between atoms: C_16  and  C_19
REMARK    7  A    between atoms: N_21  and  C_22
REMARK    8  A    between atoms: C_25  and  C_28
REMARK    9  A    between atoms: C_29  and  C_30
REMARK   10  A    between atoms: C_33  and  C_36
REMARK                            x       y       z     vdW  Elec       q    Type
REMARK                         _______ _______ _______ _____ _____    ______ ____
ROOT
ATOM      1  N   UNL     1      -5.484  -1.189   0.387  0.00  0.00    -0.232 N 
ATOM      2  C   UNL     1      -6.222  -0.960   1.460  0.00  0.00    +0.238 C 
ATOM      3  O   UNL     1      -5.762  -0.458   2.463  0.00  0.00    -0.274 OA
ATOM      4  C   UNL     1      -7.684  -1.364   1.355  0.00  0.00    +0.143 C 
ATOM      5  S   UNL     1      -7.715  -2.032  -0.360  0.00  0.00    -0.095 S 
ATOM      6  C   UNL     1      -5.996  -1.752  -0.757  0.00  0.00    +0.098 C 
ATOM      7  C   UNL     1      -5.330  -2.038  -1.949  0.00  0.00    +0.142 C 
ENDROOT
BRANCH   1  11
ATOM      8  C   UNL     1      -1.448  -0.152   0.472  0.00  0.00    -0.048 A 
ATOM      9  C   UNL     1      -1.818  -1.484   0.469  0.00  0.00    +0.005 A 
ATOM     10  C   UNL     1      -3.155  -1.831   0.441  0.00  0.00    +0.024 A 
ATOM     11  C   UNL     1      -4.127  -0.841   0.416  0.00  0.00    +0.042 A 
ATOM     12  C   UNL     1      -3.753   0.496   0.419  0.00  0.00    +0.024 A 
ATOM     13  C   UNL     1      -2.415   0.837   0.452  0.00  0.00    +0.005 A 
BRANCH   8  15
ATOM     14  C   UNL     1       0.446   0.461   1.950  0.00  0.00    +0.009 C 
ATOM     15  C   UNL     1       0.011   0.224   0.502  0.00  0.00    +0.032 C 
ENDBRANCH   8  15
ENDBRANCH   1  11
BRANCH   7  16
ATOM     16  C   UNL     1      -3.949  -1.596  -2.139  0.00  0.00    +0.261 C 
ATOM     17  O   UNL     1      -3.032  -2.385  -1.997  0.00  0.00    -0.269 OA
ATOM     18  N   UNL     1      -3.691  -0.316  -2.472  0.00  0.00    -0.281 N 
ATOM     19  H   UNL     1      -4.415   0.328  -2.518  0.00  0.00    +0.155 HD
BRANCH  18  20
ATOM     20  C   UNL     1      -2.380   0.084  -2.752  0.00  0.00    +0.034 A 
ATOM     21  C   UNL     1      -1.478  -0.821  -3.296  0.00  0.00    +0.023 A 
ATOM     22  C   UNL     1      -0.184  -0.423  -3.571  0.00  0.00    +0.005 A 
ATOM     23  C   UNL     1       0.213   0.875  -3.305  0.00  0.00    -0.050 A 
ATOM     24  C   UNL     1      -0.683   1.778  -2.764  0.00  0.00    +0.005 A 
ATOM     25  C   UNL     1      -1.980   1.388  -2.491  0.00  0.00    +0.023 A 
ATOM     26  C   UNL     1       1.625   1.306  -3.607  0.00  0.00    +0.044 C 
ENDBRANCH  18  20
ENDBRANCH   7  16
BRANCH   7  27
ATOM     27  C   UNL     1      -5.997  -2.766  -2.986  0.00  0.00    +0.107 C 
ATOM     28  N   UNL     1      -6.527  -3.343  -3.809  0.00  0.00    -0.191 NA
ENDBRANCH   7  27
BRANCH   4  29
ATOM     29  C   UNL     1      -8.606  -0.151   1.496  0.00  0.00    +0.059 C 
BRANCH  29  30
ATOM     30  C   UNL     1     -10.041  -0.611   1.509  0.00  0.00    -0.046 A 
ATOM     31  C   UNL     1     -10.743  -0.722   0.323  0.00  0.00    +0.004 A 
ATOM     32  C   UNL     1     -12.059  -1.144   0.335  0.00  0.00    +0.003 A 
ATOM     33  C   UNL     1     -12.674  -1.454   1.534  0.00  0.00    -0.050 A 
ATOM     34  C   UNL     1     -11.973  -1.343   2.720  0.00  0.00    +0.003 A 
ATOM     35  C   UNL     1     -10.655  -0.926   2.707  0.00  0.00    +0.004 A 
ATOM     36  C   UNL     1     -14.110  -1.913   1.547  0.00  0.00    +0.044 C 
ENDBRANCH  29  30
ENDBRANCH   4  29
TORSDOF 7
