REMARK  Name = ZINC34757062
REMARK  11 active torsions:
REMARK  status: ('A' for Active; 'I' for Inactive)
REMARK    1  A    between atoms: C_1  and  C_2
REMARK    2  A    between atoms: C_2  and  C_3
REMARK    3  A    between atoms: C_3  and  C_4
REMARK    4  A    between atoms: C_5  and  C_31
REMARK    5  A    between atoms: C_9  and  S_13
REMARK    6  A    between atoms: S_13  and  C_14
REMARK    7  A    between atoms: C_14  and  C_15
REMARK    8  A    between atoms: N_19  and  C_22
REMARK    9  A    between atoms: C_22  and  C_23
REMARK   10  A    between atoms: C_25  and  C_30
REMARK   11  A    between atoms: C_28  and  C_29
REMARK                            x       y       z     vdW  Elec       q    Type
REMARK                         _______ _______ _______ _____ _____    ______ ____
ROOT
ATOM      1  C   UNL     1      -1.503  -5.075   1.534  0.00  0.00    -0.005 A 
ATOM      2  C   UNL     1      -1.744  -4.898   0.227  0.00  0.00    -0.028 A 
ATOM      3  C   UNL     1      -0.648  -5.020  -0.720  0.00  0.00    +0.051 A 
ATOM      4  C   UNL     1      -0.651  -4.878  -2.136  0.00  0.00    +0.134 A 
ATOM      5  N   UNL     1       0.478  -5.034  -2.804  0.00  0.00    -0.206 NA
ATOM      6  C   UNL     1       1.624  -5.320  -2.197  0.00  0.00    +0.191 A 
ATOM      7  N   UNL     1       1.688  -5.463  -0.880  0.00  0.00    -0.215 NA
ATOM      8  C   UNL     1       0.604  -5.324  -0.142  0.00  0.00    +0.115 A 
ATOM      9  S   UNL     1       0.246  -5.417   1.592  0.00  0.00    -0.073 S 
ATOM     10  N   UNL     1      -1.824  -4.581  -2.805  0.00  0.00    -0.318 N 
ATOM     11  C   UNL     1      -2.298  -3.193  -2.921  0.00  0.00    +0.088 C 
ATOM     12  C   UNL     1      -2.617  -2.910  -4.393  0.00  0.00    -0.059 C 
ATOM     13  N   UNL     1      -3.562  -3.917  -4.891  0.00  0.00    +0.384 N 
ATOM     14  C   UNL     1      -2.936  -5.245  -4.870  0.00  0.00    -0.059 C 
ATOM     15  C   UNL     1      -2.630  -5.643  -3.427  0.00  0.00    +0.088 C 
ATOM     16  C   UNL     1      -3.135  -4.577  -0.255  0.00  0.00    +0.045 C 
ATOM     17  H   UNL     1      -4.383  -3.925  -4.304  0.00  0.00    -0.081 HD
ENDROOT
BRANCH   1  18
ATOM     18  C   UNL     1      -2.477  -4.997   2.681  0.00  0.00    +0.042 C 
BRANCH  18  20
ATOM     19  C   UNL     1      -4.067  -6.302   4.099  0.00  0.00    +0.004 C 
ATOM     20  C   UNL     1      -3.078  -6.381   2.934  0.00  0.00    +0.002 C 
ENDBRANCH  18  20
ENDBRANCH   1  18
BRANCH   6  21
ATOM     21  S   UNL     1       3.088  -5.513  -3.159  0.00  0.00    -0.086 S 
BRANCH  21  22
ATOM     22  C   UNL     1       4.372  -5.887  -1.934  0.00  0.00    +0.074 C 
ATOM     23  C   UNL     1       5.713  -6.081  -2.644  0.00  0.00    +0.016 C 
ENDBRANCH  21  22
ENDBRANCH   6  21
BRANCH  13  24
ATOM     24  C   UNL     1      -3.952  -3.582  -6.267  0.00  0.00    -0.043 C 
BRANCH  24  25
ATOM     25  C   UNL     1      -5.014  -4.543  -6.736  0.00  0.00    -0.061 A 
ATOM     26  C   UNL     1      -4.671  -5.612  -7.543  0.00  0.00    +0.005 A 
ATOM     27  C   UNL     1      -5.645  -6.494  -7.973  0.00  0.00    -0.050 A 
ATOM     28  C   UNL     1      -6.962  -6.306  -7.596  0.00  0.00    +0.003 A 
ATOM     29  C   UNL     1      -7.305  -5.238  -6.789  0.00  0.00    +0.004 A 
ATOM     30  C   UNL     1      -6.330  -4.359  -6.355  0.00  0.00    -0.049 A 
ATOM     31  C   UNL     1      -6.702  -3.197  -5.471  0.00  0.00    +0.044 C 
ATOM     32  C   UNL     1      -5.272  -7.659  -8.853  0.00  0.00    +0.044 C 
ENDBRANCH  24  25
ENDBRANCH  13  24
TORSDOF 6
