REMARK  Name = ZINC23419045
REMARK  8 active torsions:
REMARK  status: ('A' for Active; 'I' for Inactive)
REMARK    1  A    between atoms: C_1  and  C_2
REMARK    2  A    between atoms: C_2  and  C_4
REMARK    3  A    between atoms: C_2  and  N_11
REMARK    4  A    between atoms: C_12  and  C_14
REMARK    5  A    between atoms: C_14  and  O_15
REMARK    6  A    between atoms: O_15  and  C_16
REMARK    7  A    between atoms: C_16  and  C_18
REMARK    8  A    between atoms: C_23  and  N_24
REMARK                            x       y       z     vdW  Elec       q    Type
REMARK                         _______ _______ _______ _____ _____    ______ ____
ROOT
ATOM      1  C   UNL     1       4.080   5.454   0.440  0.00  0.00    +0.328 C 
ENDROOT
BRANCH   1   3
ATOM      2  N   UNL     1       5.190   7.644   0.745  0.00  0.00    -0.306 N 
ATOM      3  C   UNL     1       4.041   6.947   0.645  0.00  0.00    +0.251 C 
ATOM      4  O   UNL     1       2.975   7.521   0.721  0.00  0.00    -0.272 OA
ATOM      5  H   UNL     1       6.157   7.123   0.676  0.00  0.00    +0.149 HD
BRANCH   2   7
ATOM      6  C   UNL     1       5.009   9.400   2.437  0.00  0.00    +0.033 C 
ATOM      7  C   UNL     1       5.152   9.094   0.944  0.00  0.00    +0.100 C 
BRANCH   7   8
ATOM      8  C   UNL     1       6.428   9.706   0.426  0.00  0.00    -0.027 A 
ATOM      9  C   UNL     1       7.637   9.071   0.642  0.00  0.00    +0.006 A 
ATOM     10  C   UNL     1       8.807   9.630   0.163  0.00  0.00    +0.015 A 
ATOM     11  C   UNL     1       8.769  10.830  -0.524  0.00  0.00    +0.018 A 
ATOM     12  C   UNL     1       7.560  11.468  -0.736  0.00  0.00    +0.015 A 
ATOM     13  C   UNL     1       6.390  10.906  -0.261  0.00  0.00    +0.006 A 
ATOM     14 BR   UNL     1      10.370  11.598  -1.173  0.00  0.00    -0.050 Br
ENDBRANCH   7   8
ENDBRANCH   2   7
ENDBRANCH   1   3
BRANCH   1  15
ATOM     15  O   UNL     1       2.724   4.940   0.365  0.00  0.00    -0.452 OA
BRANCH  15  16
ATOM     16  C   UNL     1       2.582   3.613   0.182  0.00  0.00    +0.342 C 
ATOM     17  O   UNL     1       3.564   2.905   0.087  0.00  0.00    -0.245 OA
BRANCH  16  18
ATOM     18  C   UNL     1       1.232   3.019   0.097  0.00  0.00    +0.090 A 
ATOM     19  C   UNL     1       0.105   3.842   0.070  0.00  0.00    +0.037 A 
ATOM     20  C   UNL     1      -1.154   3.281  -0.011  0.00  0.00    +0.042 A 
ATOM     21  C   UNL     1      -1.298   1.905  -0.070  0.00  0.00    +0.022 A 
ATOM     22  C   UNL     1      -0.185   1.084  -0.038  0.00  0.00    +0.035 A 
ATOM     23  C   UNL     1       1.078   1.633   0.042  0.00  0.00    +0.140 A 
ATOM     24 CL   UNL     1      -2.558   4.301  -0.045  0.00  0.00    -0.084 Cl
BRANCH  23  25
ATOM     25  N   UNL     1       2.268   0.753   0.070  0.00  0.00    +0.057 N 
ATOM     26  O   UNL     1       2.402  -0.117  -0.772  0.00  0.00    -0.126 OA
ATOM     27  O   UNL     1       3.114   0.899   0.934  0.00  0.00    -0.126 OA
ENDBRANCH  23  25
ENDBRANCH  16  18
ENDBRANCH  15  16
ENDBRANCH   1  15
TORSDOF 7
