REMARK  Name = ZINC00931330
REMARK  9 active torsions:
REMARK  status: ('A' for Active; 'I' for Inactive)
REMARK    1  A    between atoms: C_1  and  C_2
REMARK    2  A    between atoms: C_5  and  N_8
REMARK    3  A    between atoms: N_8  and  C_9
REMARK    4  A    between atoms: C_9  and  C_11
REMARK    5  A    between atoms: C_9  and  C_18
REMARK    6  A    between atoms: N_13  and  C_17
REMARK    7  A    between atoms: C_15  and  C_16
REMARK    8  A    between atoms: N_20  and  C_21
REMARK    9  A    between atoms: C_27  and  C_29
REMARK                            x       y       z     vdW  Elec       q    Type
REMARK                         _______ _______ _______ _____ _____    ______ ____
ROOT
ATOM      1  N   UNL     1      -0.214  -4.660  -0.143  0.00  0.00    -0.252 N 
ATOM      2  C   UNL     1      -0.267  -5.661  -1.045  0.00  0.00    +0.265 C 
ATOM      3  O   UNL     1      -0.119  -6.809  -0.685  0.00  0.00    -0.271 OA
ENDROOT
BRANCH   2   4
ATOM      4  C   UNL     1      -0.509  -5.352  -2.500  0.00  0.00    +0.296 C 
ATOM      5  C   UNL     1       0.746  -4.714  -3.110  0.00  0.00    +0.283 C 
ATOM      6  O   UNL     1       0.487  -4.447  -4.492  0.00  0.00    -0.484 OA
ATOM      7  C   UNL     1      -0.095  -5.447  -5.209  0.00  0.00    +0.162 A 
ATOM      8  C   UNL     1      -0.046  -5.408  -6.595  0.00  0.00    +0.049 A 
ATOM      9  C   UNL     1      -0.635  -6.415  -7.337  0.00  0.00    +0.004 A 
ATOM     10  C   UNL     1      -1.275  -7.462  -6.700  0.00  0.00    +0.004 A 
ATOM     11  C   UNL     1      -1.326  -7.507  -5.320  0.00  0.00    +0.049 A 
ATOM     12  C   UNL     1      -0.736  -6.501  -4.569  0.00  0.00    +0.163 A 
ATOM     13  O   UNL     1      -0.788  -6.563  -3.210  0.00  0.00    -0.472 OA
ENDBRANCH   2   4
BRANCH   1  18
ATOM     14  C   UNL     1      -1.325   0.667  -1.748  0.00  0.00    +0.044 C 
ATOM     15  C   UNL     1      -1.029  -0.748  -1.321  0.00  0.00    -0.050 A 
ATOM     16  C   UNL     1      -2.047  -1.684  -1.283  0.00  0.00    +0.005 A 
ATOM     17  C   UNL     1      -1.780  -2.981  -0.893  0.00  0.00    +0.024 A 
ATOM     18  C   UNL     1      -0.488  -3.346  -0.539  0.00  0.00    +0.038 A 
ATOM     19  C   UNL     1       0.532  -2.405  -0.579  0.00  0.00    +0.024 A 
ATOM     20  C   UNL     1       0.260  -1.110  -0.975  0.00  0.00    +0.005 A 
ENDBRANCH   1  18
BRANCH   1  21
ATOM     21  C   UNL     1       0.130  -4.948   1.251  0.00  0.00    +0.200 C 
BRANCH  21  22
ATOM     22  C   UNL     1       1.285  -4.077   1.674  0.00  0.00    +0.022 A 
ATOM     23  C   UNL     1       1.207  -2.975   2.456  0.00  0.00    +0.114 A 
ATOM     24  N   UNL     1       2.456  -2.483   2.599  0.00  0.00    -0.274 N 
ATOM     25  N   UNL     1       3.330  -3.310   1.881  0.00  0.00    -0.176 NA
ATOM     26  C   UNL     1       2.628  -4.268   1.332  0.00  0.00    +0.065 A 
ATOM     27  C   UNL     1       3.172  -5.383   0.476  0.00  0.00    +0.068 C 
ATOM     28  C   UNL     1       2.830  -1.294   3.368  0.00  0.00    +0.172 C 
ENDBRANCH  21  22
BRANCH  21  29
ATOM     29  C   UNL     1      -1.060  -4.665   2.131  0.00  0.00    +0.239 C 
ATOM     30  O   UNL     1      -1.974  -3.985   1.715  0.00  0.00    -0.273 OA
ATOM     31  N   UNL     1      -1.110  -5.169   3.380  0.00  0.00    -0.311 N 
ATOM     32  H   UNL     1      -0.348  -5.651   3.739  0.00  0.00    +0.149 HD
BRANCH  31  33
ATOM     33  C   UNL     1      -2.314  -4.989   4.195  0.00  0.00    +0.073 C 
ATOM     34  C   UNL     1      -2.253  -3.634   4.902  0.00  0.00    +0.022 C 
ATOM     35  C   UNL     1      -3.510  -3.445   5.753  0.00  0.00    +0.002 C 
ATOM     36  C   UNL     1      -3.591  -4.561   6.797  0.00  0.00    +0.000 C 
ATOM     37  C   UNL     1      -3.652  -5.917   6.090  0.00  0.00    +0.002 C 
ATOM     38  C   UNL     1      -2.395  -6.105   5.239  0.00  0.00    +0.022 C 
ENDBRANCH  31  33
ENDBRANCH  21  29
ENDBRANCH   1  21
TORSDOF 6
