REMARK  Name = ZINC37150855
REMARK  8 active torsions:
REMARK  status: ('A' for Active; 'I' for Inactive)
REMARK    1  A    between atoms: C_1  and  C_2
REMARK    2  A    between atoms: C_2  and  C_3
REMARK    3  A    between atoms: C_4  and  C_14
REMARK    4  A    between atoms: C_5  and  C_13
REMARK    5  A    between atoms: C_14  and  O_16
REMARK    6  A    between atoms: O_16  and  C_17
REMARK    7  A    between atoms: C_17  and  C_19
REMARK    8  A    between atoms: C_17  and  C_20
REMARK                            x       y       z     vdW  Elec       q    Type
REMARK                         _______ _______ _______ _____ _____    ______ ____
ROOT
ATOM      1  C   UNL     1      -1.333  -0.507   2.512  0.00  0.00    +0.342 C 
ATOM      2  O   UNL     1      -1.404   0.586   3.037  0.00  0.00    -0.245 OA
ENDROOT
BRANCH   1   4
ATOM      3  C   UNL     1      -1.412  -0.526   0.013  0.00  0.00    +0.056 A 
ATOM      4  C   UNL     1      -2.046  -0.765   1.245  0.00  0.00    +0.084 A 
ATOM      5  C   UNL     1      -3.351  -1.246   1.260  0.00  0.00    -0.026 A 
ATOM      6  C   UNL     1      -3.983  -1.474   0.026  0.00  0.00    +0.004 A 
ATOM      7  C   UNL     1      -5.301  -1.960  -0.038  0.00  0.00    +0.010 A 
ATOM      8  C   UNL     1      -5.882  -2.169  -1.252  0.00  0.00    +0.001 A 
ATOM      9  C   UNL     1      -5.187  -1.909  -2.431  0.00  0.00    +0.002 A 
ATOM     10  C   UNL     1      -3.910  -1.438  -2.405  0.00  0.00    +0.028 A 
ATOM     11  C   UNL     1      -3.275  -1.208  -1.173  0.00  0.00    +0.072 A 
ATOM     12  N   UNL     1      -2.022  -0.741  -1.124  0.00  0.00    -0.251 NA
ATOM     13  C   UNL     1      -4.065  -1.515   2.560  0.00  0.00    +0.045 C 
BRANCH   3  15
ATOM     14  C   UNL     1      -0.019   1.526   0.010  0.00  0.00    +0.010 C 
ATOM     15  C   UNL     1       0.002  -0.004   0.002  0.00  0.00    +0.053 C 
ENDBRANCH   3  15
ENDBRANCH   1   4
BRANCH   1  16
ATOM     16  O   UNL     1      -0.605  -1.484   3.085  0.00  0.00    -0.450 OA
BRANCH  16  17
ATOM     17  C   UNL     1       0.059  -1.165   4.310  0.00  0.00    +0.239 C 
ATOM     18  C   UNL     1      -0.865  -1.482   5.488  0.00  0.00    +0.060 C 
BRANCH  17  19
ATOM     19  C   UNL     1       1.319  -1.983   4.426  0.00  0.00    +0.151 A 
ATOM     20  N   UNL     1       2.390  -1.627   3.670  0.00  0.00    -0.307 N 
ATOM     21  H   UNL     1       2.326  -0.863   3.075  0.00  0.00    +0.170 HD
ATOM     22  C   UNL     1       3.546  -2.328   3.738  0.00  0.00    +0.259 A 
ATOM     23  O   UNL     1       4.513  -2.020   3.066  0.00  0.00    -0.267 OA
ATOM     24  C   UNL     1       3.587  -3.477   4.655  0.00  0.00    +0.065 A 
ATOM     25  C   UNL     1       4.728  -4.264   4.800  0.00  0.00    +0.015 A 
ATOM     26  C   UNL     1       4.711  -5.329   5.673  0.00  0.00    +0.001 A 
ATOM     27  C   UNL     1       3.570  -5.622   6.409  0.00  0.00    +0.002 A 
ATOM     28  C   UNL     1       2.433  -4.856   6.281  0.00  0.00    +0.028 A 
ATOM     29  C   UNL     1       2.425  -3.772   5.402  0.00  0.00    +0.078 A 
ATOM     30  N   UNL     1       1.328  -2.988   5.248  0.00  0.00    -0.230 NA
ENDBRANCH  17  19
ENDBRANCH  16  17
ENDBRANCH   1  16
TORSDOF 5
