REMARK  Name = ZINC20149541
REMARK  8 active torsions:
REMARK  status: ('A' for Active; 'I' for Inactive)
REMARK    1  A    between atoms: C_1  and  O_2
REMARK    2  A    between atoms: O_2  and  C_3
REMARK    3  A    between atoms: C_6  and  C_9
REMARK    4  A    between atoms: C_10  and  C_21
REMARK    5  A    between atoms: N_12  and  C_14
REMARK    6  A    between atoms: C_21  and  N_22
REMARK    7  A    between atoms: N_22  and  C_23
REMARK    8  A    between atoms: C_23  and  C_24
REMARK                            x       y       z     vdW  Elec       q    Type
REMARK                         _______ _______ _______ _____ _____    ______ ____
ROOT
ATOM      1  C   UNL     1      -3.255   1.362  -0.229  0.00  0.00    +0.094 A 
ATOM      2  C   UNL     1      -2.201   0.927  -1.058  0.00  0.00    -0.019 A 
ATOM      3  C   UNL     1      -2.655  -0.110  -1.796  0.00  0.00    +0.117 A 
ATOM      4  N   UNL     1      -3.952  -0.327  -1.457  0.00  0.00    -0.236 N 
ATOM      5  N   UNL     1      -4.306   0.609  -0.477  0.00  0.00    -0.166 NA
ENDROOT
BRANCH   4   6
ATOM      6  C   UNL     1      -4.790  -1.315  -1.994  0.00  0.00    +0.100 A 
ATOM      7  C   UNL     1      -6.102  -1.428  -1.555  0.00  0.00    +0.031 A 
ATOM      8  C   UNL     1      -6.925  -2.401  -2.086  0.00  0.00    +0.002 A 
ATOM      9  C   UNL     1      -6.444  -3.264  -3.054  0.00  0.00    +0.003 A 
ATOM     10  C   UNL     1      -5.138  -3.156  -3.494  0.00  0.00    +0.040 A 
ATOM     11  C   UNL     1      -4.310  -2.180  -2.971  0.00  0.00    +0.149 A 
ATOM     12  F   UNL     1      -3.035  -2.070  -3.405  0.00  0.00    -0.203 F 
ENDBRANCH   4   6
BRANCH   1  16
ATOM     13  C   UNL     1      -3.071   4.555   2.575  0.00  0.00    +0.120 A 
ATOM     14  C   UNL     1      -4.245   4.316   1.873  0.00  0.00    +0.046 A 
ATOM     15  C   UNL     1      -4.308   3.281   0.963  0.00  0.00    +0.013 A 
ATOM     16  C   UNL     1      -3.191   2.475   0.749  0.00  0.00    +0.003 A 
ATOM     17  C   UNL     1      -2.016   2.715   1.459  0.00  0.00    +0.013 A 
ATOM     18  C   UNL     1      -1.958   3.754   2.363  0.00  0.00    +0.046 A 
BRANCH  13  20
ATOM     19  C   UNL     1      -1.774   5.766   4.157  0.00  0.00    +0.277 C 
ATOM     20  O   UNL     1      -3.013   5.575   3.470  0.00  0.00    -0.495 OA
ENDBRANCH  13  20
ENDBRANCH   1  16
BRANCH   2  21
ATOM     21  C   UNL     1      -0.813   1.510  -1.107  0.00  0.00    -0.043 C 
BRANCH  21  22
ATOM     22  N   UNL     1      -0.024   0.992   0.018  0.00  0.00    +0.385 N 
ATOM     23  H   UNL     1      -0.506   1.274   0.965  0.00  0.00    -0.085 HD
ATOM     24  H   UNL     1       0.037  -0.104  -0.051  0.00  0.00    -0.085 HD
BRANCH  22  25
ATOM     25  C   UNL     1       1.339   1.541   0.002  0.00  0.00    -0.026 C 
BRANCH  25  26
ATOM     26  C   UNL     1       2.117   0.988   1.169  0.00  0.00    +0.023 A 
ATOM     27  C   UNL     1       2.202   1.561   2.445  0.00  0.00    -0.006 A 
ATOM     28  C   UNL     1       3.005   0.777   3.198  0.00  0.00    +0.066 A 
ATOM     29  N   UNL     1       3.423  -0.250   2.424  0.00  0.00    -0.178 NA
ATOM     30  H   UNL     1       2.938  -0.689   0.234  0.00  0.00    +0.188 HD
ATOM     31  N   UNL     1       2.856  -0.091   1.154  0.00  0.00    -0.283 N 
ATOM     32  C   UNL     1       3.128   1.342   4.597  0.00  0.00    +0.058 C 
ATOM     33  C   UNL     1       1.955   2.335   4.732  0.00  0.00    +0.011 C 
ATOM     34  C   UNL     1       1.709   2.739   3.257  0.00  0.00    +0.039 C 
ENDBRANCH  25  26
ENDBRANCH  22  25
ENDBRANCH  21  22
ENDBRANCH   2  21
TORSDOF 7
