REMARK  Name = ZINC17448940
REMARK  6 active torsions:
REMARK  status: ('A' for Active; 'I' for Inactive)
REMARK    1  A    between atoms: C_1  and  C_2
REMARK    2  A    between atoms: C_10  and  C_11
REMARK    3  A    between atoms: N_13  and  N_14
REMARK    4  A    between atoms: C_15  and  C_17
REMARK    5  A    between atoms: C_17  and  N_18
REMARK    6  A    between atoms: C_25  and  C_28
REMARK                            x       y       z     vdW  Elec       q    Type
REMARK                         _______ _______ _______ _____ _____    ______ ____
ROOT
ATOM      1  N   UNL     1       0.043  -1.840   1.659  0.00  0.00    -0.233 N 
ATOM      2  C   UNL     1       0.022  -0.514   1.420  0.00  0.00    +0.249 C 
ATOM      3  O   UNL     1       0.021   0.269   2.346  0.00  0.00    -0.272 OA
ATOM      4  H   UNL     1       0.044  -2.466   0.918  0.00  0.00    +0.173 HD
ENDROOT
BRANCH   1   7
ATOM      5  C   UNL     1       0.082  -3.640   3.216  0.00  0.00    +0.296 C 
ATOM      6  O   UNL     1       0.084  -4.426   2.287  0.00  0.00    -0.265 OA
ATOM      7  N   UNL     1       0.062  -2.314   2.977  0.00  0.00    -0.228 N 
ATOM      8  H   UNL     1       0.060  -1.688   3.718  0.00  0.00    +0.173 HD
BRANCH   5  18
ATOM      9  C   UNL     1       0.118  -6.640   4.037  0.00  0.00    +0.048 C 
ATOM     10  C   UNL     1       0.118  -5.447   4.958  0.00  0.00    +0.008 A 
ATOM     11  C   UNL     1       0.138  -5.466   6.421  0.00  0.00    +0.024 A 
ATOM     12  C   UNL     1       0.161  -6.480   7.381  0.00  0.00    +0.012 A 
ATOM     13  C   UNL     1       0.169  -6.155   8.709  0.00  0.00    +0.001 A 
ATOM     14  C   UNL     1       0.154  -4.825   9.107  0.00  0.00    +0.004 A 
ATOM     15  C   UNL     1       0.131  -3.811   8.176  0.00  0.00    +0.047 A 
ATOM     16  C   UNL     1       0.122  -4.116   6.819  0.00  0.00    +0.136 A 
ATOM     17  O   UNL     1       0.101  -3.362   5.703  0.00  0.00    -0.450 OA
ATOM     18  C   UNL     1       0.102  -4.138   4.599  0.00  0.00    +0.195 A 
ENDBRANCH   5  18
ENDBRANCH   1   7
BRANCH   2  19
ATOM     19  C   UNL     1       0.002  -0.004   0.002  0.00  0.00    +0.223 C 
BRANCH  19  20
ATOM     20  N   UNL     1      -0.018   1.461   0.010  0.00  0.00    -0.290 N 
ATOM     21  C   UNL     1       1.157   2.142   0.003  0.00  0.00    +0.203 A 
ATOM     22  N   UNL     1       1.179   3.448   0.009  0.00  0.00    -0.230 NA
ATOM     23  C   UNL     1       0.051   4.153   0.023  0.00  0.00    +0.116 A 
ATOM     24  C   UNL     1      -1.210   3.535   0.032  0.00  0.00    +0.080 A 
ATOM     25  C   UNL     1      -1.200   2.104   0.019  0.00  0.00    +0.263 A 
ATOM     26  O   UNL     1      -2.245   1.478   0.021  0.00  0.00    -0.267 OA
ATOM     27  C   UNL     1      -2.347   4.450   0.047  0.00  0.00    +0.010 A 
ATOM     28  C   UNL     1      -2.108   5.785   0.051  0.00  0.00    +0.057 A 
ATOM     29  S   UNL     1      -0.329   5.886   0.035  0.00  0.00    -0.076 S 
BRANCH  27  30
ATOM     30  C   UNL     1      -3.731   3.932   0.058  0.00  0.00    +0.021 A 
ATOM     31  C   UNL     1      -4.769   4.261   0.887  0.00  0.00    +0.016 A 
ATOM     32  C   UNL     1      -5.987   3.642   0.702  0.00  0.00    +0.008 A 
ATOM     33  C   UNL     1      -6.116   2.719  -0.284  0.00  0.00    +0.046 A 
ATOM     34  S   UNL     1      -4.482   2.707  -1.002  0.00  0.00    -0.097 S 
ENDBRANCH  27  30
ENDBRANCH  19  20
ENDBRANCH   2  19
TORSDOF 5
