REMARK  Name = ZINC39596499
REMARK  10 active torsions:
REMARK  status: ('A' for Active; 'I' for Inactive)
REMARK    1  A    between atoms: C_1  and  C_2
REMARK    2  A    between atoms: C_2  and  O_3
REMARK    3  A    between atoms: O_3  and  C_4
REMARK    4  A    between atoms: C_8  and  C_10
REMARK    5  A    between atoms: C_14  and  C_23
REMARK    6  A    between atoms: N_25  and  C_26
REMARK    7  A    between atoms: C_26  and  C_27
REMARK    8  A    between atoms: C_27  and  C_29
REMARK    9  A    between atoms: C_27  and  O_30
REMARK   10  A    between atoms: O_30  and  C_31
REMARK                            x       y       z     vdW  Elec       q    Type
REMARK                         _______ _______ _______ _____ _____    ______ ____
ROOT
ATOM      1  C   UNL     1       2.235  -4.313   3.782  0.00  0.00    +0.247 C 
ATOM      2  O   UNL     1       2.803  -3.583   4.571  0.00  0.00    -0.270 OA
ATOM      3  N   UNL     1       2.254  -5.648   3.965  0.00  0.00    -0.296 N 
ATOM      4  C   UNL     1       1.738  -6.697   3.055  0.00  0.00    +0.121 C 
ATOM      5  C   UNL     1       2.780  -7.835   3.139  0.00  0.00    +0.100 C 
ATOM      6  C   UNL     1       3.470  -7.635   4.499  0.00  0.00    -0.004 C 
ATOM      7  C   UNL     1       2.802  -6.399   5.120  0.00  0.00    +0.115 C 
ATOM      8  C   UNL     1       4.961  -7.378   4.303  0.00  0.00    -0.010 C 
ATOM      9  C   UNL     1       5.635  -7.239   5.671  0.00  0.00    -0.082 C 
ATOM     10  N   UNL     1       5.427  -8.468   6.448  0.00  0.00    +0.379 N 
ATOM     11  C   UNL     1       3.996  -8.657   6.712  0.00  0.00    -0.082 C 
ATOM     12  C   UNL     1       3.253  -8.856   5.387  0.00  0.00    -0.010 C 
ATOM     13  H   UNL     1       5.779  -9.257   5.927  0.00  0.00    -0.086 HD
ATOM     14  H   UNL     1       5.923  -8.398   7.324  0.00  0.00    -0.086 HD
ENDROOT
BRANCH   1  19
ATOM     15  C   UNL     1      -0.180  -3.895   0.931  0.00  0.00    +0.121 A 
ATOM     16  C   UNL     1       0.194  -2.649   0.444  0.00  0.00    +0.046 A 
ATOM     17  C   UNL     1       1.226  -1.950   1.041  0.00  0.00    +0.004 A 
ATOM     18  C   UNL     1       1.893  -2.485   2.125  0.00  0.00    +0.013 A 
ATOM     19  C   UNL     1       1.524  -3.736   2.621  0.00  0.00    +0.040 A 
ATOM     20  C   UNL     1       0.478  -4.438   2.022  0.00  0.00    +0.058 A 
BRANCH  15  21
ATOM     21  O   UNL     1      -1.195  -4.578   0.340  0.00  0.00    -0.492 OA
BRANCH  21  23
ATOM     22  C   UNL     1      -2.939  -4.869  -1.308  0.00  0.00    +0.048 C 
ATOM     23  C   UNL     1      -1.829  -3.958  -0.780  0.00  0.00    +0.225 C 
ENDBRANCH  21  23
ENDBRANCH  15  21
ENDBRANCH   1  19
BRANCH   5  24
ATOM     24  C   UNL     1       2.097  -9.177   3.087  0.00  0.00    +0.218 C 
ATOM     25  O   UNL     1       0.942  -9.284   3.442  0.00  0.00    -0.275 OA
ATOM     26  N   UNL     1       2.769 -10.259   2.647  0.00  0.00    -0.312 N 
ATOM     27  H   UNL     1       3.693 -10.174   2.363  0.00  0.00    +0.149 HD
BRANCH  26  28
ATOM     28  C   UNL     1       2.105 -11.564   2.596  0.00  0.00    +0.148 C 
BRANCH  28  29
ATOM     29  C   UNL     1       3.082 -12.613   2.062  0.00  0.00    +0.187 C 
ATOM     30  C   UNL     1       2.354 -13.948   1.892  0.00  0.00    +0.053 C 
BRANCH  29  31
ATOM     31  O   UNL     1       4.161 -12.773   2.986  0.00  0.00    -0.488 OA
BRANCH  31  32
ATOM     32  C   UNL     1       5.337 -13.237   2.487  0.00  0.00    +0.121 A 
ATOM     33  C   UNL     1       5.484 -13.431   1.121  0.00  0.00    +0.048 A 
ATOM     34  C   UNL     1       6.680 -13.902   0.616  0.00  0.00    +0.042 A 
ATOM     35  C   UNL     1       7.732 -14.181   1.471  0.00  0.00    +0.124 A 
ATOM     36  C   UNL     1       7.587 -13.988   2.834  0.00  0.00    +0.042 A 
ATOM     37  C   UNL     1       6.394 -13.511   3.342  0.00  0.00    +0.048 A 
ATOM     38  F   UNL     1       8.901 -14.642   0.975  0.00  0.00    -0.205 F 
ENDBRANCH  31  32
ENDBRANCH  29  31
ENDBRANCH  28  29
ENDBRANCH  26  28
ENDBRANCH   5  24
TORSDOF 8
