REMARK  Name = ZINC20850085
REMARK  7 active torsions:
REMARK  status: ('A' for Active; 'I' for Inactive)
REMARK    1  A    between atoms: C_1  and  C_2
REMARK    2  A    between atoms: C_2  and  C_34
REMARK    3  A    between atoms: C_6  and  C_24
REMARK    4  A    between atoms: C_11  and  S_13
REMARK    5  A    between atoms: S_13  and  C_14
REMARK    6  A    between atoms: C_14  and  C_15
REMARK    7  A    between atoms: C_15  and  C_17
REMARK                            x       y       z     vdW  Elec       q    Type
REMARK                         _______ _______ _______ _____ _____    ______ ____
ROOT
ATOM      1  C   UNL     1      -5.686   0.061  -2.829  0.00  0.00    +0.011 C 
ATOM      2  C   UNL     1      -5.064   1.324  -3.427  0.00  0.00    -0.023 C 
ATOM      3  C   UNL     1      -5.165   2.474  -2.423  0.00  0.00    +0.058 C 
ATOM      4  C   UNL     1      -4.405   2.119  -1.167  0.00  0.00    +0.020 C 
ATOM      5  C   UNL     1      -3.310   1.332  -1.218  0.00  0.00    +0.041 C 
ATOM      6  C   UNL     1      -2.514   0.979   0.019  0.00  0.00    +0.175 C 
ATOM      7  N   UNL     1      -3.276   1.315   1.215  0.00  0.00    -0.220 N 
ATOM      8  C   UNL     1      -4.381   2.099   1.200  0.00  0.00    +0.219 A 
ATOM      9  N   UNL     1      -4.818   2.210   2.424  0.00  0.00    -0.187 NA
ATOM     10  C   UNL     1      -4.024   1.510   3.248  0.00  0.00    +0.211 A 
ATOM     11  N   UNL     1      -3.067   0.945   2.543  0.00  0.00    -0.141 NA
ATOM     12  N   UNL     1      -4.873   2.632   0.019  0.00  0.00    -0.287 N 
ATOM     13  C   UNL     1      -2.860   0.800  -2.441  0.00  0.00    +0.164 C 
ATOM     14  O   UNL     1      -1.865   0.103  -2.455  0.00  0.00    -0.292 OA
ATOM     15  C   UNL     1      -3.583   1.076  -3.730  0.00  0.00    +0.086 C 
ATOM     16  C   UNL     1      -5.798   1.699  -4.716  0.00  0.00    +0.011 C 
ATOM     17  H   UNL     1      -5.618   3.442   0.012  0.00  0.00    +0.155 HD
ENDROOT
BRANCH   6  18
ATOM     18  C   UNL     1      -1.219   1.750   0.017  0.00  0.00    -0.018 A 
ATOM     19  C   UNL     1      -0.013   1.076   0.008  0.00  0.00    +0.007 A 
ATOM     20  C   UNL     1       1.175   1.783   0.000  0.00  0.00    +0.020 A 
ATOM     21  C   UNL     1       1.156   3.166   0.008  0.00  0.00    +0.041 A 
ATOM     22  C   UNL     1      -0.052   3.841   0.023  0.00  0.00    +0.020 A 
ATOM     23  C   UNL     1      -1.239   3.133   0.031  0.00  0.00    +0.007 A 
ATOM     24 CL   UNL     1       2.647   4.055  -0.002  0.00  0.00    -0.084 Cl
ENDBRANCH   6  18
BRANCH  10  25
ATOM     25  S   UNL     1      -4.229   1.369   4.992  0.00  0.00    -0.076 S 
BRANCH  25  26
ATOM     26  C   UNL     1      -5.706   2.362   5.342  0.00  0.00    +0.157 C 
BRANCH  26  27
ATOM     27  C   UNL     1      -5.997   2.326   6.820  0.00  0.00    +0.173 C 
ATOM     28  O   UNL     1      -5.279   1.693   7.564  0.00  0.00    -0.291 OA
BRANCH  27  29
ATOM     29  C   UNL     1      -7.153   3.060   7.361  0.00  0.00    +0.018 A 
ATOM     30  C   UNL     1      -7.980   3.796   6.507  0.00  0.00    +0.011 A 
ATOM     31  C   UNL     1      -9.064   4.476   7.020  0.00  0.00    +0.001 A 
ATOM     32  C   UNL     1      -9.328   4.441   8.378  0.00  0.00    +0.000 A 
ATOM     33  C   UNL     1      -8.511   3.719   9.231  0.00  0.00    +0.001 A 
ATOM     34  C   UNL     1      -7.426   3.029   8.732  0.00  0.00    +0.011 A 
ENDBRANCH  27  29
ENDBRANCH  26  27
ENDBRANCH  25  26
ENDBRANCH  10  25
TORSDOF 5
