REMARK  Name = ZINC39946056
REMARK  10 active torsions:
REMARK  status: ('A' for Active; 'I' for Inactive)
REMARK    1  A    between atoms: C_1  and  C_2
REMARK    2  A    between atoms: C_2  and  C_3
REMARK    3  A    between atoms: C_2  and  C_4
REMARK    4  A    between atoms: C_4  and  C_6
REMARK    5  A    between atoms: C_4  and  N_28
REMARK    6  A    between atoms: C_6  and  O_8
REMARK    7  A    between atoms: O_8  and  C_9
REMARK    8  A    between atoms: C_9  and  C_11
REMARK    9  A    between atoms: C_9  and  C_17
REMARK   10  A    between atoms: C_17  and  C_19
REMARK                            x       y       z     vdW  Elec       q    Type
REMARK                         _______ _______ _______ _____ _____    ______ ____
ROOT
ATOM      1  C   UNL     1      -2.455   0.430   3.631  0.00  0.00    +0.277 C 
ENDROOT
BRANCH   1   2
ATOM      2  C   UNL     1      -2.035   1.857   3.870  0.00  0.00    +0.000 A 
ATOM      3  C   UNL     1      -0.714   2.227   3.698  0.00  0.00    +0.008 A 
ATOM      4  C   UNL     1      -0.329   3.536   3.918  0.00  0.00    +0.000 A 
ATOM      5  C   UNL     1      -1.264   4.476   4.309  0.00  0.00    +0.000 A 
ATOM      6  C   UNL     1      -2.585   4.106   4.480  0.00  0.00    +0.000 A 
ATOM      7  C   UNL     1      -2.971   2.798   4.256  0.00  0.00    +0.008 A 
ENDBRANCH   1   2
BRANCH   1   8
ATOM      8  C   UNL     1      -2.223  -0.379   4.881  0.00  0.00    +0.206 C 
ATOM      9  O   UNL     1      -1.236  -1.081   4.976  0.00  0.00    -0.288 OA
BRANCH   8  10
ATOM     10  C   UNL     1      -3.152  -0.321   5.941  0.00  0.00    +0.027 C 
ATOM     11  C   UNL     1      -3.085  -0.990   7.150  0.00  0.00    +0.006 A 
ATOM     12  C   UNL     1      -2.144  -1.892   7.699  0.00  0.00    +0.010 A 
ATOM     13  C   UNL     1      -2.334  -2.408   8.935  0.00  0.00    +0.001 A 
ATOM     14  C   UNL     1      -3.451  -2.084   9.722  0.00  0.00    +0.002 A 
ATOM     15  C   UNL     1      -4.408  -1.234   9.291  0.00  0.00    +0.026 A 
ATOM     16  C   UNL     1      -4.277  -0.627   7.956  0.00  0.00    +0.043 A 
ATOM     17  N   UNL     1      -5.033   0.207   7.301  0.00  0.00    -0.380 N 
ATOM     18  C   UNL     1      -4.426   0.493   5.998  0.00  0.00    +0.152 C 
ATOM     19  H   UNL     1      -5.866   0.584   7.627  0.00  0.00    +0.160 HD
ENDBRANCH   8  10
ENDBRANCH   1   8
BRANCH   1  20
ATOM     20  O   UNL     1      -1.686  -0.120   2.559  0.00  0.00    -0.447 OA
BRANCH  20  21
ATOM     21  C   UNL     1      -2.182   0.020   1.319  0.00  0.00    +0.330 C 
ATOM     22  O   UNL     1      -3.234   0.589   1.150  0.00  0.00    -0.249 OA
BRANCH  21  23
ATOM     23  C   UNL     1      -1.427  -0.534   0.139  0.00  0.00    +0.196 C 
BRANCH  23  24
ATOM     24  N   UNL     1      -2.171  -0.255  -1.092  0.00  0.00    -0.220 N 
ATOM     25  C   UNL     1      -3.458  -0.587  -1.295  0.00  0.00    +0.255 C 
ATOM     26  O   UNL     1      -4.177  -1.158  -0.499  0.00  0.00    -0.270 OA
ATOM     27  C   UNL     1      -3.853  -0.141  -2.648  0.00  0.00    +0.049 A 
ATOM     28  C   UNL     1      -5.023  -0.208  -3.386  0.00  0.00    +0.014 A 
ATOM     29  C   UNL     1      -5.059   0.323  -4.666  0.00  0.00    +0.001 A 
ATOM     30  C   UNL     1      -3.937   0.918  -5.210  0.00  0.00    +0.001 A 
ATOM     31  C   UNL     1      -2.759   0.992  -4.483  0.00  0.00    +0.014 A 
ATOM     32  C   UNL     1      -2.708   0.466  -3.203  0.00  0.00    +0.049 A 
ATOM     33  C   UNL     1      -1.658   0.373  -2.166  0.00  0.00    +0.255 C 
ATOM     34  O   UNL     1      -0.522   0.791  -2.267  0.00  0.00    -0.270 OA
ENDBRANCH  23  24
BRANCH  23  36
ATOM     35  C   UNL     1      -0.207   1.645   0.078  0.00  0.00    +0.009 C 
ATOM     36  C   UNL     1      -0.048   0.124   0.061  0.00  0.00    +0.015 C 
ATOM     37  C   UNL     1       0.795  -0.314   1.261  0.00  0.00    +0.009 C 
ENDBRANCH  23  36
ENDBRANCH  21  23
ENDBRANCH  20  21
ENDBRANCH   1  20
TORSDOF 8
