REMARK  Name = ZINC09033392
REMARK  7 active torsions:
REMARK  status: ('A' for Active; 'I' for Inactive)
REMARK    1  A    between atoms: C_3  and  N_29
REMARK    2  A    between atoms: C_6  and  C_7
REMARK    3  A    between atoms: N_9  and  C_10
REMARK    4  A    between atoms: C_10  and  C_12
REMARK    5  A    between atoms: C_10  and  O_16
REMARK    6  A    between atoms: O_16  and  C_17
REMARK    7  A    between atoms: C_17  and  C_18
REMARK                            x       y       z     vdW  Elec       q    Type
REMARK                         _______ _______ _______ _____ _____    ______ ____
ROOT
ATOM      1  C   UNL     1      -4.958   3.905   0.070  0.00  0.00    +0.257 C 
ENDROOT
BRANCH   1   4
ATOM      2  C   UNL     1      -2.522   3.870   0.047  0.00  0.00    +0.246 C 
ATOM      3  O   UNL     1      -2.534   5.085   0.054  0.00  0.00    -0.270 OA
ATOM      4  N   UNL     1      -3.683   3.185   0.054  0.00  0.00    -0.283 N 
ATOM      5  H   UNL     1      -3.673   2.215   0.048  0.00  0.00    +0.152 HD
BRANCH   2  11
ATOM      6  C   UNL     1      -1.217   1.748   0.017  0.00  0.00    +0.015 A 
ATOM      7  C   UNL     1      -0.013   1.076   0.008  0.00  0.00    +0.033 A 
ATOM      8  C   UNL     1       1.177   1.782   0.000  0.00  0.00    +0.126 A 
ATOM      9  C   UNL     1       1.167   3.166   0.008  0.00  0.00    +0.033 A 
ATOM     10  C   UNL     1      -0.031   3.850   0.024  0.00  0.00    +0.015 A 
ATOM     11  C   UNL     1      -1.234   3.143   0.031  0.00  0.00    +0.037 A 
BRANCH   8  12
ATOM     12  N   UNL     1       2.466   1.055  -0.016  0.00  0.00    +0.056 N 
ATOM     13  O   UNL     1       2.478  -0.163  -0.022  0.00  0.00    -0.126 OA
ATOM     14  O   UNL     1       3.515   1.674  -0.022  0.00  0.00    -0.126 OA
ENDBRANCH   8  12
ENDBRANCH   2  11
ENDBRANCH   1   4
BRANCH   1  15
ATOM     15  C   UNL     1      -5.937   3.188   1.002  0.00  0.00    +0.233 C 
ATOM     16 CL   UNL     1      -6.204   1.505   0.414  0.00  0.00    -0.079 Cl
ATOM     17 CL   UNL     1      -5.253   3.140   2.670  0.00  0.00    -0.079 Cl
ATOM     18 CL   UNL     1      -7.507   4.074   1.022  0.00  0.00    -0.079 Cl
ENDBRANCH   1  15
BRANCH   1  19
ATOM     19  O   UNL     1      -5.500   3.943  -1.252  0.00  0.00    -0.354 OA
BRANCH  19  20
ATOM     20  C   UNL     1      -4.777   4.783  -2.153  0.00  0.00    +0.164 C 
BRANCH  20  21
ATOM     21  C   UNL     1      -5.443   4.747  -3.530  0.00  0.00    +0.001 C 
ATOM     22  C   UNL     1      -5.340   3.335  -4.108  0.00  0.00    +0.002 C 
ATOM     23  C   UNL     1      -3.859   2.983  -4.283  0.00  0.00    -0.018 C 
ATOM     24  C   UNL     1      -3.214   4.010  -5.213  0.00  0.00    -0.078 C 
ATOM     25  C   UNL     1      -4.742   5.743  -4.460  0.00  0.00    -0.063 C 
ATOM     26  C   UNL     1      -4.830   7.133  -3.823  0.00  0.00    -0.015 C 
ATOM     27  C   UNL     1      -4.103   8.153  -4.699  0.00  0.00    -0.003 C 
ATOM     28  C   UNL     1      -2.645   7.709  -4.862  0.00  0.00    -0.019 C 
ATOM     29  C   UNL     1      -2.622   6.319  -5.496  0.00  0.00    -0.078 C 
ATOM     30  N   UNL     1      -3.317   5.356  -4.622  0.00  0.00    +0.382 N 
ATOM     31  H   UNL     1      -2.868   5.353  -3.699  0.00  0.00    -0.081 HD
ENDBRANCH  20  21
ENDBRANCH  19  20
ENDBRANCH   1  19
TORSDOF 7
