REMARK  Name = ZINC39659014
REMARK  6 active torsions:
REMARK  status: ('A' for Active; 'I' for Inactive)
REMARK    1  A    between atoms: C_1  and  C_2
REMARK    2  A    between atoms: C_2  and  C_39
REMARK    3  A    between atoms: C_5  and  C_8
REMARK    4  A    between atoms: C_8  and  N_9
REMARK    5  A    between atoms: C_10  and  C_12
REMARK    6  A    between atoms: C_23  and  C_25
REMARK                            x       y       z     vdW  Elec       q    Type
REMARK                         _______ _______ _______ _____ _____    ______ ____
ROOT
ATOM      1  C   UNL     1       3.944  -1.466   5.048  0.00  0.00    +0.100 C 
ATOM      2  C   UNL     1       4.963  -0.308   5.141  0.00  0.00    +0.121 C 
ATOM      3  N   UNL     1       5.634  -0.503   6.447  0.00  0.00    -0.296 N 
ATOM      4  C   UNL     1       5.804  -1.972   6.558  0.00  0.00    +0.115 C 
ATOM      5  C   UNL     1       4.501  -2.557   5.979  0.00  0.00    -0.004 C 
ATOM      6  C   UNL     1       4.799  -3.826   5.187  0.00  0.00    -0.010 C 
ATOM      7  C   UNL     1       5.295  -4.914   6.143  0.00  0.00    -0.082 C 
ATOM      8  N   UNL     1       4.272  -5.178   7.162  0.00  0.00    +0.379 N 
ATOM      9  C   UNL     1       4.058  -3.978   7.979  0.00  0.00    -0.082 C 
ATOM     10  C   UNL     1       3.509  -2.850   7.101  0.00  0.00    -0.010 C 
ATOM     11  C   UNL     1       6.006   0.441   7.335  0.00  0.00    +0.247 C 
ATOM     12  O   UNL     1       6.631   0.127   8.329  0.00  0.00    -0.270 OA
ATOM     13  H   UNL     1       3.407  -5.433   6.709  0.00  0.00    -0.086 HD
ATOM     14  H   UNL     1       4.575  -5.937   7.753  0.00  0.00    -0.086 HD
ENDROOT
BRANCH  11  15
ATOM     15  C   UNL     1       5.654   1.856   7.098  0.00  0.00    +0.045 A 
ATOM     16  C   UNL     1       5.930   2.451   5.862  0.00  0.00    +0.014 A 
ATOM     17  C   UNL     1       5.603   3.771   5.639  0.00  0.00    +0.001 A 
ATOM     18  C   UNL     1       4.998   4.523   6.634  0.00  0.00    +0.012 A 
ATOM     19  C   UNL     1       4.716   3.951   7.869  0.00  0.00    +0.031 A 
ATOM     20  C   UNL     1       5.039   2.606   8.109  0.00  0.00    +0.006 A 
ATOM     21  C   UNL     1       4.626   2.256   9.491  0.00  0.00    -0.006 A 
ATOM     22  C   UNL     1       4.721   1.075  10.216  0.00  0.00    +0.009 A 
ATOM     23  C   UNL     1       4.247   1.020  11.517  0.00  0.00    +0.001 A 
ATOM     24  C   UNL     1       3.678   2.134  12.102  0.00  0.00    +0.001 A 
ATOM     25  C   UNL     1       3.576   3.320  11.392  0.00  0.00    +0.012 A 
ATOM     26  C   UNL     1       4.048   3.389  10.088  0.00  0.00    +0.030 A 
ATOM     27  C   UNL     1       4.091   4.493   9.099  0.00  0.00    +0.194 C 
ATOM     28  O   UNL     1       3.680   5.624   9.261  0.00  0.00    -0.287 OA
ENDBRANCH  11  15
BRANCH   1  30
ATOM     29  N   UNL     1       2.763  -2.646   3.224  0.00  0.00    -0.312 N 
ATOM     30  C   UNL     1       3.859  -1.978   3.634  0.00  0.00    +0.218 C 
ATOM     31  O   UNL     1       4.776  -1.787   2.863  0.00  0.00    -0.275 OA
ATOM     32  H   UNL     1       2.029  -2.799   3.840  0.00  0.00    +0.149 HD
BRANCH  29  33
ATOM     33  C   UNL     1       2.679  -3.143   1.848  0.00  0.00    +0.138 C 
BRANCH  33  38
ATOM     34  C   UNL     1      -1.037  -5.777   2.338  0.00  0.00    +0.074 C 
ATOM     35  C   UNL     1       0.354  -5.921   1.718  0.00  0.00    +0.165 C 
ATOM     36  O   UNL     1       0.314  -5.515   0.344  0.00  0.00    -0.347 OA
ATOM     37  C   UNL     1       1.218  -4.402   0.199  0.00  0.00    +0.196 C 
ATOM     38  C   UNL     1       1.343  -3.861   1.645  0.00  0.00    +0.164 C 
ATOM     39  O   UNL     1       1.286  -5.081   2.422  0.00  0.00    -0.342 OA
ATOM     40  C   UNL     1       0.809  -7.379   1.807  0.00  0.00    +0.074 C 
ENDBRANCH  33  38
ENDBRANCH  29  33
ENDBRANCH   1  30
TORSDOF 4
