REMARK  Name = ZINC15006331
REMARK  11 active torsions:
REMARK  status: ('A' for Active; 'I' for Inactive)
REMARK    1  A    between atoms: C_1  and  C_2
REMARK    2  A    between atoms: C_4  and  C_16
REMARK    3  A    between atoms: C_9  and  O_14
REMARK    4  A    between atoms: C_11  and  O_12
REMARK    5  A    between atoms: O_12  and  C_13
REMARK    6  A    between atoms: O_14  and  C_15
REMARK    7  A    between atoms: C_20  and  O_22
REMARK    8  A    between atoms: O_22  and  C_23
REMARK    9  A    between atoms: C_29  and  C_31
REMARK   10  A    between atoms: C_36  and  C_38
REMARK   11  A    between atoms: C_36  and  C_39
REMARK                            x       y       z     vdW  Elec       q    Type
REMARK                         _______ _______ _______ _____ _____    ______ ____
ROOT
ATOM      1  C   UNL     1      -3.588  -0.817  -3.056  0.00  0.00    +0.004 A 
ATOM      2  C   UNL     1      -2.993  -0.636  -1.806  0.00  0.00    +0.019 A 
ATOM      3  C   UNL     1      -3.019   0.604  -1.212  0.00  0.00    +0.016 A 
ATOM      4  C   UNL     1      -3.604   1.687  -1.853  0.00  0.00    +0.167 A 
ATOM      5  C   UNL     1      -4.216   1.506  -3.091  0.00  0.00    +0.162 A 
ATOM      6  C   UNL     1      -4.207   0.259  -3.690  0.00  0.00    +0.059 A 
ATOM      7  O   UNL     1      -3.524   2.927  -1.308  0.00  0.00    -0.486 OA
ATOM      8  C   UNL     1      -2.226   3.532  -1.322  0.00  0.00    +0.248 C 
ATOM      9  C   UNL     1      -1.461   3.164  -0.053  0.00  0.00    +0.149 C 
ATOM     10  N   UNL     1      -1.262   1.716   0.036  0.00  0.00    -0.294 N 
ATOM     11  C   UNL     1      -2.413   0.816   0.161  0.00  0.00    +0.146 C 
ATOM     12  C   UNL     1      -0.014   1.209   0.009  0.00  0.00    +0.219 C 
ATOM     13  O   UNL     1       0.151   0.007   0.006  0.00  0.00    -0.275 OA
ENDROOT
BRANCH   1  17
ATOM     14  C   UNL     1      -4.789  -3.730  -6.921  0.00  0.00    +0.044 C 
ATOM     15  C   UNL     1      -4.147  -3.530  -5.572  0.00  0.00    -0.039 A 
ATOM     16  C   UNL     1      -4.170  -2.312  -4.960  0.00  0.00    +0.032 A 
ATOM     17  C   UNL     1      -3.562  -2.149  -3.706  0.00  0.00    +0.072 A 
ATOM     18  N   UNL     1      -2.971  -3.155  -3.090  0.00  0.00    -0.243 NA
ATOM     19  C   UNL     1      -2.924  -4.372  -3.639  0.00  0.00    +0.114 A 
ATOM     20  C   UNL     1      -3.515  -4.600  -4.906  0.00  0.00    +0.010 A 
ATOM     21  C   UNL     1      -3.463  -5.881  -5.477  0.00  0.00    +0.056 A 
ATOM     22  C   UNL     1      -2.837  -6.903  -4.799  0.00  0.00    +0.124 A 
ATOM     23  C   UNL     1      -2.255  -6.678  -3.550  0.00  0.00    +0.093 A 
ATOM     24  C   UNL     1      -2.291  -5.443  -2.971  0.00  0.00    +0.149 A 
BRANCH  24  25
ATOM     25  O   UNL     1      -1.718  -5.244  -1.755  0.00  0.00    -0.493 OA
ATOM     26  C   UNL     1      -1.096  -6.372  -1.139  0.00  0.00    +0.277 C 
ENDBRANCH  24  25
BRANCH  22  27
ATOM     27  O   UNL     1      -2.786  -8.143  -5.351  0.00  0.00    -0.495 OA
ATOM     28  C   UNL     1      -2.123  -9.161  -4.599  0.00  0.00    +0.277 C 
ENDBRANCH  22  27
ENDBRANCH   1  17
BRANCH  12  29
ATOM     29  C   UNL     1       1.175   2.134  -0.025  0.00  0.00    +0.080 C 
ATOM     30  C   UNL     1       1.530   2.563   1.402  0.00  0.00    +0.041 C 
ATOM     31  C   UNL     1       2.786   3.438   1.365  0.00  0.00    +0.161 C 
ATOM     32  O   UNL     1       3.854   2.712   0.753  0.00  0.00    -0.374 OA
ATOM     33  C   UNL     1       3.596   2.325  -0.599  0.00  0.00    +0.065 C 
ATOM     34  C   UNL     1       2.373   1.406  -0.643  0.00  0.00    +0.047 C 
ATOM     35  C   UNL     1       3.327   3.572  -1.443  0.00  0.00    +0.041 C 
ATOM     36  C   UNL     1       4.812   1.583  -1.157  0.00  0.00    +0.041 C 
ENDBRANCH  12  29
BRANCH   5  37
ATOM     37  O   UNL     1      -4.823   2.554  -3.710  0.00  0.00    -0.491 OA
ATOM     38  C   UNL     1      -5.431   2.295  -4.977  0.00  0.00    +0.277 C 
ENDBRANCH   5  37
TORSDOF 5
