REMARK  Name = ZINC45202192
REMARK  1 active torsions:
REMARK  status: ('A' for Active; 'I' for Inactive)
REMARK    1  A    between atoms: C_8  and  C_20
REMARK                            x       y       z     vdW  Elec       q    Type
REMARK                         _______ _______ _______ _____ _____    ______ ____
ROOT
ATOM      1  C   UNL     1      -0.018   1.478   0.010  0.00  0.00    +0.156 C 
ATOM      2  C   UNL     1       1.429   1.860  -0.002  0.00  0.00    +0.116 C 
ATOM      3  C   UNL     1       1.963   3.134  -0.551  0.00  0.00    +0.008 C 
ATOM      4  C   UNL     1       3.233   3.155  -0.128  0.00  0.00    +0.004 C 
ATOM      5  C   UNL     1       3.451   1.897   0.721  0.00  0.00    +0.157 C 
ATOM      6  O   UNL     1       2.100   1.718   1.280  0.00  0.00    -0.359 OA
ATOM      7  C   UNL     1       3.517   0.689  -0.268  0.00  0.00    +0.150 C 
ATOM      8  C   UNL     1       2.067   0.689  -0.836  0.00  0.00    +0.129 C 
ATOM      9  C   UNL     1       1.212  -0.468  -0.403  0.00  0.00    +0.229 C 
ATOM     10  O   UNL     1       1.549  -1.633  -0.414  0.00  0.00    -0.275 OA
ATOM     11  N   UNL     1       0.002  -0.004   0.002  0.00  0.00    -0.234 N 
ATOM     12  C   UNL     1      -1.070  -0.808   0.360  0.00  0.00    +0.266 A 
ATOM     13  N   UNL     1      -2.273  -0.400   0.757  0.00  0.00    -0.090 NA
ATOM     14  N   UNL     1      -2.981  -1.451   0.994  0.00  0.00    -0.020 NA
ATOM     15  N   UNL     1      -2.272  -2.499   0.763  0.00  0.00    -0.020 NA
ATOM     16  N   UNL     1      -1.099  -2.139   0.368  0.00  0.00    -0.090 NA
ENDROOT
BRANCH   7  17
ATOM     17  C   UNL     1       4.542   0.929  -1.347  0.00  0.00    +0.363 C 
ATOM     18  O   UNL     1       5.715   1.077  -1.050  0.00  0.00    -0.246 OA
ATOM     19  O   UNL     1       4.198   0.976  -2.515  0.00  0.00    -0.246 OA
ENDBRANCH   7  17
TORSDOF 1
