REMARK  Name = ZINC15047269
REMARK  6 active torsions:
REMARK  status: ('A' for Active; 'I' for Inactive)
REMARK    1  A    between atoms: C_1  and  C_2
REMARK    2  A    between atoms: C_2  and  C_4
REMARK    3  A    between atoms: C_2  and  N_16
REMARK    4  A    between atoms: N_6  and  C_7
REMARK    5  A    between atoms: C_10  and  C_13
REMARK    6  A    between atoms: C_20  and  C_21
REMARK                            x       y       z     vdW  Elec       q    Type
REMARK                         _______ _______ _______ _____ _____    ______ ____
ROOT
ATOM      1  C   UNL     1       1.314   1.968   0.529  0.00  0.00    +0.038 C 
ATOM      2  C   UNL     1       0.973   0.493   0.308  0.00  0.00    +0.166 C 
ENDROOT
BRANCH   2   3
ATOM      3  N   UNL     1       1.584   0.032  -0.941  0.00  0.00    -0.244 N 
ATOM      4  C   UNL     1       2.452  -0.965  -0.907  0.00  0.00    +0.259 C 
ATOM      5  O   UNL     1       2.757  -1.512   0.137  0.00  0.00    -0.269 OA
ATOM      6  C   UNL     1       3.032  -1.382  -2.201  0.00  0.00    +0.077 C 
ATOM      7  C   UNL     1       3.932  -2.360  -2.470  0.00  0.00    +0.028 C 
ATOM      8  S   UNL     1       2.219  -0.243  -3.314  0.00  0.00    -0.061 S 
ATOM      9  C   UNL     1       1.245   0.632  -2.100  0.00  0.00    +0.121 C 
ATOM     10  S   UNL     1       0.147   1.922  -2.348  0.00  0.00    -0.027 S 
BRANCH   7  11
ATOM     11  C   UNL     1       4.477  -2.504  -3.828  0.00  0.00    -0.024 A 
ATOM     12  C   UNL     1       4.226  -1.524  -4.794  0.00  0.00    +0.009 A 
ATOM     13  C   UNL     1       4.740  -1.666  -6.065  0.00  0.00    +0.016 A 
ATOM     14  C   UNL     1       5.503  -2.776  -6.386  0.00  0.00    +0.018 A 
ATOM     15  C   UNL     1       5.756  -3.751  -5.436  0.00  0.00    +0.016 A 
ATOM     16  C   UNL     1       5.254  -3.620  -4.159  0.00  0.00    +0.009 A 
ATOM     17 BR   UNL     1       6.204  -2.962  -8.133  0.00  0.00    -0.050 Br
ENDBRANCH   7  11
ENDBRANCH   2   3
BRANCH   2  18
ATOM     18  C   UNL     1      -0.523   0.330   0.226  0.00  0.00    +0.238 C 
ATOM     19  O   UNL     1      -1.029  -0.126  -0.778  0.00  0.00    -0.273 OA
ATOM     20  N   UNL     1      -1.298   0.690   1.267  0.00  0.00    -0.284 N 
ATOM     21  H   UNL     1      -0.891   1.008   2.088  0.00  0.00    +0.155 HD
BRANCH  20  22
ATOM     22  C   UNL     1      -2.685   0.607   1.165  0.00  0.00    +0.033 A 
ATOM     23  C   UNL     1      -3.267  -0.436   0.450  0.00  0.00    +0.024 A 
ATOM     24  C   UNL     1      -4.632  -0.521   0.346  0.00  0.00    +0.017 A 
ATOM     25  C   UNL     1      -5.440   0.442   0.961  0.00  0.00    +0.063 A 
ATOM     26  C   UNL     1      -4.851   1.488   1.680  0.00  0.00    +0.017 A 
ATOM     27  C   UNL     1      -3.486   1.564   1.782  0.00  0.00    +0.024 A 
BRANCH  25  28
ATOM     28  C   UNL     1      -6.905   0.354   0.853  0.00  0.00    +0.387 C 
ATOM     29  O   UNL     1      -7.418  -0.561   0.224  0.00  0.00    -0.241 OA
ATOM     30  O   UNL     1      -7.610   1.196   1.391  0.00  0.00    -0.241 OA
ENDBRANCH  25  28
ENDBRANCH  20  22
ENDBRANCH   2  18
TORSDOF 5
