REMARK  Name = ZINC02728745
REMARK  11 active torsions:
REMARK  status: ('A' for Active; 'I' for Inactive)
REMARK    1  A    between atoms: C_1  and  C_2
REMARK    2  A    between atoms: C_2  and  O_3
REMARK    3  A    between atoms: O_3  and  C_4
REMARK    4  A    between atoms: C_4  and  C_6
REMARK    5  A    between atoms: C_7  and  C_35
REMARK    6  A    between atoms: C_11  and  C_13
REMARK    7  A    between atoms: C_15  and  C_21
REMARK    8  A    between atoms: C_16  and  C_20
REMARK    9  A    between atoms: C_18  and  C_19
REMARK   10  A    between atoms: C_21  and  O_22
REMARK   11  A    between atoms: O_22  and  C_23
REMARK                            x       y       z     vdW  Elec       q    Type
REMARK                         _______ _______ _______ _____ _____    ______ ____
ROOT
ATOM      1  C   UNL     1      -6.170  -0.591  -0.585  0.00  0.00    +0.065 C 
ATOM      2  C   UNL     1      -5.524   0.585  -0.505  0.00  0.00    +0.016 C 
ATOM      3  N   UNL     1      -4.926   0.969   0.663  0.00  0.00    -0.321 N 
ATOM      4  C   UNL     1      -5.292   0.399   1.853  0.00  0.00    +0.015 C 
ATOM      5  C   UNL     1      -5.927  -0.791   1.875  0.00  0.00    +0.024 C 
ATOM      6  C   UNL     1      -6.248  -1.517   0.593  0.00  0.00    +0.092 C 
ATOM      7  C   UNL     1      -6.307  -1.389   3.090  0.00  0.00    +0.162 C 
ATOM      8  O   UNL     1      -6.890  -2.454   3.075  0.00  0.00    -0.292 OA
ATOM      9  C   UNL     1      -6.003  -0.732   4.409  0.00  0.00    +0.080 C 
ATOM     10  C   UNL     1      -4.742   0.126   4.260  0.00  0.00    +0.014 C 
ATOM     11  C   UNL     1      -4.971   1.134   3.131  0.00  0.00    +0.051 C 
ATOM     12  C   UNL     1      -5.459   1.486  -1.711  0.00  0.00    +0.061 C 
ATOM     13  H   UNL     1      -4.144   1.743   0.652  0.00  0.00    +0.152 HD
ENDROOT
BRANCH   6  14
ATOM     14  C   UNL     1      -5.266  -2.644   0.403  0.00  0.00    -0.032 A 
ATOM     15  C   UNL     1      -3.915  -2.371   0.293  0.00  0.00    +0.012 A 
ATOM     16  C   UNL     1      -3.014  -3.404   0.114  0.00  0.00    -0.007 A 
ATOM     17  C   UNL     1      -3.462  -4.710   0.055  0.00  0.00    -0.044 A 
ATOM     18  C   UNL     1      -4.812  -4.983   0.169  0.00  0.00    +0.007 A 
ATOM     19  C   UNL     1      -5.714  -3.950   0.343  0.00  0.00    -0.046 A 
ATOM     20  C   UNL     1      -7.186  -4.247   0.468  0.00  0.00    +0.044 C 
ATOM     21  C   UNL     1      -2.479  -5.836  -0.135  0.00  0.00    +0.044 C 
BRANCH  16  22
ATOM     22  C   UNL     1      -1.541  -3.106  -0.011  0.00  0.00    +0.264 C 
BRANCH  22  23
ATOM     23  O   UNL     1      -1.331  -1.696   0.081  0.00  0.00    -0.486 OA
BRANCH  23  24
ATOM     24  C   UNL     1      -0.049  -1.255  -0.013  0.00  0.00    +0.139 A 
ATOM     25  C   UNL     1       0.986  -2.162  -0.190  0.00  0.00    +0.047 A 
ATOM     26  C   UNL     1       2.289  -1.713  -0.285  0.00  0.00    +0.004 A 
ATOM     27  C   UNL     1       2.562  -0.360  -0.205  0.00  0.00    +0.002 A 
ATOM     28  C   UNL     1       1.534   0.547  -0.029  0.00  0.00    +0.023 A 
ATOM     29  C   UNL     1       0.228   0.102   0.068  0.00  0.00    +0.083 A 
ATOM     30 CL   UNL     1      -1.064   1.242   0.282  0.00  0.00    -0.080 Cl
ENDBRANCH  23  24
ENDBRANCH  22  23
ENDBRANCH  16  22
ENDBRANCH   6  14
BRANCH   1  31
ATOM     31  C   UNL     1      -6.788  -0.962  -1.801  0.00  0.00    +0.338 C 
ATOM     32  O   UNL     1      -6.837  -0.171  -2.725  0.00  0.00    -0.245 OA
BRANCH  31  33
ATOM     33  O   UNL     1      -7.325  -2.193  -1.938  0.00  0.00    -0.462 OA
BRANCH  33  35
ATOM     34  C   UNL     1      -8.481  -3.928  -3.160  0.00  0.00    +0.048 C 
ATOM     35  C   UNL     1      -7.933  -2.500  -3.194  0.00  0.00    +0.229 C 
ENDBRANCH  33  35
ENDBRANCH  31  33
ENDBRANCH   1  31
TORSDOF 7
