REMARK  Name = ZINC09357417
REMARK  5 active torsions:
REMARK  status: ('A' for Active; 'I' for Inactive)
REMARK    1  A    between atoms: C_4  and  N_7
REMARK    2  A    between atoms: N_10  and  C_13
REMARK    3  A    between atoms: C_13  and  S_15
REMARK    4  A    between atoms: S_15  and  C_16
REMARK    5  A    between atoms: C_16  and  C_17
REMARK                            x       y       z     vdW  Elec       q    Type
REMARK                         _______ _______ _______ _____ _____    ______ ____
ROOT
ATOM      1  C   UNL     1      -7.855   2.131   0.049  0.00  0.00    +0.172 C 
ENDROOT
BRANCH   1   2
ATOM      2  C   UNL     1      -6.416   2.579   0.044  0.00  0.00    +0.229 C 
ATOM      3  O   UNL     1      -6.150   3.762   0.049  0.00  0.00    -0.275 OA
ATOM      4  N   UNL     1      -5.426   1.666   0.035  0.00  0.00    -0.265 N 
ATOM      5  C   UNL     1      -4.112   2.075   0.031  0.00  0.00    +0.146 A 
ATOM      6  N   UNL     1      -3.766   3.356   0.037  0.00  0.00    -0.304 N 
ATOM      7  C   UNL     1      -2.550   3.854   0.046  0.00  0.00    +0.259 A 
ATOM      8  O   UNL     1      -2.490   5.072   0.052  0.00  0.00    -0.267 OA
ATOM      9  C   UNL     1      -1.259   3.169   0.031  0.00  0.00    +0.053 A 
ATOM     10  C   UNL     1      -0.050   3.872   0.022  0.00  0.00    +0.014 A 
ATOM     11  C   UNL     1       1.140   3.182   0.008  0.00  0.00    +0.001 A 
ATOM     12  C   UNL     1       1.170   1.795   0.001  0.00  0.00    +0.001 A 
ATOM     13  C   UNL     1      -0.013   1.076   0.008  0.00  0.00    +0.016 A 
ATOM     14  C   UNL     1      -1.206   1.758   0.017  0.00  0.00    +0.028 A 
ATOM     15  S   UNL     1      -2.788   0.953   0.020  0.00  0.00    -0.055 S 
ATOM     16  H   UNL     1      -5.667   0.593   0.031  0.00  0.00    +0.157 HD
ATOM     17  H   UNL     1      -4.543   4.135   0.034  0.00  0.00    +0.171 HD
ENDBRANCH   1   2
BRANCH   1  18
ATOM     18  S   UNL     1      -8.939   3.581   0.061  0.00  0.00    -0.093 S 
BRANCH  18  19
ATOM     19  C   UNL     1     -10.512   2.787   0.064  0.00  0.00    +0.110 C 
ATOM     20  S   UNL     1     -10.608   1.077   0.056  0.00  0.00    -0.028 S 
BRANCH  19  24
ATOM     21  N   UNL     1     -13.822   4.956  -0.902  0.00  0.00    -0.327 N 
ATOM     22  C   UNL     1     -13.803   3.495  -1.050  0.00  0.00    +0.124 C 
ATOM     23  C   UNL     1     -12.962   2.882   0.076  0.00  0.00    +0.125 C 
ATOM     24  N   UNL     1     -11.639   3.525   0.073  0.00  0.00    -0.316 N 
ATOM     25  C   UNL     1     -11.579   4.995   0.086  0.00  0.00    +0.125 C 
ATOM     26  C   UNL     1     -12.474   5.524  -1.045  0.00  0.00    +0.124 C 
BRANCH  21  30
ATOM     27  C   UNL     1     -16.466   6.694  -3.609  0.00  0.00    +0.000 A 
ATOM     28  C   UNL     1     -15.752   7.492  -2.733  0.00  0.00    +0.002 A 
ATOM     29  C   UNL     1     -14.875   6.918  -1.834  0.00  0.00    +0.023 A 
ATOM     30  C   UNL     1     -14.709   5.539  -1.810  0.00  0.00    +0.030 A 
ATOM     31  C   UNL     1     -15.424   4.742  -2.695  0.00  0.00    +0.023 A 
ATOM     32  C   UNL     1     -16.304   5.321  -3.588  0.00  0.00    +0.002 A 
ENDBRANCH  21  30
ENDBRANCH  19  24
ENDBRANCH  18  19
ENDBRANCH   1  18
TORSDOF 5
