REMARK  Name = ZINC04637316
REMARK  2 active torsions:
REMARK  status: ('A' for Active; 'I' for Inactive)
REMARK    1  A    between atoms: C_12  and  C_16
REMARK    2  A    between atoms: N_18  and  C_19
REMARK                            x       y       z     vdW  Elec       q    Type
REMARK                         _______ _______ _______ _____ _____    ______ ____
ROOT
ATOM      1  C   UNL     1       3.333  -5.685   0.604  0.00  0.00    +0.001 A 
ATOM      2  C   UNL     1       2.151  -4.953   0.528  0.00  0.00    +0.001 A 
ATOM      3  C   UNL     1       2.176  -3.593   0.415  0.00  0.00    +0.009 A 
ATOM      4  C   UNL     1       3.403  -2.925   0.376  0.00  0.00    -0.007 A 
ATOM      5  C   UNL     1       4.607  -3.666   0.454  0.00  0.00    -0.017 A 
ATOM      6  C   UNL     1       4.545  -5.064   0.568  0.00  0.00    +0.008 A 
ATOM      7  C   UNL     1       5.840  -2.988   0.414  0.00  0.00    +0.012 A 
ATOM      8  C   UNL     1       5.895  -1.637   0.303  0.00  0.00    +0.047 A 
ATOM      9  C   UNL     1       4.738  -0.855   0.222  0.00  0.00    +0.138 A 
ATOM     10  C   UNL     1       3.479  -1.468   0.256  0.00  0.00    +0.026 A 
ATOM     11  C   UNL     1       2.301  -0.694   0.181  0.00  0.00    +0.030 A 
ATOM     12  C   UNL     1       2.413   0.682   0.064  0.00  0.00    +0.097 A 
ATOM     13  C   UNL     1       3.758   1.279   0.033  0.00  0.00    +0.205 A 
ATOM     14  N   UNL     1       3.897   2.574  -0.072  0.00  0.00    -0.369 N 
ATOM     15  O   UNL     1       4.847   0.488   0.113  0.00  0.00    -0.439 OA
ATOM     16  H   UNL     1       4.903   3.019  -0.095  0.00  0.00    +0.159 HD
ATOM     17  H   UNL     1       3.008   3.219  -0.137  0.00  0.00    +0.159 HD
ENDROOT
BRANCH  12  18
ATOM     18  C   UNL     1       1.214   1.528  -0.022  0.00  0.00    +0.253 C 
ATOM     19  O   UNL     1       1.327   2.735  -0.120  0.00  0.00    -0.270 OA
ATOM     20  N   UNL     1      -0.011   0.966   0.007  0.00  0.00    -0.279 N 
ATOM     21  H   UNL     1      -0.113  -0.129   0.026  0.00  0.00    +0.155 HD
BRANCH  20  22
ATOM     22  C   UNL     1      -1.153   1.776   0.014  0.00  0.00    +0.069 A 
ATOM     23  C   UNL     1      -1.160   2.974  -0.688  0.00  0.00    +0.026 A 
ATOM     24  C   UNL     1      -2.290   3.768  -0.684  0.00  0.00    +0.002 A 
ATOM     25  C   UNL     1      -3.410   3.378   0.027  0.00  0.00    +0.003 A 
ATOM     26  C   UNL     1      -3.406   2.188   0.732  0.00  0.00    +0.040 A 
ATOM     27  C   UNL     1      -2.280   1.385   0.728  0.00  0.00    +0.144 A 
ATOM     28  F   UNL     1      -2.276   0.223   1.417  0.00  0.00    -0.204 F 
ENDBRANCH  20  22
ENDBRANCH  12  18
TORSDOF 2
