REMARK  Name = ZINC21561473
REMARK  11 active torsions:
REMARK  status: ('A' for Active; 'I' for Inactive)
REMARK    1  A    between atoms: C_1  and  C_2
REMARK    2  A    between atoms: C_2  and  C_3
REMARK    3  A    between atoms: C_2  and  C_4
REMARK    4  A    between atoms: C_4  and  C_6
REMARK    5  A    between atoms: C_4  and  N_23
REMARK    6  A    between atoms: N_8  and  C_9
REMARK    7  A    between atoms: C_9  and  C_10
REMARK    8  A    between atoms: C_10  and  C_11
REMARK    9  A    between atoms: C_11  and  N_12
REMARK   10  A    between atoms: N_23  and  C_24
REMARK   11  A    between atoms: C_27  and  C_31
REMARK                            x       y       z     vdW  Elec       q    Type
REMARK                         _______ _______ _______ _____ _____    ______ ____
ROOT
ATOM      1  C   UNL     1       1.138  -2.060  -0.883  0.00  0.00    +0.234 C 
ATOM      2  O   UNL     1       0.770  -2.873  -1.705  0.00  0.00    -0.274 OA
ATOM      3  N   UNL     1       1.825  -2.464   0.203  0.00  0.00    -0.314 N 
ATOM      4  H   UNL     1       2.088  -1.739   0.988  0.00  0.00    +0.149 HD
ENDROOT
BRANCH   1   5
ATOM      5  C   UNL     1       0.826  -0.598  -1.078  0.00  0.00    +0.159 C 
BRANCH   5   7
ATOM      6  C   UNL     1      -1.601  -0.976  -0.622  0.00  0.00    +0.009 C 
ATOM      7  C   UNL     1      -0.353  -0.205  -0.186  0.00  0.00    +0.012 C 
ATOM      8  C   UNL     1      -0.611   1.297  -0.315  0.00  0.00    +0.009 C 
ENDBRANCH   5   7
BRANCH   5   9
ATOM      9  N   UNL     1       0.480  -0.355  -2.481  0.00  0.00    -0.332 N 
ATOM     10  H   UNL     1      -0.128  -1.088  -3.032  0.00  0.00    +0.147 HD
BRANCH   9  11
ATOM     11  C   UNL     1       0.923   0.807  -3.118  0.00  0.00    +0.046 A 
ATOM     12  C   UNL     1       1.777   1.680  -2.458  0.00  0.00    +0.025 A 
ATOM     13  C   UNL     1       2.217   2.825  -3.094  0.00  0.00    +0.014 A 
ATOM     14  C   UNL     1       1.799   3.109  -4.381  0.00  0.00    +0.056 A 
ATOM     15  C   UNL     1       0.944   2.244  -5.039  0.00  0.00    +0.034 A 
ATOM     16  C   UNL     1       0.504   1.094  -4.412  0.00  0.00    +0.062 A 
ATOM     17 CL   UNL     1      -0.569   0.009  -5.239  0.00  0.00    -0.082 Cl
BRANCH  14  18
ATOM     18  C   UNL     1       2.276   4.362  -5.067  0.00  0.00    +0.417 C 
ATOM     19  F   UNL     1       1.388   5.409  -4.798  0.00  0.00    -0.166 F 
ATOM     20  F   UNL     1       3.549   4.698  -4.594  0.00  0.00    -0.166 F 
ATOM     21  F   UNL     1       2.335   4.144  -6.448  0.00  0.00    -0.166 F 
ENDBRANCH  14  18
ENDBRANCH   9  11
ENDBRANCH   5   9
ENDBRANCH   1   5
BRANCH   3  22
ATOM     22  C   UNL     1       2.221  -3.867   0.340  0.00  0.00    +0.106 C 
BRANCH  22  23
ATOM     23  C   UNL     1       2.983  -4.057   1.653  0.00  0.00    +0.038 C 
BRANCH  23  24
ATOM     24  C   UNL     1       3.397  -5.523   1.795  0.00  0.00    +0.119 C 
BRANCH  24  25
ATOM     25  N   UNL     1       4.127  -5.705   3.053  0.00  0.00    -0.224 N 
ATOM     26  C   UNL     1       3.544  -6.019   4.230  0.00  0.00    +0.246 C 
ATOM     27  O   UNL     1       2.364  -6.198   4.442  0.00  0.00    -0.273 OA
ATOM     28  C   UNL     1       4.675  -6.099   5.224  0.00  0.00    +0.113 C 
ATOM     29  C   UNL     1       4.759  -7.497   5.851  0.00  0.00    +0.035 C 
ATOM     30  C   UNL     1       5.210  -7.228   7.310  0.00  0.00    +0.003 C 
ATOM     31  C   UNL     1       4.454  -5.923   7.668  0.00  0.00    +0.003 C 
ATOM     32  C   UNL     1       4.485  -5.096   6.364  0.00  0.00    +0.035 C 
ATOM     33  N   UNL     1       5.874  -5.797   4.441  0.00  0.00    -0.285 N 
ATOM     34  C   UNL     1       5.455  -5.585   3.177  0.00  0.00    +0.309 C 
ATOM     35  O   UNL     1       6.198  -5.312   2.255  0.00  0.00    -0.252 OA
ATOM     36  H   UNL     1       6.860  -5.783   4.928  0.00  0.00    +0.151 HD
ENDBRANCH  24  25
ENDBRANCH  23  24
ENDBRANCH  22  23
ENDBRANCH   3  22
TORSDOF 9
