REMARK  Name = ZINC42306083
REMARK  3 active torsions:
REMARK  status: ('A' for Active; 'I' for Inactive)
REMARK    1  A    between atoms: C_4  and  S_9
REMARK    2  A    between atoms: C_5  and  C_7
REMARK    3  A    between atoms: S_9  and  N_12
REMARK                            x       y       z     vdW  Elec       q    Type
REMARK                         _______ _______ _______ _____ _____    ______ ____
ROOT
ATOM      1  S   UNL     1       3.962  -0.804  -0.042  0.00  0.00    +0.102 S 
ATOM      2  O   UNL     1       3.877  -1.780  -1.072  0.00  0.00    -0.146 OA
ATOM      3  O   UNL     1       4.972   0.195  -0.020  0.00  0.00    -0.146 OA
ENDROOT
BRANCH   1   4
ATOM      4  N   UNL     1       4.085  -1.634   1.386  0.00  0.00    -0.103 NA
ATOM      5  C   UNL     1       5.150  -2.356   1.635  0.00  0.00    +0.192 A 
ATOM      6  N   UNL     1       6.265  -2.556   0.863  0.00  0.00    -0.336 N 
ATOM      7  C   UNL     1       7.288  -3.372   1.328  0.00  0.00    +0.028 A 
ATOM      8  C   UNL     1       7.128  -3.933   2.526  0.00  0.00    +0.012 A 
ATOM      9  S   UNL     1       5.542  -3.339   3.073  0.00  0.00    -0.053 S 
ATOM     10  C   UNL     1       8.292  -4.797   2.920  0.00  0.00    +0.044 C 
ATOM     11  C   UNL     1       9.050  -5.049   1.598  0.00  0.00    +0.011 C 
ATOM     12  C   UNL     1       8.646  -3.814   0.770  0.00  0.00    +0.054 C 
ATOM     13  H   UNL     1       6.339  -2.129  -0.005  0.00  0.00    +0.168 HD
ENDBRANCH   1   4
BRANCH   1  17
ATOM     14  C   UNL     1      -0.017   1.375   0.010  0.00  0.00    +0.001 A 
ATOM     15  C   UNL     1       1.170   2.086   0.002  0.00  0.00    +0.002 A 
ATOM     16  C   UNL     1       2.383   1.421  -0.013  0.00  0.00    +0.030 A 
ATOM     17  C   UNL     1       2.416   0.041  -0.021  0.00  0.00    +0.130 A 
ATOM     18  C   UNL     1       1.223  -0.682  -0.013  0.00  0.00    +0.079 A 
ATOM     19  C   UNL     1       0.002  -0.004   0.002  0.00  0.00    +0.021 A 
BRANCH  18  20
ATOM     20  C   UNL     1       1.250  -2.114  -0.022  0.00  0.00    +0.101 C 
ATOM     21  N   UNL     1       1.271  -3.250  -0.029  0.00  0.00    -0.191 NA
ENDBRANCH  18  20
ENDBRANCH   1  17
TORSDOF 3
