REMARK  Name = ZINC25579653
REMARK  8 active torsions:
REMARK  status: ('A' for Active; 'I' for Inactive)
REMARK    1  A    between atoms: C_1  and  O_2
REMARK    2  A    between atoms: O_2  and  C_3
REMARK    3  A    between atoms: C_4  and  C_13
REMARK    4  A    between atoms: N_14  and  N_15
REMARK    5  A    between atoms: N_18  and  N_19
REMARK    6  A    between atoms: C_20  and  C_21
REMARK    7  A    between atoms: C_22  and  O_31
REMARK    8  A    between atoms: O_31  and  C_32
REMARK                            x       y       z     vdW  Elec       q    Type
REMARK                         _______ _______ _______ _____ _____    ______ ____
ROOT
ATOM      1  N   UNL     1       2.322  -2.988  -0.020  0.00  0.00    -0.247 N 
ATOM      2  C   UNL     1       3.546  -2.357  -0.029  0.00  0.00    +0.210 C 
ATOM      3  N   UNL     1       3.608  -1.054  -0.028  0.00  0.00    -0.369 N 
ATOM      4  N   UNL     1       4.703  -3.101  -0.038  0.00  0.00    -0.247 N 
ATOM      5  H   UNL     1       2.276  -3.957  -0.021  0.00  0.00    +0.192 HD
ATOM      6  H   UNL     1       4.470  -0.609  -0.034  0.00  0.00    +0.159 HD
ATOM      7  H   UNL     1       4.657  -4.070  -0.039  0.00  0.00    +0.192 HD
ATOM      8  H   UNL     1       2.792  -0.529  -0.021  0.00  0.00    +0.159 HD
ENDROOT
BRANCH   1  10
ATOM      9  C   UNL     1      -0.011  -2.826  -0.002  0.00  0.00    +0.144 C 
ATOM     10  N   UNL     1       1.144  -2.230  -0.010  0.00  0.00    -0.179 NA
BRANCH   9  12
ATOM     11  C   UNL     1      -1.199  -0.637   0.010  0.00  0.00    +0.129 A 
ATOM     12  C   UNL     1      -1.248  -2.031   0.009  0.00  0.00    +0.044 A 
ATOM     13  C   UNL     1      -2.555  -2.684   0.018  0.00  0.00    -0.006 A 
ATOM     14  C   UNL     1      -3.722  -1.881   0.027  0.00  0.00    -0.017 A 
ATOM     15  C   UNL     1      -3.600  -0.481   0.028  0.00  0.00    +0.012 A 
ATOM     16  C   UNL     1      -2.375   0.111   0.025  0.00  0.00    +0.047 A 
ATOM     17  C   UNL     1      -4.983  -2.503   0.036  0.00  0.00    +0.008 A 
ATOM     18  C   UNL     1      -5.063  -3.862   0.035  0.00  0.00    +0.001 A 
ATOM     19  C   UNL     1      -3.913  -4.649   0.025  0.00  0.00    +0.001 A 
ATOM     20  C   UNL     1      -2.675  -4.079   0.017  0.00  0.00    +0.009 A 
BRANCH  11  22
ATOM     21  C   UNL     1      -0.017   1.425   0.010  0.00  0.00    +0.277 C 
ATOM     22  O   UNL     1       0.002  -0.004   0.002  0.00  0.00    -0.494 OA
ENDBRANCH  11  22
ENDBRANCH   9  12
ENDBRANCH   1  10
BRANCH   4  23
ATOM     23  N   UNL     1       5.949  -2.459  -0.047  0.00  0.00    -0.179 NA
ATOM     24  C   UNL     1       7.042  -3.162  -0.057  0.00  0.00    +0.144 C 
BRANCH  24  25
ATOM     25  C   UNL     1       8.348  -2.488  -0.066  0.00  0.00    +0.044 A 
ATOM     26  C   UNL     1       8.432  -1.096  -0.059  0.00  0.00    +0.129 A 
ATOM     27  C   UNL     1       9.674  -0.464  -0.069  0.00  0.00    +0.047 A 
ATOM     28  C   UNL     1      10.837  -1.169  -0.084  0.00  0.00    +0.012 A 
ATOM     29  C   UNL     1      10.825  -2.574  -0.092  0.00  0.00    -0.017 A 
ATOM     30  C   UNL     1       9.588  -3.263  -0.076  0.00  0.00    -0.006 A 
ATOM     31  C   UNL     1       9.574  -4.663  -0.079  0.00  0.00    +0.009 A 
ATOM     32  C   UNL     1      10.752  -5.348  -0.089  0.00  0.00    +0.001 A 
ATOM     33  C   UNL     1      11.971  -4.674  -0.097  0.00  0.00    +0.001 A 
ATOM     34  C   UNL     1      12.021  -3.313  -0.110  0.00  0.00    +0.008 A 
BRANCH  26  35
ATOM     35  O   UNL     1       7.297  -0.352  -0.044  0.00  0.00    -0.494 OA
ATOM     36  C   UNL     1       7.452   1.069  -0.037  0.00  0.00    +0.277 C 
ENDBRANCH  26  35
ENDBRANCH  24  25
ENDBRANCH   4  23
TORSDOF 6
