REMARK  Name = ZINC10295430
REMARK  5 active torsions:
REMARK  status: ('A' for Active; 'I' for Inactive)
REMARK    1  A    between atoms: C_1  and  O_2
REMARK    2  A    between atoms: O_2  and  C_3
REMARK    3  A    between atoms: C_6  and  C_9
REMARK    4  A    between atoms: C_12  and  O_15
REMARK    5  A    between atoms: C_22  and  C_24
REMARK                            x       y       z     vdW  Elec       q    Type
REMARK                         _______ _______ _______ _____ _____    ______ ____
ROOT
ATOM      1  C   UNL     1      -1.598   2.454  -0.084  0.00  0.00    +0.101 A 
ATOM      2  C   UNL     1      -1.572   3.495   0.849  0.00  0.00    +0.036 A 
ATOM      3  C   UNL     1      -2.718   4.258   0.999  0.00  0.00    +0.105 A 
ATOM      4  C   UNL     1      -3.834   3.941   0.214  0.00  0.00    +0.254 A 
ATOM      5  N   UNL     1      -3.765   2.934  -0.640  0.00  0.00    -0.109 NA
ATOM      6  N   UNL     1      -2.704   2.227  -0.782  0.00  0.00    -0.145 NA
ATOM      7  N   UNL     1      -2.780   5.312   1.915  0.00  0.00    -0.278 N 
ATOM      8  C   UNL     1      -1.758   5.396   2.851  0.00  0.00    +0.240 A 
ATOM      9  N   UNL     1      -1.663   6.107   3.940  0.00  0.00    -0.092 NA
ATOM     10  N   UNL     1      -0.535   5.883   4.522  0.00  0.00    -0.021 NA
ATOM     11  N   UNL     1       0.158   5.024   3.847  0.00  0.00    -0.042 NA
ATOM     12  N   UNL     1      -0.612   4.679   2.735  0.00  0.00    -0.201 N 
ATOM     13  C   UNL     1      -0.320   3.761   1.641  0.00  0.00    +0.176 C 
ATOM     14  H   UNL     1      -3.511   5.950   1.904  0.00  0.00    +0.155 HD
ENDROOT
BRANCH  13  15
ATOM     15  C   UNL     1       0.722   4.372   0.741  0.00  0.00    -0.018 A 
ATOM     16  C   UNL     1       0.425   5.508   0.011  0.00  0.00    +0.007 A 
ATOM     17  C   UNL     1       1.382   6.071  -0.812  0.00  0.00    +0.015 A 
ATOM     18  C   UNL     1       2.634   5.493  -0.912  0.00  0.00    +0.018 A 
ATOM     19  C   UNL     1       2.930   4.353  -0.186  0.00  0.00    +0.015 A 
ATOM     20  C   UNL     1       1.974   3.793   0.640  0.00  0.00    +0.007 A 
ATOM     21 BR   UNL     1       3.942   6.259  -2.043  0.00  0.00    -0.050 Br
ENDBRANCH  13  15
BRANCH   1  25
ATOM     22  C   UNL     1       1.832   0.009  -0.669  0.00  0.00    +0.120 A 
ATOM     23  C   UNL     1       1.362   0.247   0.615  0.00  0.00    +0.046 A 
ATOM     24  C   UNL     1       0.251   1.041   0.808  0.00  0.00    +0.013 A 
ATOM     25  C   UNL     1      -0.400   1.605  -0.288  0.00  0.00    +0.003 A 
ATOM     26  C   UNL     1       0.075   1.364  -1.576  0.00  0.00    +0.013 A 
ATOM     27  C   UNL     1       1.186   0.570  -1.763  0.00  0.00    +0.046 A 
BRANCH  22  29
ATOM     28  C   UNL     1       3.356  -0.977  -2.204  0.00  0.00    +0.277 C 
ATOM     29  O   UNL     1       2.927  -0.774  -0.857  0.00  0.00    -0.495 OA
ENDBRANCH  22  29
ENDBRANCH   1  25
BRANCH   4  30
ATOM     30  O   UNL     1      -4.978   4.663   0.330  0.00  0.00    -0.490 OA
ATOM     31  H   UNL     1      -5.595   4.320   0.991  0.00  0.00    +0.294 HD
ENDBRANCH   4  30
TORSDOF 4
