REMARK  Name = ZINC39521659
REMARK  9 active torsions:
REMARK  status: ('A' for Active; 'I' for Inactive)
REMARK    1  A    between atoms: C_1  and  C_2
REMARK    2  A    between atoms: C_2  and  C_3
REMARK    3  A    between atoms: C_2  and  S_4
REMARK    4  A    between atoms: S_4  and  C_7
REMARK    5  A    between atoms: N_13  and  C_14
REMARK    6  A    between atoms: C_19  and  O_20
REMARK    7  A    between atoms: C_24  and  S_27
REMARK    8  A    between atoms: S_27  and  O_30
REMARK    9  A    between atoms: O_30  and  C_31
REMARK                            x       y       z     vdW  Elec       q    Type
REMARK                         _______ _______ _______ _____ _____    ______ ____
ROOT
ATOM      1  C   UNL     1      -1.161  -2.436   0.164  0.00  0.00    +0.217 C 
ATOM      2  C   UNL     1      -2.585  -3.001   0.205  0.00  0.00    +0.046 C 
ATOM      3  C   UNL     1      -2.543  -4.502  -0.090  0.00  0.00    +0.006 C 
ATOM      4  C   UNL     1      -1.973  -4.732  -1.492  0.00  0.00    +0.026 C 
ATOM      5  C   UNL     1      -0.544  -4.185  -1.553  0.00  0.00    +0.039 C 
ATOM      6  N   UNL     1      -0.550  -2.779  -1.128  0.00  0.00    -0.300 N 
ATOM      7  C   UNL     1       0.355  -4.994  -0.617  0.00  0.00    +0.026 C 
ATOM      8  C   UNL     1       0.362  -6.459  -1.057  0.00  0.00    +0.004 C 
ATOM      9  C   UNL     1       0.893  -6.558  -2.489  0.00  0.00    +0.030 C 
ATOM     10  C   UNL     1      -0.008  -5.750  -3.425  0.00  0.00    +0.173 C 
ATOM     11  C   UNL     1      -0.017  -4.284  -2.984  0.00  0.00    +0.055 C 
ENDROOT
BRANCH   6  12
ATOM     12  C   UNL     1       0.012  -1.786  -1.938  0.00  0.00    +0.074 A 
ATOM     13  C   UNL     1       1.303  -1.340  -1.698  0.00  0.00    +0.027 A 
ATOM     14  C   UNL     1       1.856  -0.360  -2.500  0.00  0.00    +0.002 A 
ATOM     15  C   UNL     1       1.124   0.179  -3.542  0.00  0.00    +0.004 A 
ATOM     16  C   UNL     1      -0.164  -0.260  -3.787  0.00  0.00    +0.047 A 
ATOM     17  C   UNL     1      -0.723  -1.246  -2.991  0.00  0.00    +0.138 A 
BRANCH  17  18
ATOM     18  O   UNL     1      -1.988  -1.683  -3.235  0.00  0.00    -0.505 OA
ATOM     19  H   UNL     1      -2.672  -1.187  -2.765  0.00  0.00    +0.292 HD
ENDBRANCH  17  18
ENDBRANCH   6  12
BRANCH   1  20
ATOM     20  S   UNL     1      -1.218  -0.632   0.349  0.00  0.00    -0.010 S 
ATOM     21  O   UNL     1      -2.205  -0.310   1.319  0.00  0.00    -0.172 OA
ATOM     22  O   UNL     1      -1.304  -0.050  -0.944  0.00  0.00    -0.172 OA
BRANCH  20  24
ATOM     23  C   UNL     1       0.565   1.267   1.185  0.00  0.00    +0.031 C 
ATOM     24  C   UNL     1       0.414  -0.249   1.043  0.00  0.00    +0.126 C 
ATOM     25  C   UNL     1       0.550  -0.906   2.418  0.00  0.00    +0.031 C 
ENDBRANCH  20  24
ENDBRANCH   1  20
BRANCH  10  26
ATOM     26  S   UNL     1       0.621  -5.868  -5.122  0.00  0.00    +0.124 S 
ATOM     27  O   UNL     1      -0.299  -5.274  -6.027  0.00  0.00    -0.136 OA
ATOM     28  O   UNL     1       1.999  -5.521  -5.158  0.00  0.00    -0.136 OA
BRANCH  26  29
ATOM     29  O   UNL     1       0.585  -7.354  -5.450  0.00  0.00    -0.346 OA
BRANCH  29  30
ATOM     30  C   UNL     1      -0.661  -7.835  -5.699  0.00  0.00    +0.156 A 
ATOM     31  C   UNL     1      -1.435  -8.330  -4.659  0.00  0.00    +0.048 A 
ATOM     32  C   UNL     1      -2.702  -8.818  -4.914  0.00  0.00    +0.004 A 
ATOM     33  C   UNL     1      -3.198  -8.814  -6.205  0.00  0.00    +0.000 A 
ATOM     34  C   UNL     1      -2.429  -8.322  -7.243  0.00  0.00    +0.004 A 
ATOM     35  C   UNL     1      -1.164  -7.827  -6.992  0.00  0.00    +0.048 A 
ENDBRANCH  29  30
ENDBRANCH  26  29
ENDBRANCH  10  26
TORSDOF 7
