REMARK  Name = ZINC02309355
REMARK  7 active torsions:
REMARK  status: ('A' for Active; 'I' for Inactive)
REMARK    1  A    between atoms: C_1  and  C_2
REMARK    2  A    between atoms: C_2  and  C_4
REMARK    3  A    between atoms: C_2  and  N_51
REMARK    4  A    between atoms: N_6  and  C_7
REMARK    5  A    between atoms: C_16  and  C_17
REMARK    6  A    between atoms: C_17  and  O_19
REMARK    7  A    between atoms: O_19  and  C_20
REMARK                            x       y       z     vdW  Elec       q    Type
REMARK                         _______ _______ _______ _____ _____    ______ ____
ROOT
ATOM      1  C   UNL     1       0.092  -0.132  -3.105  0.00  0.00    +0.203 C 
ATOM      2  O   UNL     1      -1.038  -0.569  -3.056  0.00  0.00    -0.277 OA
ATOM      3  N   UNL     1       1.113  -0.940  -3.454  0.00  0.00    -0.284 N 
ATOM      4  H   UNL     1       2.000  -0.572  -3.584  0.00  0.00    +0.155 HD
ENDROOT
BRANCH   3   5
ATOM      5  C   UNL     1       0.893  -2.303  -3.626  0.00  0.00    +0.073 A 
ATOM      6  C   UNL     1       0.453  -3.255  -2.604  0.00  0.00    +0.023 A 
ATOM      7  C   UNL     1       0.136  -3.132  -1.248  0.00  0.00    +0.027 A 
ATOM      8  C   UNL     1      -0.255  -4.233  -0.539  0.00  0.00    +0.019 A 
ATOM      9  C   UNL     1      -0.340  -5.475  -1.157  0.00  0.00    +0.017 A 
ATOM     10  C   UNL     1      -0.041  -5.617  -2.493  0.00  0.00    +0.027 A 
ATOM     11  C   UNL     1       0.365  -4.510  -3.235  0.00  0.00    +0.049 A 
ATOM     12  N   UNL     1       0.734  -4.350  -4.550  0.00  0.00    -0.348 N 
ATOM     13  H   UNL     1       0.766  -5.060  -5.210  0.00  0.00    +0.166 HD
ATOM     14  C   UNL     1       1.053  -3.022  -4.793  0.00  0.00    +0.147 A 
ATOM     15 BR   UNL     1      -0.683  -4.066   1.295  0.00  0.00    -0.050 Br
BRANCH  14  16
ATOM     16  C   UNL     1       1.477  -2.491  -6.037  0.00  0.00    +0.357 C 
ATOM     17  O   UNL     1       1.592  -1.287  -6.178  0.00  0.00    -0.243 OA
BRANCH  16  18
ATOM     18  O   UNL     1       1.753  -3.319  -7.066  0.00  0.00    -0.463 OA
ATOM     19  C   UNL     1       2.174  -2.715  -8.291  0.00  0.00    +0.280 C 
ENDBRANCH  16  18
ENDBRANCH  14  16
ENDBRANCH   3   5
BRANCH   1  21
ATOM     20  C   UNL     1       1.317   1.401  -1.589  0.00  0.00    -0.004 C 
ATOM     21  C   UNL     1       0.355   1.315  -2.776  0.00  0.00    +0.017 C 
BRANCH  21  31
ATOM     22  C   UNL     1      -0.729   3.432  -2.311  0.00  0.00    -0.073 C 
ATOM     23  C   UNL     1      -2.107   4.095  -2.320  0.00  0.00    +0.017 C 
ATOM     24  C   UNL     1      -3.007   3.423  -1.314  0.00  0.00    -0.048 A 
ATOM     25  C   UNL     1      -4.161   4.081  -0.916  0.00  0.00    +0.004 A 
ATOM     26  C   UNL     1      -5.014   3.500   0.000  0.00  0.00    +0.000 A 
ATOM     27  C   UNL     1      -4.717   2.256   0.524  0.00  0.00    +0.000 A 
ATOM     28  C   UNL     1      -3.568   1.601   0.130  0.00  0.00    +0.002 A 
ATOM     29  C   UNL     1      -2.709   2.185  -0.795  0.00  0.00    -0.061 A 
ATOM     30  C   UNL     1      -1.465   1.431  -1.187  0.00  0.00    -0.042 C 
ATOM     31  N   UNL     1      -0.928   1.975  -2.446  0.00  0.00    +0.390 N 
ATOM     32  H   UNL     1      -1.600   1.797  -3.202  0.00  0.00    -0.080 HD
ENDBRANCH  21  31
ENDBRANCH   1  21
TORSDOF 5
