REMARK  Name = ZINC36202368
REMARK  15 active torsions:
REMARK  status: ('A' for Active; 'I' for Inactive)
REMARK    1  A    between atoms: C_1  and  C_2
REMARK    2  A    between atoms: C_2  and  C_3
REMARK    3  A    between atoms: C_2  and  N_4
REMARK    4  A    between atoms: N_4  and  C_5
REMARK    5  A    between atoms: N_4  and  C_16
REMARK    6  A    between atoms: C_5  and  C_6
REMARK    7  A    between atoms: C_10  and  O_14
REMARK    8  A    between atoms: C_11  and  O_12
REMARK    9  A    between atoms: O_12  and  C_13
REMARK   10  A    between atoms: O_14  and  C_15
REMARK   11  A    between atoms: C_16  and  C_17
REMARK   12  A    between atoms: C_20  and  C_22
REMARK   13  A    between atoms: C_22  and  C_23
REMARK   14  A    between atoms: C_22  and  C_30
REMARK   15  A    between atoms: C_22  and  O_37
REMARK                            x       y       z     vdW  Elec       q    Type
REMARK                         _______ _______ _______ _____ _____    ______ ____
ROOT
ATOM      1  C   UNL     1      -3.746   2.398  -0.343  0.00  0.00    +0.089 A 
ATOM      2  C   UNL     1      -3.497   3.720  -0.381  0.00  0.00    +0.043 A 
ATOM      3  C   UNL     1      -4.567   4.358   0.288  0.00  0.00    +0.048 A 
ATOM      4  C   UNL     1      -5.405   3.388   0.695  0.00  0.00    +0.146 A 
ATOM      5  O   UNL     1      -4.906   2.204   0.305  0.00  0.00    -0.463 OA
ENDROOT
BRANCH   1   6
ATOM      6  C   UNL     1      -2.874   1.320  -0.933  0.00  0.00    -0.002 C 
BRANCH   6   7
ATOM      7  N   UNL     1      -1.992   0.778   0.110  0.00  0.00    +0.389 N 
ATOM      8  H   UNL     1      -2.546   0.495   0.905  0.00  0.00    -0.080 HD
BRANCH   7  10
ATOM      9  C   UNL     1      -0.259   1.324   1.751  0.00  0.00    -0.013 C 
ATOM     10  C   UNL     1      -1.033   1.810   0.524  0.00  0.00    -0.074 C 
ATOM     11  C   UNL     1      -0.056   2.087  -0.620  0.00  0.00    -0.013 C 
ENDBRANCH   7  10
BRANCH   7  12
ATOM     12  C   UNL     1      -1.264  -0.383  -0.419  0.00  0.00    -0.038 C 
BRANCH  12  13
ATOM     13  C   UNL     1      -0.576  -1.102   0.712  0.00  0.00    -0.019 A 
ATOM     14  C   UNL     1       0.773  -1.394   0.627  0.00  0.00    +0.005 A 
ATOM     15  C   UNL     1       1.407  -2.053   1.663  0.00  0.00    +0.004 A 
ATOM     16  C   UNL     1       0.696  -2.425   2.789  0.00  0.00    +0.049 A 
ATOM     17  C   UNL     1      -0.656  -2.135   2.881  0.00  0.00    +0.162 A 
ATOM     18  C   UNL     1      -1.293  -1.466   1.840  0.00  0.00    +0.163 A 
BRANCH  18  19
ATOM     19  O   UNL     1      -2.619  -1.175   1.928  0.00  0.00    -0.491 OA
ATOM     20  C   UNL     1      -3.533  -2.154   1.431  0.00  0.00    +0.277 C 
ENDBRANCH  18  19
BRANCH  17  21
ATOM     21  O   UNL     1      -1.357  -2.500   3.987  0.00  0.00    -0.491 OA
ATOM     22  C   UNL     1      -0.636  -3.179   5.018  0.00  0.00    +0.277 C 
ENDBRANCH  17  21
ENDBRANCH  12  13
ENDBRANCH   7  12
ENDBRANCH   6   7
ENDBRANCH   1   6
BRANCH   4  23
ATOM     23  C   UNL     1      -6.690   3.596   1.455  0.00  0.00    +0.174 C 
BRANCH  23  24
ATOM     24  C   UNL     1      -7.663   2.499   1.107  0.00  0.00    -0.002 A 
ATOM     25  C   UNL     1      -8.830   2.799   0.428  0.00  0.00    +0.007 A 
ATOM     26  C   UNL     1      -9.723   1.794   0.108  0.00  0.00    +0.003 A 
ATOM     27  C   UNL     1      -9.450   0.487   0.466  0.00  0.00    +0.038 A 
ATOM     28  C   UNL     1      -8.282   0.185   1.145  0.00  0.00    +0.124 A 
ATOM     29  C   UNL     1      -7.386   1.192   1.460  0.00  0.00    +0.045 A 
ATOM     30  F   UNL     1      -8.015  -1.092   1.496  0.00  0.00    -0.205 F 
ENDBRANCH  23  24
BRANCH  23  31
ATOM     31  C   UNL     1      -6.409   3.567   2.935  0.00  0.00    -0.002 A 
ATOM     32  C   UNL     1      -5.445   2.713   3.438  0.00  0.00    +0.007 A 
ATOM     33  C   UNL     1      -5.186   2.685   4.796  0.00  0.00    +0.003 A 
ATOM     34  C   UNL     1      -5.890   3.510   5.652  0.00  0.00    +0.038 A 
ATOM     35  C   UNL     1      -6.856   4.365   5.149  0.00  0.00    +0.124 A 
ATOM     36  C   UNL     1      -7.111   4.397   3.788  0.00  0.00    +0.045 A 
ATOM     37  F   UNL     1      -7.546   5.172   5.984  0.00  0.00    -0.205 F 
ENDBRANCH  23  31
BRANCH  23  38
ATOM     38  O   UNL     1      -7.253   4.861   1.102  0.00  0.00    -0.372 OA
ATOM     39  H   UNL     1      -7.460   4.951   0.161  0.00  0.00    +0.212 HD
ENDBRANCH  23  38
ENDBRANCH   4  23
TORSDOF 11
