REMARK  Name = ZINC09007927
REMARK  15 active torsions:
REMARK  status: ('A' for Active; 'I' for Inactive)
REMARK    1  A    between atoms: C_1  and  C_2
REMARK    2  A    between atoms: C_2  and  N_67
REMARK    3  A    between atoms: C_3  and  C_4
REMARK    4  A    between atoms: C_3  and  N_67
REMARK    5  A    between atoms: C_5  and  C_6
REMARK    6  A    between atoms: C_5  and  N_67
REMARK    7  A    between atoms: C_6  and  N_7
REMARK    8  A    between atoms: C_8  and  C_25
REMARK    9  A    between atoms: C_11  and  C_12
REMARK   10  A    between atoms: C_11  and  O_20
REMARK   11  A    between atoms: C_15  and  O_18
REMARK   12  A    between atoms: O_18  and  C_19
REMARK   13  A    between atoms: C_28  and  C_31
REMARK   14  A    between atoms: C_31  and  C_32
REMARK   15  A    between atoms: C_31  and  C_33
REMARK                            x       y       z     vdW  Elec       q    Type
REMARK                         _______ _______ _______ _____ _____    ______ ____
ROOT
ATOM      1  N   UNL     1       4.124  -4.420  -0.284  0.00  0.00    -0.285 N 
ATOM      2  C   UNL     1       2.680  -4.183  -0.187  0.00  0.00    +0.144 C 
ATOM      3  C   UNL     1       2.498  -2.694  -0.005  0.00  0.00    +0.071 C 
ATOM      4  C   UNL     1       1.303  -2.014   0.129  0.00  0.00    +0.133 C 
ATOM      5  C   UNL     1       3.787  -2.141   0.005  0.00  0.00    +0.249 C 
ATOM      6  O   UNL     1       4.057  -0.961   0.136  0.00  0.00    -0.282 OA
ATOM      7  C   UNL     1       4.768  -3.246  -0.170  0.00  0.00    +0.288 C 
ATOM      8  O   UNL     1       5.973  -3.108  -0.205  0.00  0.00    -0.266 OA
ENDROOT
BRANCH   4   9
ATOM      9  C   UNL     1       1.293  -0.544   0.171  0.00  0.00    +0.017 A 
ATOM     10  C   UNL     1       2.009   0.191  -0.782  0.00  0.00    +0.015 A 
ATOM     11  C   UNL     1       1.996   1.566  -0.739  0.00  0.00    +0.046 A 
ATOM     12  C   UNL     1       1.274   2.227   0.250  0.00  0.00    +0.120 A 
ATOM     13  C   UNL     1       0.562   1.501   1.199  0.00  0.00    +0.046 A 
ATOM     14  C   UNL     1       0.568   0.126   1.165  0.00  0.00    +0.015 A 
BRANCH  12  15
ATOM     15  O   UNL     1       1.265   3.583   0.288  0.00  0.00    -0.495 OA
ATOM     16  C   UNL     1       0.504   4.197   1.330  0.00  0.00    +0.277 C 
ENDBRANCH  12  15
ENDBRANCH   4   9
BRANCH   2  17
ATOM     17  C   UNL     1       2.000  -4.635  -1.453  0.00  0.00    -0.022 A 
ATOM     18  C   UNL     1       2.604  -4.420  -2.678  0.00  0.00    +0.006 A 
ATOM     19  C   UNL     1       1.982  -4.840  -3.838  0.00  0.00    +0.004 A 
ATOM     20  C   UNL     1       0.750  -5.465  -3.776  0.00  0.00    -0.045 A 
ATOM     21  C   UNL     1       0.144  -5.675  -2.551  0.00  0.00    +0.004 A 
ATOM     22  C   UNL     1       0.768  -5.261  -1.390  0.00  0.00    +0.006 A 
BRANCH  20  23
ATOM     23  C   UNL     1       0.069  -5.917  -5.042  0.00  0.00    +0.013 C 
ATOM     24  C   UNL     1      -0.175  -4.709  -5.948  0.00  0.00    +0.012 C 
ATOM     25  C   UNL     1       0.960  -6.927  -5.767  0.00  0.00    +0.012 C 
ENDBRANCH  20  23
ENDBRANCH   2  17
BRANCH   4  26
ATOM     26  O   UNL     1       0.143  -2.700   0.222  0.00  0.00    -0.506 OA
ATOM     27  H   UNL     1      -0.618  -2.057   0.314  0.00  0.00    +0.292 HD
ENDBRANCH   4  26
BRANCH   1  28
ATOM     28  C   UNL     1       4.761  -5.726  -0.469  0.00  0.00    +0.090 C 
BRANCH  28  29
ATOM     29  C   UNL     1       5.046  -6.353   0.897  0.00  0.00    -0.060 C 
BRANCH  29  30
ATOM     30  N   UNL     1       5.668  -7.678   0.693  0.00  0.00    +0.380 N 
ATOM     31  H   UNL     1       5.087  -8.224   0.046  0.00  0.00    -0.082 HD
BRANCH  30  33
ATOM     32  C   UNL     1       7.928  -6.745   1.066  0.00  0.00    -0.017 C 
ATOM     33  C   UNL     1       7.017  -7.518   0.109  0.00  0.00    -0.082 C 
ENDBRANCH  30  33
BRANCH  30  34
ATOM     34  C   UNL     1       5.758  -8.397   1.982  0.00  0.00    -0.082 C 
ATOM     35  C   UNL     1       6.065  -9.870   1.702  0.00  0.00    -0.017 C 
ENDBRANCH  30  34
ENDBRANCH  29  30
ENDBRANCH  28  29
ENDBRANCH   1  28
TORSDOF 10
