REMARK  Name = ZINC09410195
REMARK  4 active torsions:
REMARK  status: ('A' for Active; 'I' for Inactive)
REMARK    1  A    between atoms: C_4  and  S_25
REMARK    2  A    between atoms: C_6  and  C_7
REMARK    3  A    between atoms: C_7  and  C_9
REMARK    4  A    between atoms: S_25  and  N_28
REMARK                            x       y       z     vdW  Elec       q    Type
REMARK                         _______ _______ _______ _____ _____    ______ ____
ROOT
ATOM      1  C   UNL     1       0.330   8.276  -0.487  0.00  0.00    +0.188 C 
ATOM      2  O   UNL     1      -0.619   9.032  -0.604  0.00  0.00    -0.287 OA
ENDROOT
BRANCH   1   3
ATOM      3  C   UNL     1       0.152   6.893  -0.658  0.00  0.00    +0.075 C 
ATOM      4  C   UNL     1      -1.096   6.391  -0.958  0.00  0.00    +0.038 C 
ATOM      5  C   UNL     1      -1.327   4.941  -1.146  0.00  0.00    +0.003 A 
ATOM      6  C   UNL     1      -0.242   4.061  -1.175  0.00  0.00    +0.059 A 
ATOM      7  C   UNL     1      -0.467   2.711  -1.347  0.00  0.00    +0.163 A 
ATOM      8  C   UNL     1      -1.766   2.232  -1.486  0.00  0.00    +0.162 A 
ATOM      9  C   UNL     1      -2.842   3.106  -1.457  0.00  0.00    +0.053 A 
ATOM     10  C   UNL     1      -2.631   4.461  -1.288  0.00  0.00    -0.033 A 
ATOM     11  C   UNL     1      -3.814   5.392  -1.273  0.00  0.00    +0.054 C 
ATOM     12  C   UNL     1      -3.472   6.701  -0.562  0.00  0.00    +0.106 C 
ATOM     13  N   UNL     1      -2.201   7.218  -1.098  0.00  0.00    -0.343 N 
ATOM     14  O   UNL     1      -1.974   0.895  -1.656  0.00  0.00    -0.488 OA
ATOM     15  C   UNL     1      -1.673   0.067  -0.531  0.00  0.00    +0.232 C 
ATOM     16  C   UNL     1      -0.194  -0.284  -0.499  0.00  0.00    +0.082 C 
ATOM     17  C   UNL     1       0.686   0.936  -0.283  0.00  0.00    +0.232 C 
ATOM     18  O   UNL     1       0.582   1.838  -1.387  0.00  0.00    -0.488 OA
ATOM     19  H   UNL     1      -2.168   8.209  -1.576  0.00  0.00    +0.146 HD
ENDBRANCH   1   3
BRANCH   1  25
ATOM     20  C   UNL     1       2.758   7.952  -0.026  0.00  0.00    +0.013 A 
ATOM     21  C   UNL     1       4.005   8.460   0.269  0.00  0.00    +0.022 A 
ATOM     22  C   UNL     1       4.178   9.824   0.437  0.00  0.00    +0.067 A 
ATOM     23  C   UNL     1       3.102  10.685   0.305  0.00  0.00    +0.124 A 
ATOM     24  C   UNL     1       1.851  10.189   0.005  0.00  0.00    +0.041 A 
ATOM     25  C   UNL     1       1.671   8.815  -0.165  0.00  0.00    +0.024 A 
ATOM     26 CL   UNL     1       5.750  10.456   0.815  0.00  0.00    -0.082 Cl
BRANCH  23  27
ATOM     27  S   UNL     1       3.331  12.419   0.521  0.00  0.00    +0.062 S 
ATOM     28  O   UNL     1       2.055  13.021   0.356  0.00  0.00    -0.153 OA
ATOM     29  O   UNL     1       4.104  12.582   1.702  0.00  0.00    -0.153 OA
BRANCH  27  30
ATOM     30  N   UNL     1       4.270  12.948  -0.736  0.00  0.00    -0.177 NA
ATOM     31  C   UNL     1       5.719  13.123  -0.566  0.00  0.00    +0.109 C 
ATOM     32  C   UNL     1       6.439  12.331  -1.669  0.00  0.00    +0.017 C 
ATOM     33  C   UNL     1       5.909  12.774  -3.035  0.00  0.00    +0.003 C 
ATOM     34  C   UNL     1       4.411  12.472  -3.125  0.00  0.00    +0.017 C 
ATOM     35  C   UNL     1       3.670  13.259  -2.040  0.00  0.00    +0.109 C 
ENDBRANCH  27  30
ENDBRANCH  23  27
ENDBRANCH   1  25
TORSDOF 4
