REMARK  Name = ZINC39465936
REMARK  6 active torsions:
REMARK  status: ('A' for Active; 'I' for Inactive)
REMARK    1  A    between atoms: C_4  and  C_7
REMARK    2  A    between atoms: C_7  and  C_8
REMARK    3  A    between atoms: C_13  and  O_14
REMARK    4  A    between atoms: P_22  and  S_25
REMARK    5  A    between atoms: S_25  and  O_28
REMARK    6  A    between atoms: O_28  and  C_29
REMARK                            x       y       z     vdW  Elec       q    Type
REMARK                         _______ _______ _______ _____ _____    ______ ____
ROOT
ATOM      1  C   UNL     1       4.164  -0.959   1.377  0.00  0.00    -0.001 A 
ATOM      2  C   UNL     1       3.973  -2.198   1.954  0.00  0.00    +0.013 A 
ATOM      3  C   UNL     1       4.388  -2.440   3.256  0.00  0.00    -0.023 A 
ATOM      4  C   UNL     1       4.995  -1.433   3.978  0.00  0.00    -0.038 A 
ATOM      5  C   UNL     1       5.188  -0.188   3.403  0.00  0.00    +0.049 A 
ATOM      6  C   UNL     1       4.780   0.051   2.101  0.00  0.00    +0.121 A 
ATOM      7  C   UNL     1       5.462  -1.653   5.394  0.00  0.00    +0.052 C 
ATOM      8  C   UNL     1       4.765  -2.881   5.981  0.00  0.00    +0.108 C 
ATOM      9  N   UNL     1       4.936  -4.010   5.055  0.00  0.00    -0.224 NA
ATOM     10  C   UNL     1       4.154  -3.810   3.835  0.00  0.00    +0.129 C 
ATOM     11  C   UNL     1       4.501  -4.864   2.780  0.00  0.00    +0.195 C 
ATOM     12  O   UNL     1       4.163  -6.166   3.299  0.00  0.00    -0.296 OA
ATOM     13  P   UNL     1       4.698  -6.567   4.781  0.00  0.00    +0.458 P 
ATOM     14  O   UNL     1       6.105  -7.021   4.712  0.00  0.00    -0.243 OA
ATOM     15  N   UNL     1       4.588  -5.185   5.683  0.00  0.00    -0.158 NA
ATOM     16  H   UNL     1       4.293  -5.202   6.607  0.00  0.00    +0.152 HD
ENDROOT
BRANCH  13  17
ATOM     17  S   UNL     1       3.478  -8.089   5.613  0.00  0.00    +0.211 S 
ATOM     18  O   UNL     1       4.092  -8.479   6.833  0.00  0.00    -0.126 OA
ATOM     19  O   UNL     1       2.140  -7.615   5.551  0.00  0.00    -0.126 OA
BRANCH  17  20
ATOM     20  O   UNL     1       3.559  -9.289   4.681  0.00  0.00    -0.339 OA
BRANCH  20  21
ATOM     21  C   UNL     1       4.727  -9.979   4.768  0.00  0.00    +0.157 A 
ATOM     22  C   UNL     1       5.800  -9.631   3.960  0.00  0.00    +0.048 A 
ATOM     23  C   UNL     1       6.987 -10.333   4.050  0.00  0.00    +0.004 A 
ATOM     24  C   UNL     1       7.105 -11.381   4.944  0.00  0.00    +0.000 A 
ATOM     25  C   UNL     1       6.037 -11.730   5.750  0.00  0.00    +0.004 A 
ATOM     26  C   UNL     1       4.851 -11.027   5.668  0.00  0.00    +0.048 A 
ENDBRANCH  20  21
ENDBRANCH  17  20
ENDBRANCH  13  17
BRANCH   6  27
ATOM     27  O   UNL     1       4.976   1.272   1.537  0.00  0.00    -0.506 OA
ATOM     28  H   UNL     1       4.246   1.891   1.674  0.00  0.00    +0.292 HD
ENDBRANCH   6  27
BRANCH   1  29
ATOM     29  C   UNL     1       3.711  -0.707  -0.038  0.00  0.00    +0.074 C 
BRANCH  29  33
ATOM     30  C   UNL     1      -0.017   1.378   0.010  0.00  0.00    +0.000 A 
ATOM     31  C   UNL     1       1.171   2.086   0.002  0.00  0.00    +0.000 A 
ATOM     32  C   UNL     1       2.377   1.411  -0.013  0.00  0.00    +0.004 A 
ATOM     33  C   UNL     1       2.396   0.029  -0.020  0.00  0.00    -0.043 A 
ATOM     34  C   UNL     1       1.208  -0.679  -0.012  0.00  0.00    +0.004 A 
ATOM     35  C   UNL     1       0.002  -0.004   0.002  0.00  0.00    +0.000 A 
ENDBRANCH  29  33
ENDBRANCH   1  29
TORSDOF 6
