REMARK  Name = ZINC18191851
REMARK  8 active torsions:
REMARK  status: ('A' for Active; 'I' for Inactive)
REMARK    1  A    between atoms: C_1  and  C_2
REMARK    2  A    between atoms: C_5  and  C_8
REMARK    3  A    between atoms: C_8  and  C_9
REMARK    4  A    between atoms: C_8  and  C_21
REMARK    5  A    between atoms: N_15  and  C_18
REMARK    6  A    between atoms: C_18  and  C_19
REMARK    7  A    between atoms: N_27  and  C_30
REMARK    8  A    between atoms: C_30  and  C_31
REMARK                            x       y       z     vdW  Elec       q    Type
REMARK                         _______ _______ _______ _____ _____    ______ ____
ROOT
ATOM      1  C   UNL     1       0.059  -4.275  -0.021  0.00  0.00    +0.100 C 
ENDROOT
BRANCH   1   2
ATOM      2  C   UNL     1       1.312  -4.939   0.489  0.00  0.00    +0.093 A 
ATOM      3  C   UNL     1       1.524  -6.270   0.281  0.00  0.00    +0.260 A 
ATOM      4  O   UNL     1       0.610  -7.008  -0.386  0.00  0.00    -0.267 OA
ATOM      5  N   UNL     1       2.671  -6.854   0.754  0.00  0.00    -0.302 N 
ATOM      6  C   UNL     1       3.584  -6.122   1.419  0.00  0.00    +0.164 A 
ATOM      7  S   UNL     1       5.008  -6.875   1.999  0.00  0.00    -0.013 S 
ATOM      8  N   UNL     1       3.394  -4.807   1.634  0.00  0.00    -0.284 N 
ATOM      9  C   UNL     1       2.283  -4.193   1.181  0.00  0.00    +0.263 A 
ATOM     10  O   UNL     1       2.118  -3.001   1.375  0.00  0.00    -0.267 OA
ATOM     11  H   UNL     1       2.826  -7.800   0.608  0.00  0.00    +0.171 HD
BRANCH   8  12
ATOM     12  C   UNL     1       4.406  -4.036   2.361  0.00  0.00    +0.154 C 
BRANCH  12  13
ATOM     13  C   UNL     1       5.409  -3.477   1.385  0.00  0.00    -0.013 C 
ATOM     14  C   UNL     1       5.651  -2.189   1.360  0.00  0.00    +0.005 C 
ENDBRANCH  12  13
ENDBRANCH   8  12
ENDBRANCH   1   2
BRANCH   1  15
ATOM     15  C   UNL     1      -1.142  -4.885   0.653  0.00  0.00    +0.095 A 
ATOM     16  C   UNL     1      -2.386  -4.902   0.011  0.00  0.00    +0.282 A 
ATOM     17  O   UNL     1      -2.519  -4.371  -1.226  0.00  0.00    -0.265 OA
ATOM     18  N   UNL     1      -3.434  -5.443   0.619  0.00  0.00    -0.184 NA
ATOM     19  C   UNL     1      -3.322  -5.971   1.835  0.00  0.00    +0.186 A 
ATOM     20  S   UNL     1      -4.700  -6.658   2.584  0.00  0.00    -0.011 S 
ATOM     21  N   UNL     1      -2.144  -5.974   2.486  0.00  0.00    -0.283 N 
ATOM     22  C   UNL     1      -1.035  -5.434   1.901  0.00  0.00    +0.263 A 
ATOM     23  O   UNL     1       0.151  -5.439   2.547  0.00  0.00    -0.267 OA
BRANCH  21  24
ATOM     24  C   UNL     1      -2.051  -6.562   3.825  0.00  0.00    +0.154 C 
BRANCH  24  25
ATOM     25  C   UNL     1      -1.705  -8.024   3.708  0.00  0.00    -0.013 C 
ATOM     26  C   UNL     1      -0.659  -8.501   4.336  0.00  0.00    +0.005 C 
ENDBRANCH  24  25
ENDBRANCH  21  24
ENDBRANCH   1  15
BRANCH   1  31
ATOM     27  C   UNL     1       0.260   1.381   1.146  0.00  0.00    +0.044 C 
ATOM     28  C   UNL     1       0.208  -0.094   0.841  0.00  0.00    -0.050 A 
ATOM     29  C   UNL     1       0.566  -0.554  -0.412  0.00  0.00    +0.003 A 
ATOM     30  C   UNL     1       0.518  -1.907  -0.691  0.00  0.00    +0.005 A 
ATOM     31  C   UNL     1       0.113  -2.800   0.283  0.00  0.00    -0.035 A 
ATOM     32  C   UNL     1      -0.244  -2.340   1.537  0.00  0.00    +0.005 A 
ATOM     33  C   UNL     1      -0.192  -0.988   1.817  0.00  0.00    +0.003 A 
ENDBRANCH   1  31
TORSDOF 7
