REMARK  Name = ZINC36573011
REMARK  16 active torsions:
REMARK  status: ('A' for Active; 'I' for Inactive)
REMARK    1  A    between atoms: C_1  and  C_2
REMARK    2  A    between atoms: C_2  and  C_3
REMARK    3  A    between atoms: C_3  and  N_4
REMARK    4  A    between atoms: N_4  and  C_5
REMARK    5  A    between atoms: C_5  and  C_7
REMARK    6  A    between atoms: C_5  and  C_16
REMARK    7  A    between atoms: N_18  and  C_19
REMARK    8  A    between atoms: C_19  and  C_20
REMARK    9  A    between atoms: C_19  and  C_21
REMARK   10  A    between atoms: C_19  and  C_22
REMARK   11  A    between atoms: C_22  and  C_23
REMARK   12  A    between atoms: C_23  and  C_24
REMARK   13  A    between atoms: C_23  and  C_25
REMARK   14  A    between atoms: C_23  and  C_26
REMARK   15  A    between atoms: C_27  and  C_29
REMARK   16  A    between atoms: C_29  and  C_30
REMARK                            x       y       z     vdW  Elec       q    Type
REMARK                         _______ _______ _______ _____ _____    ______ ____
ROOT
ATOM      1  C   UNL     1      -0.075  -2.166   1.738  0.00  0.00    +0.192 C 
ENDROOT
BRANCH   1   2
ATOM      2  C   UNL     1      -1.227  -1.397   2.332  0.00  0.00    -0.015 A 
ATOM      3  C   UNL     1      -1.081  -0.055   2.628  0.00  0.00    +0.010 A 
ATOM      4  C   UNL     1      -2.135   0.655   3.173  0.00  0.00    +0.050 A 
ATOM      5  C   UNL     1      -3.341   0.021   3.424  0.00  0.00    +0.166 A 
ATOM      6  C   UNL     1      -3.488  -1.331   3.126  0.00  0.00    +0.167 A 
ATOM      7  C   UNL     1      -2.429  -2.035   2.575  0.00  0.00    +0.055 A 
ATOM      8  O   UNL     1      -4.754  -1.717   3.462  0.00  0.00    -0.453 OA
ATOM      9  C   UNL     1      -5.247  -0.692   4.345  0.00  0.00    +0.466 C 
ATOM     10  O   UNL     1      -4.514   0.483   3.947  0.00  0.00    -0.453 OA
ENDBRANCH   1   2
BRANCH   1  11
ATOM     11  C   UNL     1       0.949  -2.443   2.808  0.00  0.00    +0.238 C 
ATOM     12  O   UNL     1       2.063  -1.971   2.719  0.00  0.00    -0.273 OA
ATOM     13  N   UNL     1       0.628  -3.216   3.864  0.00  0.00    -0.308 N 
ATOM     14  H   UNL     1      -0.263  -3.594   3.935  0.00  0.00    +0.149 HD
BRANCH  13  15
ATOM     15  C   UNL     1       1.623  -3.486   4.904  0.00  0.00    +0.030 C 
ATOM     16  C   UNL     1       2.759  -4.327   4.318  0.00  0.00    +0.031 C 
ATOM     17  C   UNL     1       2.186  -2.163   5.427  0.00  0.00    +0.031 C 
BRANCH  15  18
ATOM     18  C   UNL     1       0.964  -4.250   6.055  0.00  0.00    +0.031 C 
BRANCH  18  19
ATOM     19  C   UNL     1      -0.456  -3.723   6.270  0.00  0.00    -0.036 C 
ATOM     20  C   UNL     1      -1.417  -4.447   5.325  0.00  0.00    +0.010 C 
ATOM     21  C   UNL     1      -0.879  -3.973   7.719  0.00  0.00    +0.010 C 
ATOM     22  C   UNL     1      -0.491  -2.221   5.980  0.00  0.00    +0.010 C 
ENDBRANCH  18  19
ENDBRANCH  15  18
ENDBRANCH  13  15
ENDBRANCH   1  11
BRANCH   1  23
ATOM     23  N   UNL     1       0.539  -1.375   0.667  0.00  0.00    -0.286 N 
ATOM     24  C   UNL     1      -0.115  -1.195  -0.497  0.00  0.00    +0.221 C 
ATOM     25  O   UNL     1      -1.212  -1.687  -0.659  0.00  0.00    -0.275 OA
BRANCH  23  26
ATOM     26  C   UNL     1       1.864  -0.781   0.863  0.00  0.00    +0.108 C 
BRANCH  26  28
ATOM     27  C   UNL     1       4.320  -1.146   0.592  0.00  0.00    +0.005 C 
ATOM     28  C   UNL     1       2.940  -1.794   0.468  0.00  0.00    +0.016 C 
ENDBRANCH  26  28
ENDBRANCH  23  26
BRANCH  24  29
ATOM     29  C   UNL     1       0.516  -0.382  -1.598  0.00  0.00    +0.131 C 
BRANCH  29  30
ATOM     30  C   UNL     1      -0.413  -0.334  -2.783  0.00  0.00    -0.035 A 
ATOM     31  C   UNL     1      -0.333  -1.306  -3.762  0.00  0.00    +0.008 A 
ATOM     32  C   UNL     1      -1.184  -1.267  -4.851  0.00  0.00    +0.050 A 
ATOM     33  C   UNL     1      -2.119  -0.251  -4.964  0.00  0.00    +0.166 A 
ATOM     34  C   UNL     1      -2.200   0.729  -3.977  0.00  0.00    +0.166 A 
ATOM     35  C   UNL     1      -1.348   0.679  -2.886  0.00  0.00    +0.053 A 
ATOM     36  O   UNL     1      -3.189   1.607  -4.314  0.00  0.00    -0.453 OA
ATOM     37  C   UNL     1      -3.436   1.388  -5.716  0.00  0.00    +0.466 C 
ATOM     38  O   UNL     1      -3.058   0.013  -5.919  0.00  0.00    -0.453 OA
ENDBRANCH  29  30
ENDBRANCH  24  29
ENDBRANCH   1  23
TORSDOF 10
