REMARK  Name = ZINC09053692
REMARK  8 active torsions:
REMARK  status: ('A' for Active; 'I' for Inactive)
REMARK    1  A    between atoms: C_1  and  O_2
REMARK    2  A    between atoms: O_2  and  C_3
REMARK    3  A    between atoms: C_6  and  C_11
REMARK    4  A    between atoms: C_8  and  O_9
REMARK    5  A    between atoms: O_9  and  C_10
REMARK    6  A    between atoms: C_11  and  N_12
REMARK    7  A    between atoms: N_18  and  C_21
REMARK    8  A    between atoms: C_24  and  C_26
REMARK                            x       y       z     vdW  Elec       q    Type
REMARK                         _______ _______ _______ _____ _____    ______ ____
ROOT
ATOM      1  N   UNL     1      -5.286   2.030   8.540  0.00  0.00    -0.295 N 
ATOM      2  C   UNL     1      -5.579   2.817   7.486  0.00  0.00    +0.303 C 
ATOM      3  O   UNL     1      -6.730   3.149   7.277  0.00  0.00    -0.253 OA
ATOM      4  N   UNL     1      -4.597   3.237   6.664  0.00  0.00    -0.283 N 
ATOM      5  C   UNL     1      -4.907   4.005   5.448  0.00  0.00    +0.128 C 
ATOM      6  C   UNL     1      -4.203   3.340   4.260  0.00  0.00    +0.125 C 
ATOM      7  N   UNL     1      -2.771   3.201   4.559  0.00  0.00    -0.314 N 
ATOM      8  C   UNL     1      -2.551   2.316   5.711  0.00  0.00    +0.125 C 
ATOM      9  C   UNL     1      -3.187   2.938   6.958  0.00  0.00    +0.128 C 
ATOM     10  H   UNL     1      -4.361   1.825   8.749  0.00  0.00    +0.151 HD
ENDROOT
BRANCH   7  11
ATOM     11  C   UNL     1      -2.071   2.752   3.445  0.00  0.00    +0.099 A 
ATOM     12  C   UNL     1      -0.696   2.557   3.528  0.00  0.00    +0.042 A 
ATOM     13  C   UNL     1      -0.012   2.110   2.412  0.00  0.00    +0.017 A 
ATOM     14  C   UNL     1      -0.729   1.874   1.246  0.00  0.00    +0.071 A 
ATOM     15  C   UNL     1      -2.091   2.095   1.233  0.00  0.00    +0.096 A 
ATOM     16  N   UNL     1      -2.797   2.527   2.312  0.00  0.00    -0.349 N 
ATOM     17  H   UNL     1      -3.812   2.675   2.276  0.00  0.00    +0.167 HD
BRANCH  14  18
ATOM     18  C   UNL     1      -0.025   1.386   0.005  0.00  0.00    +0.419 C 
ATOM     19  F   UNL     1      -0.007  -0.012  -0.002  0.00  0.00    -0.166 F 
ATOM     20  F   UNL     1       1.288   1.869  -0.006  0.00  0.00    -0.166 F 
ATOM     21  F   UNL     1      -0.702   1.850  -1.127  0.00  0.00    -0.166 F 
ENDBRANCH  14  18
ENDBRANCH   7  11
BRANCH   1  22
ATOM     22  C   UNL     1      -6.363   1.483   9.368  0.00  0.00    +0.141 C 
BRANCH  22  26
ATOM     23  C   UNL     1      -4.686  -0.905  12.494  0.00  0.00    +0.162 A 
ATOM     24  C   UNL     1      -5.013  -1.482  11.277  0.00  0.00    +0.050 A 
ATOM     25  C   UNL     1      -5.560  -0.708  10.271  0.00  0.00    +0.009 A 
ATOM     26  C   UNL     1      -5.772   0.643  10.471  0.00  0.00    -0.027 A 
ATOM     27  C   UNL     1      -5.449   1.225  11.682  0.00  0.00    +0.054 A 
ATOM     28  C   UNL     1      -4.905   0.454  12.698  0.00  0.00    +0.162 A 
BRANCH  23  30
ATOM     29  C   UNL     1      -3.956  -3.053  13.207  0.00  0.00    +0.277 C 
ATOM     30  O   UNL     1      -4.153  -1.665  13.487  0.00  0.00    -0.491 OA
ENDBRANCH  23  30
BRANCH  28  31
ATOM     31  O   UNL     1      -4.585   1.025  13.890  0.00  0.00    -0.491 OA
ATOM     32  C   UNL     1      -4.837   2.425  14.027  0.00  0.00    +0.277 C 
ENDBRANCH  28  31
ENDBRANCH  22  26
ENDBRANCH   1  22
TORSDOF 6
