REMARK  Name = ZINC19220170
REMARK  7 active torsions:
REMARK  status: ('A' for Active; 'I' for Inactive)
REMARK    1  A    between atoms: C_1  and  C_2
REMARK    2  A    between atoms: C_8  and  C_30
REMARK    3  A    between atoms: C_9  and  C_12
REMARK    4  A    between atoms: C_19  and  C_21
REMARK    5  A    between atoms: C_21  and  C_22
REMARK    6  A    between atoms: C_22  and  C_24
REMARK    7  A    between atoms: C_22  and  N_25
REMARK                            x       y       z     vdW  Elec       q    Type
REMARK                         _______ _______ _______ _____ _____    ______ ____
ROOT
ATOM      1  C   UNL     1     -12.463  -0.568  -2.450  0.00  0.00    +0.044 C 
ATOM      2  C   UNL     1     -11.027  -0.352  -2.852  0.00  0.00    -0.050 A 
ATOM      3  C   UNL     1     -10.535  -0.955  -4.002  0.00  0.00    +0.005 A 
ATOM      4  C   UNL     1      -9.226  -0.770  -4.386  0.00  0.00    +0.026 A 
ATOM      5  C   UNL     1      -8.385   0.028  -3.616  0.00  0.00    +0.047 A 
ATOM      6  C   UNL     1      -8.888   0.635  -2.454  0.00  0.00    +0.008 A 
ATOM      7  C   UNL     1     -10.217   0.435  -2.082  0.00  0.00    +0.014 A 
ATOM      8  C   UNL     1      -7.767   1.393  -1.874  0.00  0.00    +0.011 A 
ATOM      9  C   UNL     1      -6.705   1.207  -2.698  0.00  0.00    +0.029 A 
ATOM     10  N   UNL     1      -7.062   0.395  -3.733  0.00  0.00    -0.357 N 
ATOM     11  H   UNL     1      -6.462   0.031  -4.581  0.00  0.00    +0.166 HD
ENDROOT
BRANCH   9  12
ATOM     12  C   UNL     1      -5.337   1.804  -2.495  0.00  0.00    +0.054 C 
ATOM     13  C   UNL     1      -4.979   2.682  -3.696  0.00  0.00    +0.013 C 
ATOM     14  C   UNL     1      -3.603   3.315  -3.476  0.00  0.00    +0.020 C 
ATOM     15  C   UNL     1      -2.550   2.208  -3.356  0.00  0.00    +0.108 C 
ATOM     16  N   UNL     1      -2.962   1.276  -2.297  0.00  0.00    -0.301 N 
ATOM     17  C   UNL     1      -4.301   0.676  -2.367  0.00  0.00    +0.117 C 
ATOM     18  C   UNL     1      -2.126   0.973  -1.285  0.00  0.00    +0.218 C 
ATOM     19  O   UNL     1      -2.477   0.203  -0.417  0.00  0.00    -0.276 OA
BRANCH  18  20
ATOM     20  C   UNL     1      -0.753   1.593  -1.232  0.00  0.00    +0.122 C 
BRANCH  20  21
ATOM     21  C   UNL     1      -0.013   1.086   0.008  0.00  0.00    +0.113 C 
ATOM     22  C   UNL     1      -0.729   1.579   1.267  0.00  0.00    +0.033 C 
BRANCH  21  23
ATOM     23  N   UNL     1       1.362   1.593  -0.002  0.00  0.00    -0.268 N 
ATOM     24  C   UNL     1       1.769   2.793   0.461  0.00  0.00    +0.108 A 
ATOM     25  C   UNL     1       3.106   2.877   0.270  0.00  0.00    +0.041 A 
ATOM     26  C   UNL     1       3.530   1.688  -0.331  0.00  0.00    +0.134 A 
ATOM     27  N   UNL     1       2.486   0.915  -0.490  0.00  0.00    -0.179 NA
ENDBRANCH  21  23
ENDBRANCH  20  21
ENDBRANCH  18  20
ENDBRANCH   9  12
BRANCH   8  28
ATOM     28  C   UNL     1      -7.794   2.202  -0.634  0.00  0.00    -0.013 A 
ATOM     29  C   UNL     1      -7.029   1.839   0.479  0.00  0.00    +0.028 A 
ATOM     30  C   UNL     1      -7.080   2.624   1.611  0.00  0.00    +0.111 A 
ATOM     31  N   UNL     1      -7.845   3.698   1.656  0.00  0.00    -0.263 NA
ATOM     32  C   UNL     1      -8.587   4.073   0.631  0.00  0.00    +0.111 A 
ATOM     33  C   UNL     1      -8.591   3.349  -0.542  0.00  0.00    +0.028 A 
ENDBRANCH   8  28
TORSDOF 5
