REMARK  Name = ZINC00705606
REMARK  7 active torsions:
REMARK  status: ('A' for Active; 'I' for Inactive)
REMARK    1  A    between atoms: C_1  and  C_2
REMARK    2  A    between atoms: C_7  and  C_8
REMARK    3  A    between atoms: C_14  and  C_29
REMARK    4  A    between atoms: C_15  and  C_22
REMARK    5  A    between atoms: C_17  and  C_20
REMARK    6  A    between atoms: C_18  and  N_19
REMARK    7  A    between atoms: C_27  and  C_28
REMARK                            x       y       z     vdW  Elec       q    Type
REMARK                         _______ _______ _______ _____ _____    ______ ____
ROOT
ATOM      1  C   UNL     1      -0.098   5.545  -0.648  0.00  0.00    +0.028 C 
ATOM      2  C   UNL     1       1.079   6.170  -0.394  0.00  0.00    +0.080 A 
ATOM      3  C   UNL     1       2.447   5.638  -0.450  0.00  0.00    +0.271 A 
ATOM      4  O   UNL     1       2.653   4.480  -0.758  0.00  0.00    -0.266 OA
ATOM      5  N   UNL     1       3.470   6.466  -0.156  0.00  0.00    -0.256 N 
ATOM      6  C   UNL     1       3.161   7.767   0.194  0.00  0.00    +0.104 A 
ATOM      7  C   UNL     1       4.080   8.710   0.521  0.00  0.00    +0.072 C 
ATOM      8  C   UNL     1       5.545   8.323   0.505  0.00  0.00    +0.106 C 
ATOM      9  C   UNL     1       5.842   6.889   0.117  0.00  0.00    +0.080 C 
ATOM     10  C   UNL     1       4.811   6.069  -0.182  0.00  0.00    +0.119 C 
ATOM     11  S   UNL     1       1.383   7.857   0.104  0.00  0.00    -0.065 S 
ENDROOT
BRANCH   1  18
ATOM     12  C   UNL     1      -1.907   3.555   0.422  0.00  0.00    +0.044 C 
ATOM     13  C   UNL     1      -0.973   3.218  -0.711  0.00  0.00    -0.043 A 
ATOM     14  C   UNL     1      -0.976   1.951  -1.256  0.00  0.00    +0.004 A 
ATOM     15  C   UNL     1      -0.115   1.637  -2.293  0.00  0.00    +0.000 A 
ATOM     16  C   UNL     1       0.748   2.594  -2.800  0.00  0.00    +0.001 A 
ATOM     17  C   UNL     1       0.759   3.867  -2.271  0.00  0.00    +0.008 A 
ATOM     18  C   UNL     1      -0.104   4.191  -1.218  0.00  0.00    -0.021 A 
ENDBRANCH   1  18
BRANCH   8  19
ATOM     19  C   UNL     1       6.112   8.567   1.880  0.00  0.00    -0.031 A 
ATOM     20  C   UNL     1       5.600   7.886   2.969  0.00  0.00    +0.005 A 
ATOM     21  C   UNL     1       6.120   8.110   4.230  0.00  0.00    +0.000 A 
ATOM     22  C   UNL     1       7.152   9.013   4.402  0.00  0.00    +0.000 A 
ATOM     23  C   UNL     1       7.664   9.693   3.313  0.00  0.00    +0.003 A 
ATOM     24  C   UNL     1       7.147   9.466   2.051  0.00  0.00    -0.046 A 
ATOM     25  C   UNL     1       7.709  10.204   0.863  0.00  0.00    +0.044 C 
ENDBRANCH   8  19
BRANCH  10  26
ATOM     26  N   UNL     1       5.096   4.771  -0.533  0.00  0.00    -0.343 N 
ATOM     27  H   UNL     1       4.455   4.067  -0.346  0.00  0.00    +0.144 HD
ATOM     28  H   UNL     1       5.937   4.559  -0.967  0.00  0.00    +0.144 HD
ENDBRANCH  10  26
BRANCH   9  29
ATOM     29  C   UNL     1       7.191   6.412   0.069  0.00  0.00    +0.099 C 
ATOM     30  N   UNL     1       8.262   6.033   0.030  0.00  0.00    -0.191 NA
ENDBRANCH   9  29
BRANCH   7  31
ATOM     31  C   UNL     1       3.675  10.039   0.872  0.00  0.00    +0.098 C 
ATOM     32  N   UNL     1       3.354  11.092   1.151  0.00  0.00    -0.191 NA
ENDBRANCH   7  31
TORSDOF 5
