REMARK  Name = ZINC12180623
REMARK  11 active torsions:
REMARK  status: ('A' for Active; 'I' for Inactive)
REMARK    1  A    between atoms: C_1  and  C_2
REMARK    2  A    between atoms: C_2  and  C_3
REMARK    3  A    between atoms: C_3  and  S_4
REMARK    4  A    between atoms: S_4  and  N_7
REMARK    5  A    between atoms: C_14  and  N_17
REMARK    6  A    between atoms: N_17  and  S_18
REMARK    7  A    between atoms: S_18  and  C_21
REMARK    8  A    between atoms: C_23  and  C_30
REMARK    9  A    between atoms: C_24  and  O_28
REMARK   10  A    between atoms: C_25  and  C_27
REMARK   11  A    between atoms: O_28  and  C_29
REMARK                            x       y       z     vdW  Elec       q    Type
REMARK                         _______ _______ _______ _____ _____    ______ ____
ROOT
ATOM      1  N   UNL     1      -0.726  -0.724   0.452  0.00  0.00    -0.207 N 
ATOM      2  C   UNL     1      -0.625  -2.171   0.219  0.00  0.00    +0.131 C 
ATOM      3  C   UNL     1       0.701  -2.652   0.821  0.00  0.00    +0.025 C 
ATOM      4  C   UNL     1       1.854  -1.976   0.079  0.00  0.00    +0.038 C 
ATOM      5  C   UNL     1       1.649  -0.484   0.032  0.00  0.00    -0.025 A 
ATOM      6  C   UNL     1       0.394   0.080   0.210  0.00  0.00    +0.056 A 
ATOM      7  C   UNL     1       0.235   1.458   0.155  0.00  0.00    +0.049 A 
ATOM      8  C   UNL     1       1.334   2.274  -0.075  0.00  0.00    +0.050 A 
ATOM      9  C   UNL     1       2.590   1.705  -0.251  0.00  0.00    +0.025 A 
ATOM     10  C   UNL     1       2.742   0.334  -0.197  0.00  0.00    +0.007 A 
ENDROOT
BRANCH   1  11
ATOM     11  S   UNL     1      -2.141  -0.055   0.992  0.00  0.00    +0.045 S 
ATOM     12  O   UNL     1      -2.876  -1.146   1.531  0.00  0.00    -0.155 OA
ATOM     13  O   UNL     1      -1.738   1.027   1.820  0.00  0.00    -0.155 OA
BRANCH  11  14
ATOM     14  C   UNL     1      -2.960   0.572  -0.501  0.00  0.00    +0.188 C 
BRANCH  14  16
ATOM     15  C   UNL     1      -4.982   1.748  -1.377  0.00  0.00    +0.005 C 
ATOM     16  C   UNL     1      -4.292   1.219  -0.118  0.00  0.00    +0.021 C 
ENDBRANCH  14  16
ENDBRANCH  11  14
ENDBRANCH   1  11
BRANCH   8  17
ATOM     17  N   UNL     1       1.178   3.660  -0.132  0.00  0.00    -0.216 N 
ATOM     18  H   UNL     1       1.221   4.119  -0.985  0.00  0.00    +0.174 HD
BRANCH  17  19
ATOM     19  S   UNL     1       0.921   4.522   1.259  0.00  0.00    +0.072 S 
ATOM     20  O   UNL     1       0.831   5.888   0.880  0.00  0.00    -0.150 OA
ATOM     21  O   UNL     1      -0.119   3.856   1.962  0.00  0.00    -0.150 OA
BRANCH  19  22
ATOM     22  C   UNL     1       2.374   4.368   2.244  0.00  0.00    +0.109 A 
ATOM     23  C   UNL     1       2.441   3.398   3.228  0.00  0.00    +0.035 A 
ATOM     24  C   UNL     1       3.581   3.272   3.997  0.00  0.00    -0.007 A 
ATOM     25  C   UNL     1       4.655   4.125   3.790  0.00  0.00    +0.126 A 
ATOM     26  C   UNL     1       4.583   5.101   2.806  0.00  0.00    -0.007 A 
ATOM     27  C   UNL     1       3.443   5.220   2.035  0.00  0.00    +0.035 A 
ATOM     28  C   UNL     1       5.747   6.030   2.579  0.00  0.00    +0.047 C 
ATOM     29  C   UNL     1       3.656   2.211   5.065  0.00  0.00    +0.047 C 
BRANCH  25  30
ATOM     30  O   UNL     1       5.776   4.006   4.549  0.00  0.00    -0.495 OA
ATOM     31  C   UNL     1       5.825   4.767   5.758  0.00  0.00    +0.277 C 
ENDBRANCH  25  30
ENDBRANCH  19  22
ENDBRANCH  17  19
ENDBRANCH   8  17
TORSDOF 7
