REMARK  Name = ZINC16185154
REMARK  10 active torsions:
REMARK  status: ('A' for Active; 'I' for Inactive)
REMARK    1  A    between atoms: C_1  and  C_2
REMARK    2  A    between atoms: C_2  and  O_3
REMARK    3  A    between atoms: O_3  and  C_4
REMARK    4  A    between atoms: C_6  and  C_20
REMARK    5  A    between atoms: C_9  and  O_10
REMARK    6  A    between atoms: O_10  and  C_11
REMARK    7  A    between atoms: C_11  and  C_13
REMARK    8  A    between atoms: C_16  and  C_19
REMARK    9  A    between atoms: C_25  and  C_29
REMARK   10  A    between atoms: C_26  and  C_28
REMARK                            x       y       z     vdW  Elec       q    Type
REMARK                         _______ _______ _______ _____ _____    ______ ____
ROOT
ATOM      1  C   UNL     1      -0.011  -0.011  -0.028  0.00  0.00    +0.163 A 
ATOM      2  C   UNL     1       1.196  -0.692  -0.044  0.00  0.00    +0.056 A 
ATOM      3  C   UNL     1       2.386   0.011  -0.025  0.00  0.00    -0.006 A 
ATOM      4  C   UNL     1       2.376   1.393   0.011  0.00  0.00    +0.011 A 
ATOM      5  C   UNL     1       1.176   2.078   0.027  0.00  0.00    +0.050 A 
ATOM      6  C   UNL     1      -0.021   1.380   0.008  0.00  0.00    +0.173 A 
ENDROOT
BRANCH   3   7
ATOM      7  C   UNL     1       3.698  -0.731  -0.043  0.00  0.00    +0.190 C 
ATOM      8  N   UNL     1       4.718   0.107  -0.698  0.00  0.00    -0.316 N 
ATOM      9  C   UNL     1       4.742   0.086  -2.068  0.00  0.00    +0.080 A 
ATOM     10  C   UNL     1       4.246  -0.992  -2.821  0.00  0.00    +0.068 A 
ATOM     11  C   UNL     1       4.347  -0.836  -4.253  0.00  0.00    -0.027 A 
ATOM     12  C   UNL     1       4.899   0.300  -4.720  0.00  0.00    -0.008 A 
ATOM     13  S   UNL     1       5.303   1.204  -3.236  0.00  0.00    -0.078 S 
ATOM     14  C   UNL     1       5.122   0.709  -6.153  0.00  0.00    +0.052 C 
ATOM     15  C   UNL     1       3.852  -1.906  -5.191  0.00  0.00    +0.045 C 
ATOM     16  C   UNL     1       3.691  -2.145  -2.076  0.00  0.00    +0.248 C 
ATOM     17  O   UNL     1       3.401  -3.184  -2.640  0.00  0.00    -0.270 OA
ATOM     18  N   UNL     1       3.521  -1.997  -0.746  0.00  0.00    -0.289 N 
ATOM     19  H   UNL     1       5.340   0.647  -0.186  0.00  0.00    +0.149 HD
ATOM     20  H   UNL     1       3.266  -2.777  -0.229  0.00  0.00    +0.151 HD
ENDBRANCH   3   7
BRANCH   1  21
ATOM     21  O   UNL     1      -1.183  -0.701  -0.046  0.00  0.00    -0.489 OA
BRANCH  21  23
ATOM     22  C   UNL     1      -2.504  -2.723  -0.100  0.00  0.00    +0.048 C 
ATOM     23  C   UNL     1      -1.096  -2.127  -0.083  0.00  0.00    +0.226 C 
ENDBRANCH  21  23
ENDBRANCH   1  21
BRANCH   6  24
ATOM     24  O   UNL     1      -1.203   2.053   0.019  0.00  0.00    -0.419 OA
BRANCH  24  25
ATOM     25  C   UNL     1      -1.829   2.169   1.206  0.00  0.00    +0.345 C 
ATOM     26  O   UNL     1      -1.291   1.770   2.219  0.00  0.00    -0.245 OA
BRANCH  25  27
ATOM     27  C   UNL     1      -3.172   2.781   1.275  0.00  0.00    +0.059 A 
ATOM     28  C   UNL     1      -3.792   3.245   0.113  0.00  0.00    +0.015 A 
ATOM     29  C   UNL     1      -5.048   3.811   0.184  0.00  0.00    +0.004 A 
ATOM     30  C   UNL     1      -5.689   3.928   1.405  0.00  0.00    -0.050 A 
ATOM     31  C   UNL     1      -5.079   3.475   2.561  0.00  0.00    +0.004 A 
ATOM     32  C   UNL     1      -3.825   2.903   2.503  0.00  0.00    +0.015 A 
ATOM     33  C   UNL     1      -7.059   4.552   1.475  0.00  0.00    +0.044 C 
ENDBRANCH  25  27
ENDBRANCH  24  25
ENDBRANCH   6  24
TORSDOF 6
