REMARK  Name = ZINC02161149
REMARK  4 active torsions:
REMARK  status: ('A' for Active; 'I' for Inactive)
REMARK    1  A    between atoms: C_12  and  C_14
REMARK    2  A    between atoms: C_14  and  C_15
REMARK    3  A    between atoms: C_15  and  C_16
REMARK    4  A    between atoms: N_21  and  C_24
REMARK                            x       y       z     vdW  Elec       q    Type
REMARK                         _______ _______ _______ _____ _____    ______ ____
ROOT
ATOM      1  C   UNL     1      -0.261   1.284   1.766  0.00  0.00    +0.000 A 
ATOM      2  C   UNL     1       0.873   1.968   2.167  0.00  0.00    +0.002 A 
ATOM      3  C   UNL     1       2.109   1.359   2.112  0.00  0.00    +0.023 A 
ATOM      4  C   UNL     1       2.225   0.050   1.650  0.00  0.00    +0.036 A 
ATOM      5  C   UNL     1       1.078  -0.627   1.248  0.00  0.00    -0.028 A 
ATOM      6  C   UNL     1      -0.155  -0.016   1.306  0.00  0.00    +0.004 A 
ATOM      7  C   UNL     1       1.537  -1.990   0.811  0.00  0.00    +0.050 C 
ATOM      8  C   UNL     1       1.174  -2.261  -0.654  0.00  0.00    +0.088 C 
ATOM      9  C   UNL     1       0.830  -3.776  -0.697  0.00  0.00    +0.073 C 
ATOM     10  C   UNL     1       1.038  -4.272   0.749  0.00  0.00    -0.057 C 
ATOM     11  C   UNL     1      -0.646  -3.791  -1.024  0.00  0.00    +0.224 C 
ATOM     12  O   UNL     1      -1.327  -4.786  -1.141  0.00  0.00    -0.275 OA
ATOM     13  N   UNL     1      -1.083  -2.534  -1.162  0.00  0.00    -0.239 N 
ATOM     14  C   UNL     1      -0.137  -1.582  -0.986  0.00  0.00    +0.225 C 
ATOM     15  O   UNL     1      -0.302  -0.385  -1.073  0.00  0.00    -0.275 OA
ATOM     16  C   UNL     1       3.027  -1.985   1.016  0.00  0.00    +0.211 C 
ATOM     17  O   UNL     1       3.792  -2.897   0.787  0.00  0.00    -0.277 OA
ATOM     18  N   UNL     1       3.346  -0.770   1.502  0.00  0.00    -0.286 N 
ATOM     19  H   UNL     1       4.250  -0.496   1.723  0.00  0.00    +0.155 HD
ATOM     20  N   UNL     1       0.904  -3.060   1.561  0.00  0.00    +0.394 N 
ATOM     21  H   UNL     1      -0.088  -2.845   1.717  0.00  0.00    -0.083 HD
ATOM     22  H   UNL     1       1.374  -3.185   2.466  0.00  0.00    -0.083 HD
ENDROOT
BRANCH  13  23
ATOM     23  C   UNL     1      -2.474  -2.210  -1.487  0.00  0.00    +0.084 C 
ATOM     24  C   UNL     1      -3.386  -2.741  -0.362  0.00  0.00    +0.023 C 
ATOM     25  C   UNL     1      -4.692  -1.994  -0.414  0.00  0.00    +0.002 C 
ATOM     26  C   UNL     1      -5.761  -2.737  -1.238  0.00  0.00    +0.000 C 
ATOM     27  C   UNL     1      -5.196  -3.355  -2.531  0.00  0.00    +0.000 C 
ATOM     28  C   UNL     1      -4.234  -2.436  -3.236  0.00  0.00    +0.002 C 
ATOM     29  C   UNL     1      -2.802  -2.785  -2.783  0.00  0.00    +0.023 C 
ENDBRANCH  13  23
BRANCH  10  30
ATOM     30  C   UNL     1       2.439  -4.866   0.912  0.00  0.00    -0.006 C 
BRANCH  30  31
ATOM     31  C   UNL     1       2.392  -6.368   0.627  0.00  0.00    +0.094 C 
BRANCH  31  32
ATOM     32  C   UNL     1       3.771  -6.954   0.787  0.00  0.00    +0.210 C 
ATOM     33  O   UNL     1       4.700  -6.240   1.099  0.00  0.00    -0.276 OA
ATOM     34  N   UNL     1       3.972  -8.271   0.584  0.00  0.00    -0.329 N 
ATOM     35  H   UNL     1       3.228  -8.842   0.334  0.00  0.00    +0.145 HD
ATOM     36  H   UNL     1       4.860  -8.648   0.687  0.00  0.00    +0.145 HD
ENDBRANCH  31  32
ENDBRANCH  30  31
ENDBRANCH  10  30
TORSDOF 4
