REMARK  Name = ZINC08838378
REMARK  5 active torsions:
REMARK  status: ('A' for Active; 'I' for Inactive)
REMARK    1  A    between atoms: C_3  and  N_8
REMARK    2  A    between atoms: C_10  and  C_15
REMARK    3  A    between atoms: C_15  and  N_16
REMARK    4  A    between atoms: N_16  and  S_17
REMARK    5  A    between atoms: S_17  and  C_20
REMARK                            x       y       z     vdW  Elec       q    Type
REMARK                         _______ _______ _______ _____ _____    ______ ____
ROOT
ATOM      1  N   UNL     1      -1.799  -4.485  -4.719  0.00  0.00    -0.234 N 
ATOM      2  C   UNL     1      -1.045  -3.226  -4.632  0.00  0.00    +0.163 C 
ATOM      3  C   UNL     1      -1.901  -2.349  -3.697  0.00  0.00    +0.211 C 
ATOM      4  O   UNL     1      -3.036  -3.197  -3.359  0.00  0.00    -0.444 OA
ATOM      5  C   UNL     1      -2.906  -4.380  -3.971  0.00  0.00    +0.408 C 
ATOM      6  O   UNL     1      -3.719  -5.277  -3.859  0.00  0.00    -0.226 OA
ENDROOT
BRANCH   1   9
ATOM      7  C   UNL     1       0.124  -6.706  -6.932  0.00  0.00    +0.003 A 
ATOM      8  C   UNL     1      -0.249  -5.592  -6.203  0.00  0.00    +0.024 A 
ATOM      9  C   UNL     1      -1.422  -5.610  -5.461  0.00  0.00    +0.041 A 
ATOM     10  C   UNL     1      -2.224  -6.744  -5.462  0.00  0.00    +0.043 A 
ATOM     11  C   UNL     1      -1.849  -7.853  -6.197  0.00  0.00    +0.043 A 
ATOM     12  C   UNL     1      -0.676  -7.833  -6.931  0.00  0.00    +0.020 A 
ATOM     13 CL   UNL     1      -2.850  -9.271  -6.199  0.00  0.00    -0.083 Cl
ENDBRANCH   1   9
BRANCH   3  14
ATOM     14  C   UNL     1      -1.114  -1.980  -2.438  0.00  0.00    +0.152 C 
BRANCH  14  15
ATOM     15  N   UNL     1      -1.948  -1.147  -1.568  0.00  0.00    -0.186 NA
ATOM     16  H   UNL     1      -2.755  -0.738  -1.916  0.00  0.00    +0.148 HD
BRANCH  15  17
ATOM     17  S   UNL     1      -1.512  -0.905   0.012  0.00  0.00    +0.059 S 
ATOM     18  O   UNL     1      -1.218  -2.186   0.553  0.00  0.00    -0.153 OA
ATOM     19  O   UNL     1      -2.493  -0.046   0.576  0.00  0.00    -0.153 OA
BRANCH  17  20
ATOM     20  C   UNL     1       0.002  -0.004   0.002  0.00  0.00    +0.105 A 
ATOM     21  C   UNL     1      -0.017   1.378   0.010  0.00  0.00    +0.029 A 
ATOM     22  C   UNL     1       1.171   2.086   0.002  0.00  0.00    +0.017 A 
ATOM     23  C   UNL     1       2.378   1.411  -0.013  0.00  0.00    +0.018 A 
ATOM     24  C   UNL     1       2.396   0.027  -0.020  0.00  0.00    +0.017 A 
ATOM     25  C   UNL     1       1.208  -0.679  -0.013  0.00  0.00    +0.029 A 
ATOM     26 BR   UNL     1       4.003   2.378  -0.023  0.00  0.00    -0.050 Br
ENDBRANCH  17  20
ENDBRANCH  15  17
ENDBRANCH  14  15
ENDBRANCH   3  14
TORSDOF 5
