REMARK  Name = ZINC03655243
REMARK  8 active torsions:
REMARK  status: ('A' for Active; 'I' for Inactive)
REMARK    1  A    between atoms: C_1  and  C_2
REMARK    2  A    between atoms: C_5  and  C_8
REMARK    3  A    between atoms: C_14  and  C_16
REMARK    4  A    between atoms: C_16  and  S_17
REMARK    5  A    between atoms: S_17  and  C_18
REMARK    6  A    between atoms: C_26  and  C_30
REMARK    7  A    between atoms: N_33  and  C_34
REMARK    8  A    between atoms: C_34  and  C_35
REMARK                            x       y       z     vdW  Elec       q    Type
REMARK                         _______ _______ _______ _____ _____    ______ ____
ROOT
ATOM      1  S   UNL     1      -0.167  -3.455   0.587  0.00  0.00    -0.078 S 
ENDROOT
BRANCH   1   2
ATOM      2  C   UNL     1      -0.824  -2.963  -0.972  0.00  0.00    +0.173 A 
ATOM      3  N   UNL     1      -0.832  -3.819  -1.974  0.00  0.00    -0.216 NA
ATOM      4  C   UNL     1      -1.320  -3.474  -3.160  0.00  0.00    +0.117 A 
ATOM      5  C   UNL     1      -1.848  -2.195  -3.407  0.00  0.00    +0.076 A 
ATOM      6  C   UNL     1      -2.348  -1.962  -4.763  0.00  0.00    -0.023 A 
ATOM      7  C   UNL     1      -2.255  -2.986  -5.635  0.00  0.00    -0.004 A 
ATOM      8  S   UNL     1      -1.507  -4.305  -4.717  0.00  0.00    -0.073 S 
ATOM      9  C   UNL     1      -2.692  -3.001  -7.068  0.00  0.00    +0.046 C 
ATOM     10  C   UNL     1      -3.607  -1.792  -7.308  0.00  0.00    -0.009 C 
ATOM     11  C   UNL     1      -2.940  -0.546  -6.717  0.00  0.00    +0.008 C 
ATOM     12  C   UNL     1      -2.952  -0.627  -5.190  0.00  0.00    +0.037 C 
ATOM     13  C   UNL     1      -3.819  -1.600  -8.811  0.00  0.00    +0.008 C 
ATOM     14  C   UNL     1      -1.832  -1.289  -2.300  0.00  0.00    +0.263 A 
ATOM     15  O   UNL     1      -2.274  -0.159  -2.420  0.00  0.00    -0.267 OA
ATOM     16  N   UNL     1      -1.318  -1.700  -1.126  0.00  0.00    -0.283 N 
BRANCH  16  17
ATOM     17  C   UNL     1      -1.293  -0.775   0.010  0.00  0.00    +0.154 C 
BRANCH  17  18
ATOM     18  C   UNL     1       0.002  -0.004   0.002  0.00  0.00    -0.013 C 
ATOM     19  C   UNL     1      -0.016   1.306   0.009  0.00  0.00    +0.005 C 
ENDBRANCH  17  18
ENDBRANCH  16  17
ENDBRANCH   1   2
BRANCH   1  20
ATOM     20  C   UNL     1       0.314  -5.157   0.201  0.00  0.00    +0.173 C 
BRANCH  20  27
ATOM     21  C   UNL     1       2.866  -9.441   3.556  0.00  0.00    +0.130 A 
ATOM     22  N   UNL     1       2.334  -8.909   2.462  0.00  0.00    -0.205 NA
ATOM     23  C   UNL     1       1.914  -7.666   2.507  0.00  0.00    +0.230 A 
ATOM     24  N   UNL     1       2.020  -6.983   3.629  0.00  0.00    -0.174 NA
ATOM     25  S   UNL     1       2.747  -8.123   4.678  0.00  0.00    +0.035 S 
ATOM     26  N   UNL     1       1.353  -7.072   1.373  0.00  0.00    -0.253 N 
ATOM     27  C   UNL     1       0.919  -5.797   1.424  0.00  0.00    +0.230 C 
ATOM     28  O   UNL     1       1.015  -5.165   2.455  0.00  0.00    -0.274 OA
ATOM     29  H   UNL     1       1.276  -7.578   0.548  0.00  0.00    +0.158 HD
BRANCH  21  34
ATOM     30  C   UNL     1       4.984 -14.730   4.370  0.00  0.00    +0.044 C 
ATOM     31  C   UNL     1       4.429 -13.345   4.157  0.00  0.00    -0.050 A 
ATOM     32  C   UNL     1       4.431 -12.435   5.199  0.00  0.00    +0.004 A 
ATOM     33  C   UNL     1       3.925 -11.165   5.010  0.00  0.00    +0.011 A 
ATOM     34  C   UNL     1       3.410 -10.800   3.765  0.00  0.00    +0.009 A 
ATOM     35  C   UNL     1       3.406 -11.725   2.720  0.00  0.00    +0.011 A 
ATOM     36  C   UNL     1       3.920 -12.990   2.920  0.00  0.00    +0.004 A 
ENDBRANCH  21  34
ENDBRANCH  20  27
ENDBRANCH   1  20
TORSDOF 6
