REMARK  Name = ZINC65265669
REMARK  3 active torsions:
REMARK  status: ('A' for Active; 'I' for Inactive)
REMARK    1  A    between atoms: C_16  and  C_18
REMARK    2  A    between atoms: C_18  and  C_19
REMARK    3  A    between atoms: N_24  and  C_25
REMARK                            x       y       z     vdW  Elec       q    Type
REMARK                         _______ _______ _______ _____ _____    ______ ____
ROOT
ATOM      1  C   UNL     1      -0.017   1.376   0.010  0.00  0.00    +0.022 A 
ATOM      2  C   UNL     1       1.185   2.072   0.002  0.00  0.00    +0.028 A 
ATOM      3  C   UNL     1       2.367   1.345  -0.010  0.00  0.00    +0.069 A 
ATOM      4  C   UNL     1       2.310  -0.050  -0.009  0.00  0.00    +0.145 A 
ATOM      5  N   UNL     1       1.141  -0.671  -0.007  0.00  0.00    -0.238 NA
ATOM      6  C   UNL     1       0.002  -0.004   0.002  0.00  0.00    +0.113 A 
ATOM      7  N   UNL     1       3.494  -0.797   0.005  0.00  0.00    -0.286 N 
ATOM      8  C   UNL     1       4.680  -0.132  -0.249  0.00  0.00    +0.098 C 
ATOM      9  C   UNL     1       4.812   1.263   0.326  0.00  0.00    +0.089 C 
ATOM     10  N   UNL     1       3.599   2.011  -0.031  0.00  0.00    -0.329 N 
ATOM     11  C   UNL     1       6.038   1.949  -0.274  0.00  0.00    +0.052 C 
ATOM     12  C   UNL     1       6.144   3.373   0.282  0.00  0.00    +0.110 C 
ATOM     13  N   UNL     1       6.136   3.310   1.750  0.00  0.00    -0.301 N 
ATOM     14  C   UNL     1       5.040   2.599   2.422  0.00  0.00    +0.110 C 
ATOM     15  C   UNL     1       4.944   1.183   1.845  0.00  0.00    +0.052 C 
ATOM     16  C   UNL     1       7.117   3.893   2.466  0.00  0.00    +0.220 C 
ATOM     17  O   UNL     1       8.017   4.477   1.900  0.00  0.00    -0.275 OA
ATOM     18  N   UNL     1       5.628  -0.674  -0.942  0.00  0.00    -0.372 N 
ATOM     19  H   UNL     1       3.651   2.948  -0.277  0.00  0.00    +0.147 HD
ATOM     20  H   UNL     1       6.450  -0.186  -1.105  0.00  0.00    +0.161 HD
ATOM     21  H   UNL     1       3.482  -1.750   0.186  0.00  0.00    +0.155 HD
ENDROOT
BRANCH  18  22
ATOM     22  C   UNL     1       5.460  -2.027  -1.480  0.00  0.00    +0.080 C 
ATOM     23  C   UNL     1       5.919  -3.070  -0.440  0.00  0.00    +0.024 C 
ATOM     24  C   UNL     1       6.596  -4.177  -1.286  0.00  0.00    +0.002 C 
ATOM     25  C   UNL     1       7.327  -3.368  -2.386  0.00  0.00    +0.002 C 
ATOM     26  C   UNL     1       6.355  -2.216  -2.717  0.00  0.00    +0.024 C 
ENDBRANCH  18  22
BRANCH  16  27
ATOM     27  C   UNL     1       7.096   3.820   3.971  0.00  0.00    +0.138 C 
BRANCH  27  28
ATOM     28  C   UNL     1       8.295   4.545   4.527  0.00  0.00    -0.001 A 
ATOM     29  C   UNL     1       8.415   5.847   4.882  0.00  0.00    +0.011 A 
ATOM     30  C   UNL     1       9.626   6.298   5.375  0.00  0.00    +0.008 A 
ATOM     31  C   UNL     1      10.656   5.425   5.488  0.00  0.00    +0.045 A 
ATOM     32  S   UNL     1       9.922   3.909   4.894  0.00  0.00    -0.101 S 
ENDBRANCH  27  28
ENDBRANCH  16  27
TORSDOF 3
