REMARK  Name = ZINC11430780
REMARK  7 active torsions:
REMARK  status: ('A' for Active; 'I' for Inactive)
REMARK    1  A    between atoms: C_1  and  C_2
REMARK    2  A    between atoms: C_2  and  C_4
REMARK    3  A    between atoms: C_2  and  O_17
REMARK    4  A    between atoms: N_6  and  C_7
REMARK    5  A    between atoms: C_9  and  N_14
REMARK    6  A    between atoms: O_17  and  C_18
REMARK    7  A    between atoms: C_18  and  C_20
REMARK                            x       y       z     vdW  Elec       q    Type
REMARK                         _______ _______ _______ _____ _____    ______ ____
ROOT
ATOM      1  C   UNL     1      -2.076  -0.347   1.478  0.00  0.00    +0.062 C 
ATOM      2  C   UNL     1      -1.485  -0.645   0.099  0.00  0.00    +0.259 C 
ENDROOT
BRANCH   2   3
ATOM      3  C   UNL     1      -0.128   0.001  -0.016  0.00  0.00    +0.258 C 
ATOM      4  O   UNL     1       0.863  -0.688  -0.131  0.00  0.00    -0.271 OA
ATOM      5  N   UNL     1      -0.016   1.344   0.009  0.00  0.00    -0.281 N 
ATOM      6  H   UNL     1      -0.920   1.970   0.039  0.00  0.00    +0.155 HD
BRANCH   5   7
ATOM      7  C   UNL     1       1.250   1.941  -0.003  0.00  0.00    +0.054 A 
ATOM      8  C   UNL     1       2.287   1.358  -0.718  0.00  0.00    +0.057 A 
ATOM      9  C   UNL     1       3.534   1.952  -0.732  0.00  0.00    +0.128 A 
ATOM     10  C   UNL     1       3.753   3.121  -0.026  0.00  0.00    +0.034 A 
ATOM     11  C   UNL     1       2.724   3.702   0.692  0.00  0.00    +0.024 A 
ATOM     12  C   UNL     1       1.472   3.115   0.706  0.00  0.00    +0.062 A 
ATOM     13 CL   UNL     1       0.181   3.844   1.608  0.00  0.00    -0.082 Cl
BRANCH   9  14
ATOM     14  N   UNL     1       4.639   1.334  -1.499  0.00  0.00    +0.056 N 
ATOM     15  O   UNL     1       5.740   1.855  -1.508  0.00  0.00    -0.126 OA
ATOM     16  O   UNL     1       4.447   0.305  -2.121  0.00  0.00    -0.126 OA
ENDBRANCH   9  14
ENDBRANCH   5   7
ENDBRANCH   2   3
BRANCH   2  17
ATOM     17  O   UNL     1      -1.354  -2.081  -0.072  0.00  0.00    -0.452 OA
BRANCH  17  18
ATOM     18  C   UNL     1      -2.401  -2.728  -0.607  0.00  0.00    +0.314 C 
ATOM     19  O   UNL     1      -3.394  -2.116  -0.921  0.00  0.00    -0.250 OA
BRANCH  18  20
ATOM     20  C   UNL     1      -2.338  -4.220  -0.815  0.00  0.00    +0.070 C 
ATOM     21  C   UNL     1      -2.122  -4.914   0.532  0.00  0.00    +0.021 C 
ATOM     22  C   UNL     1      -2.058  -6.428   0.321  0.00  0.00    -0.008 C 
ATOM     23  C   UNL     1      -0.898  -6.763  -0.618  0.00  0.00    +0.007 C 
ATOM     24  C   UNL     1      -1.114  -6.069  -1.965  0.00  0.00    -0.008 C 
ATOM     25  C   UNL     1      -1.178  -4.555  -1.754  0.00  0.00    +0.021 C 
ATOM     26  C   UNL     1      -2.427  -6.554  -2.583  0.00  0.00    +0.021 C 
ATOM     27  C   UNL     1      -3.587  -6.218  -1.644  0.00  0.00    +0.028 C 
ATOM     28  C   UNL     1      -3.371  -6.912  -0.298  0.00  0.00    +0.021 C 
ATOM     29  C   UNL     1      -3.651  -4.704  -1.433  0.00  0.00    +0.036 C 
ATOM     30 BR   UNL     1      -5.274  -6.841  -2.439  0.00  0.00    -0.084 Br
ENDBRANCH  18  20
ENDBRANCH  17  18
ENDBRANCH   2  17
TORSDOF 6
