REMARK  Name = ZINC38686282
REMARK  12 active torsions:
REMARK  status: ('A' for Active; 'I' for Inactive)
REMARK    1  A    between atoms: C_1  and  C_2
REMARK    2  A    between atoms: C_5  and  C_8
REMARK    3  A    between atoms: C_8  and  O_9
REMARK    4  A    between atoms: O_9  and  C_10
REMARK    5  A    between atoms: C_13  and  C_16
REMARK    6  A    between atoms: C_21  and  O_30
REMARK    7  A    between atoms: C_25  and  N_29
REMARK    8  A    between atoms: C_26  and  C_27
REMARK    9  A    between atoms: O_30  and  C_31
REMARK   10  A    between atoms: C_31  and  C_33
REMARK   11  A    between atoms: C_33  and  O_34
REMARK   12  A    between atoms: O_34  and  C_35
REMARK                            x       y       z     vdW  Elec       q    Type
REMARK                         _______ _______ _______ _____ _____    ______ ____
ROOT
ATOM      1  C   UNL     1       2.278 -10.290  -0.039  0.00  0.00    +0.098 C 
ATOM      2  C   UNL     1       3.031 -10.678  -1.284  0.00  0.00    +0.008 A 
ATOM      3  C   UNL     1       2.346 -10.817  -2.478  0.00  0.00    +0.012 A 
ATOM      4  C   UNL     1       3.019 -11.173  -3.630  0.00  0.00    +0.047 A 
ATOM      5  C   UNL     1       4.389 -11.393  -3.592  0.00  0.00    +0.135 A 
ATOM      6  C   UNL     1       5.078 -11.255  -2.398  0.00  0.00    +0.093 A 
ATOM      7  C   UNL     1       4.399 -10.896  -1.241  0.00  0.00    +0.138 A 
ATOM      8  O   UNL     1       5.088 -10.766  -0.080  0.00  0.00    -0.441 OA
ATOM      9  C   UNL     1       4.436 -10.807   1.094  0.00  0.00    +0.199 C 
ATOM     10  C   UNL     1       3.106 -10.588   1.179  0.00  0.00    +0.098 C 
ENDROOT
BRANCH   1  14
ATOM     11  C   UNL     1       1.401  -6.109  -0.163  0.00  0.00    +0.121 A 
ATOM     12  C   UNL     1       0.369  -7.034  -0.097  0.00  0.00    +0.046 A 
ATOM     13  C   UNL     1       0.655  -8.385  -0.058  0.00  0.00    +0.008 A 
ATOM     14  C   UNL     1       1.969  -8.815  -0.083  0.00  0.00    -0.034 A 
ATOM     15  C   UNL     1       2.999  -7.895  -0.148  0.00  0.00    +0.008 A 
ATOM     16  C   UNL     1       2.718  -6.544  -0.194  0.00  0.00    +0.046 A 
BRANCH  11  17
ATOM     17  O   UNL     1       1.121  -4.780  -0.202  0.00  0.00    -0.487 OA
BRANCH  17  18
ATOM     18  C   UNL     1      -0.257  -4.405  -0.167  0.00  0.00    +0.264 C 
BRANCH  18  23
ATOM     19  C   UNL     1      -0.697   1.354  -0.365  0.00  0.00    +0.044 C 
ATOM     20  C   UNL     1      -0.582  -0.148  -0.314  0.00  0.00    -0.050 A 
ATOM     21  C   UNL     1      -0.571  -0.881  -1.485  0.00  0.00    +0.004 A 
ATOM     22  C   UNL     1      -0.466  -2.259  -1.438  0.00  0.00    +0.007 A 
ATOM     23  C   UNL     1      -0.371  -2.903  -0.219  0.00  0.00    -0.010 A 
ATOM     24  C   UNL     1      -0.381  -2.170   0.953  0.00  0.00    +0.007 A 
ATOM     25  C   UNL     1      -0.482  -0.792   0.906  0.00  0.00    +0.004 A 
ENDBRANCH  18  23
ENDBRANCH  17  18
ENDBRANCH  11  17
ENDBRANCH   1  14
BRANCH   9  26
ATOM     26  N   UNL     1       5.143 -11.077   2.239  0.00  0.00    -0.328 N 
ATOM     27  H   UNL     1       6.099 -11.235   2.193  0.00  0.00    +0.145 HD
ATOM     28  H   UNL     1       4.687 -11.110   3.094  0.00  0.00    +0.145 HD
ENDBRANCH   9  26
BRANCH  10  29
ATOM     29  C   UNL     1       2.471 -10.645   2.462  0.00  0.00    +0.101 C 
ATOM     30  N   UNL     1       1.968 -10.689   3.479  0.00  0.00    -0.191 NA
ENDBRANCH  10  29
BRANCH   5  31
ATOM     31  O   UNL     1       5.054 -11.744  -4.725  0.00  0.00    -0.423 OA
BRANCH  31  32
ATOM     32  C   UNL     1       5.544 -12.991  -4.807  0.00  0.00    +0.350 C 
ATOM     33  O   UNL     1       5.300 -13.795  -3.938  0.00  0.00    -0.247 OA
BRANCH  32  34
ATOM     34  C   UNL     1       6.398 -13.389  -5.983  0.00  0.00    +0.349 C 
BRANCH  34  35
ATOM     35  O   UNL     1       6.795 -14.754  -5.844  0.00  0.00    -0.481 OA
BRANCH  35  36
ATOM     36  C   UNL     1       7.576 -15.274  -6.827  0.00  0.00    +0.121 A 
ATOM     37  C   UNL     1       7.956 -14.483  -7.902  0.00  0.00    +0.045 A 
ATOM     38  C   UNL     1       8.750 -15.013  -8.901  0.00  0.00    +0.004 A 
ATOM     39  C   UNL     1       9.165 -16.331  -8.830  0.00  0.00    +0.000 A 
ATOM     40  C   UNL     1       8.786 -17.120  -7.760  0.00  0.00    +0.004 A 
ATOM     41  C   UNL     1       7.998 -16.593  -6.756  0.00  0.00    +0.045 A 
ENDBRANCH  35  36
ENDBRANCH  34  35
ENDBRANCH  32  34
ENDBRANCH  31  32
ENDBRANCH   5  31
TORSDOF 11
