REMARK  Name = ZINC36208050
REMARK  11 active torsions:
REMARK  status: ('A' for Active; 'I' for Inactive)
REMARK    1  A    between atoms: C_1  and  C_2
REMARK    2  A    between atoms: C_5  and  C_42
REMARK    3  A    between atoms: C_6  and  C_8
REMARK    4  A    between atoms: C_8  and  N_9
REMARK    5  A    between atoms: C_19  and  C_31
REMARK    6  A    between atoms: C_21  and  C_26
REMARK    7  A    between atoms: N_24  and  C_25
REMARK    8  A    between atoms: C_31  and  C_33
REMARK    9  A    between atoms: C_36  and  C_39
REMARK   10  A    between atoms: C_39  and  C_40
REMARK   11  A    between atoms: C_39  and  C_41
REMARK                            x       y       z     vdW  Elec       q    Type
REMARK                         _______ _______ _______ _____ _____    ______ ____
ROOT
ATOM      1  N   UNL     1       0.957  -3.716   3.204  0.00  0.00    -0.265 N 
ATOM      2  C   UNL     1       1.528  -4.904   2.740  0.00  0.00    +0.042 A 
ATOM      3  C   UNL     1       1.074  -5.825   1.799  0.00  0.00    +0.024 A 
ATOM      4  C   UNL     1       1.827  -6.942   1.503  0.00  0.00    +0.002 A 
ATOM      5  C   UNL     1       3.037  -7.157   2.138  0.00  0.00    +0.000 A 
ATOM      6  C   UNL     1       3.494  -6.247   3.074  0.00  0.00    +0.008 A 
ATOM      7  C   UNL     1       2.745  -5.131   3.373  0.00  0.00    +0.004 A 
ATOM      8  C   UNL     1       2.944  -3.976   4.317  0.00  0.00    +0.137 C 
ATOM      9  C   UNL     1       1.728  -3.108   4.125  0.00  0.00    +0.246 C 
ATOM     10  O   UNL     1       1.487  -2.063   4.692  0.00  0.00    -0.273 OA
ATOM     11  C   UNL     1       4.223  -3.198   3.968  0.00  0.00    +0.106 C 
ATOM     12  C   UNL     1       4.763  -2.780   5.363  0.00  0.00    +0.082 C 
ATOM     13  C   UNL     1       4.373  -4.002   6.232  0.00  0.00    +0.097 C 
ATOM     14  N   UNL     1       3.059  -4.436   5.706  0.00  0.00    -0.287 NA
ATOM     15  C   UNL     1       1.963  -3.908   6.529  0.00  0.00    +0.106 C 
ENDROOT
BRANCH  12  16
ATOM     16  C   UNL     1       6.259  -2.596   5.329  0.00  0.00    +0.110 A 
ATOM     17  C   UNL     1       6.919  -1.460   5.618  0.00  0.00    +0.045 A 
ATOM     18  C   UNL     1       8.296  -1.735   5.458  0.00  0.00    +0.041 A 
ATOM     19  C   UNL     1       8.396  -3.023   5.081  0.00  0.00    +0.195 A 
ATOM     20  O   UNL     1       7.159  -3.541   5.010  0.00  0.00    -0.467 OA
ENDBRANCH  12  16
BRANCH  11  21
ATOM     21  C   UNL     1       5.209  -4.085   3.253  0.00  0.00    +0.170 C 
ATOM     22  O   UNL     1       5.673  -5.054   3.817  0.00  0.00    -0.292 OA
BRANCH  21  23
ATOM     23  C   UNL     1       5.609  -3.776   1.871  0.00  0.00    +0.018 A 
ATOM     24  C   UNL     1       5.081  -2.657   1.220  0.00  0.00    +0.011 A 
ATOM     25  C   UNL     1       5.461  -2.374  -0.075  0.00  0.00    +0.004 A 
ATOM     26  C   UNL     1       6.363  -3.194  -0.730  0.00  0.00    -0.045 A 
ATOM     27  C   UNL     1       6.890  -4.304  -0.092  0.00  0.00    +0.004 A 
ATOM     28  C   UNL     1       6.524  -4.597   1.204  0.00  0.00    +0.011 A 
BRANCH  26  29
ATOM     29  C   UNL     1       6.773  -2.877  -2.145  0.00  0.00    +0.013 C 
ATOM     30  C   UNL     1       8.286  -2.654  -2.200  0.00  0.00    +0.012 C 
ATOM     31  C   UNL     1       6.397  -4.045  -3.059  0.00  0.00    +0.012 C 
ENDBRANCH  26  29
ENDBRANCH  21  23
ENDBRANCH  11  21
BRANCH   1  32
ATOM     32  C   UNL     1      -0.328  -3.190   2.737  0.00  0.00    +0.149 C 
BRANCH  32  38
ATOM     33  C   UNL     1       2.796  -0.684  -0.265  0.00  0.00    +0.044 C 
ATOM     34  C   UNL     1       1.395  -1.084   0.119  0.00  0.00    -0.050 A 
ATOM     35  C   UNL     1       0.318  -0.619  -0.613  0.00  0.00    +0.003 A 
ATOM     36  C   UNL     1      -0.967  -0.985  -0.261  0.00  0.00    +0.004 A 
ATOM     37  C   UNL     1      -1.176  -1.817   0.824  0.00  0.00    -0.046 A 
ATOM     38  C   UNL     1      -0.100  -2.283   1.555  0.00  0.00    -0.027 A 
ATOM     39  C   UNL     1       1.186  -1.920   1.200  0.00  0.00    +0.008 A 
ATOM     40  C   UNL     1      -2.578  -2.216   1.208  0.00  0.00    +0.044 C 
ENDBRANCH  32  38
ENDBRANCH   1  32
TORSDOF 6
