REMARK  Name = ZINC33253774
REMARK  13 active torsions:
REMARK  status: ('A' for Active; 'I' for Inactive)
REMARK    1  A    between atoms: C_1  and  C_2
REMARK    2  A    between atoms: C_3  and  C_8
REMARK    3  A    between atoms: C_4  and  C_7
REMARK    4  A    between atoms: C_8  and  C_9
REMARK    5  A    between atoms: C_9  and  N_10
REMARK    6  A    between atoms: N_10  and  C_11
REMARK    7  A    between atoms: N_10  and  C_12
REMARK    8  A    between atoms: C_15  and  N_21
REMARK    9  A    between atoms: C_17  and  C_18
REMARK   10  A    between atoms: N_21  and  S_22
REMARK   11  A    between atoms: S_22  and  C_25
REMARK   12  A    between atoms: C_28  and  O_32
REMARK   13  A    between atoms: O_32  and  C_33
REMARK                            x       y       z     vdW  Elec       q    Type
REMARK                         _______ _______ _______ _____ _____    ______ ____
ROOT
ATOM      1  C   UNL     1       1.427  -0.627  -5.491  0.00  0.00    +0.044 A 
ATOM      2  C   UNL     1       0.230  -1.102  -6.010  0.00  0.00    +0.026 A 
ATOM      3  C   UNL     1       0.236  -2.017  -7.041  0.00  0.00    +0.026 A 
ATOM      4  C   UNL     1       1.440  -2.473  -7.571  0.00  0.00    +0.049 A 
ATOM      5  C   UNL     1       2.642  -2.011  -7.066  0.00  0.00    +0.041 A 
ATOM      6  C   UNL     1       2.646  -1.077  -6.024  0.00  0.00    +0.086 A 
ENDROOT
BRANCH   6   7
ATOM      7  C   UNL     1       3.919  -0.576  -5.485  0.00  0.00    +0.388 C 
ATOM      8  O   UNL     1       4.979  -0.971  -5.952  0.00  0.00    -0.241 OA
ATOM      9  O   UNL     1       3.919   0.237  -4.571  0.00  0.00    -0.241 OA
ENDBRANCH   6   7
BRANCH   1  10
ATOM     10  N   UNL     1       1.419   0.296  -4.451  0.00  0.00    -0.332 N 
ATOM     11  C   UNL     1       1.398   1.731  -4.746  0.00  0.00    +0.129 C 
BRANCH  10  12
ATOM     12  C   UNL     1       1.433  -0.167  -3.061  0.00  0.00    +0.109 C 
BRANCH  12  13
ATOM     13  C   UNL     1      -0.005  -0.348  -2.571  0.00  0.00    +0.059 C 
BRANCH  13  16
ATOM     14  C   UNL     1      -0.018   1.503   0.010  0.00  0.00    +0.069 C 
ATOM     15  C   UNL     1       0.002  -0.004   0.002  0.00  0.00    +0.084 A 
ATOM     16  C   UNL     1       0.008  -0.824  -1.141  0.00  0.00    +0.019 A 
ATOM     17  C   UNL     1       0.027  -2.108  -0.735  0.00  0.00    +0.138 A 
ATOM     18  O   UNL     1       0.034  -2.119   0.606  0.00  0.00    -0.359 OA
ATOM     19  N   UNL     1       0.023  -0.775   1.052  0.00  0.00    -0.083 NA
ATOM     20  C   UNL     1       0.039  -3.320  -1.631  0.00  0.00    +0.089 C 
ENDBRANCH  13  16
ENDBRANCH  12  13
ENDBRANCH  10  12
ENDBRANCH   1  10
BRANCH   4  21
ATOM     21  N   UNL     1       1.435  -3.403  -8.617  0.00  0.00    -0.216 N 
ATOM     22  H   UNL     1       2.032  -4.167  -8.591  0.00  0.00    +0.174 HD
BRANCH  21  23
ATOM     23  S   UNL     1       0.408  -3.200  -9.901  0.00  0.00    +0.072 S 
ATOM     24  O   UNL     1       0.656  -4.276 -10.794  0.00  0.00    -0.150 OA
ATOM     25  O   UNL     1      -0.879  -2.944  -9.355  0.00  0.00    -0.150 OA
BRANCH  23  26
ATOM     26  C   UNL     1       0.903  -1.729 -10.735  0.00  0.00    +0.110 A 
ATOM     27  C   UNL     1       0.362  -0.511 -10.366  0.00  0.00    +0.032 A 
ATOM     28  C   UNL     1       0.748   0.644 -11.018  0.00  0.00    +0.049 A 
ATOM     29  C   UNL     1       1.678   0.582 -12.045  0.00  0.00    +0.138 A 
ATOM     30  C   UNL     1       2.220  -0.641 -12.414  0.00  0.00    +0.084 A 
ATOM     31  C   UNL     1       1.835  -1.794 -11.754  0.00  0.00    +0.052 A 
ATOM     32 CL   UNL     1       3.385  -0.724 -13.698  0.00  0.00    -0.080 Cl
BRANCH  29  33
ATOM     33  O   UNL     1       2.059   1.717 -12.689  0.00  0.00    -0.494 OA
ATOM     34  C   UNL     1       1.459   2.940 -12.256  0.00  0.00    +0.277 C 
ENDBRANCH  29  33
ENDBRANCH  23  26
ENDBRANCH  21  23
ENDBRANCH   4  21
TORSDOF 9
