REMARK  Name = ZINC38616987
REMARK  8 active torsions:
REMARK  status: ('A' for Active; 'I' for Inactive)
REMARK    1  A    between atoms: C_1  and  C_2
REMARK    2  A    between atoms: C_3  and  C_31
REMARK    3  A    between atoms: N_6  and  C_28
REMARK    4  A    between atoms: C_8  and  C_9
REMARK    5  A    between atoms: C_9  and  C_11
REMARK    6  A    between atoms: C_11  and  N_12
REMARK    7  A    between atoms: C_16  and  C_17
REMARK    8  A    between atoms: C_28  and  C_29
REMARK                            x       y       z     vdW  Elec       q    Type
REMARK                         _______ _______ _______ _____ _____    ______ ____
ROOT
ATOM      1  C   UNL     1      -0.464   1.863   1.718  0.00  0.00    +0.186 C 
ATOM      2  O   UNL     1       0.185   1.200   2.501  0.00  0.00    -0.290 OA
ENDROOT
BRANCH   1  10
ATOM      3  C   UNL     1       1.045  -0.439   0.787  0.00  0.00    +0.046 C 
ATOM      4  C   UNL     1       0.105   0.300  -0.130  0.00  0.00    -0.012 A 
ATOM      5  C   UNL     1      -0.065  -0.109  -1.447  0.00  0.00    +0.120 A 
ATOM      6  C   UNL     1      -0.988   0.636  -2.305  0.00  0.00    +0.272 A 
ATOM      7  O   UNL     1      -1.154   0.297  -3.463  0.00  0.00    -0.266 OA
ATOM      8  N   UNL     1      -1.652   1.698  -1.812  0.00  0.00    -0.270 N 
ATOM      9  C   UNL     1      -1.485   2.096  -0.529  0.00  0.00    +0.265 A 
ATOM     10  C   UNL     1      -0.620   1.414   0.334  0.00  0.00    +0.088 A 
ATOM     11  O   UNL     1      -2.167   3.163  -0.073  0.00  0.00    -0.267 OA
BRANCH   5  12
ATOM     12  C   UNL     1       0.650  -1.241  -1.957  0.00  0.00    +0.105 C 
ATOM     13  N   UNL     1       1.217  -2.139  -2.361  0.00  0.00    -0.191 NA
ENDBRANCH   5  12
BRANCH   8  14
ATOM     14  C   UNL     1      -2.572   2.438  -2.680  0.00  0.00    +0.155 C 
BRANCH  14  15
ATOM     15  C   UNL     1      -3.951   1.839  -2.575  0.00  0.00    -0.013 C 
ATOM     16  C   UNL     1      -4.971   2.595  -2.253  0.00  0.00    +0.005 C 
ENDBRANCH  14  15
ENDBRANCH   8  14
ENDBRANCH   1  10
BRANCH   1  17
ATOM     17  C   UNL     1      -1.110   3.147   2.171  0.00  0.00    +0.194 C 
BRANCH  17  18
ATOM     18  N   UNL     1      -0.925   3.303   3.616  0.00  0.00    -0.248 N 
ATOM     19  C   UNL     1      -1.830   2.804   4.440  0.00  0.00    +0.259 C 
ATOM     20  O   UNL     1      -2.814   2.217   4.031  0.00  0.00    -0.269 OA
ATOM     21  C   UNL     1      -1.585   2.995   5.885  0.00  0.00    +0.077 C 
ATOM     22  C   UNL     1      -2.328   2.598   6.949  0.00  0.00    +0.028 C 
ATOM     23  S   UNL     1      -0.039   3.892   5.847  0.00  0.00    -0.061 S 
ATOM     24  C   UNL     1       0.167   3.947   4.074  0.00  0.00    +0.121 C 
ATOM     25  S   UNL     1       1.442   4.651   3.174  0.00  0.00    -0.027 S 
BRANCH  22  26
ATOM     26  C   UNL     1      -1.953   3.020   8.306  0.00  0.00    -0.024 A 
ATOM     27  C   UNL     1      -0.917   3.942   8.494  0.00  0.00    +0.009 A 
ATOM     28  C   UNL     1      -0.572   4.334   9.770  0.00  0.00    +0.020 A 
ATOM     29  C   UNL     1      -1.248   3.817  10.864  0.00  0.00    +0.041 A 
ATOM     30  C   UNL     1      -2.274   2.903  10.685  0.00  0.00    +0.020 A 
ATOM     31  C   UNL     1      -2.635   2.507   9.415  0.00  0.00    +0.009 A 
ATOM     32 CL   UNL     1      -0.806   4.316  12.467  0.00  0.00    -0.084 Cl
ENDBRANCH  22  26
ENDBRANCH  17  18
ENDBRANCH   1  17
TORSDOF 7
