REMARK  Name = ZINC03431181
REMARK  9 active torsions:
REMARK  status: ('A' for Active; 'I' for Inactive)
REMARK    1  A    between atoms: C_1  and  C_2
REMARK    2  A    between atoms: C_2  and  C_3
REMARK    3  A    between atoms: C_3  and  C_4
REMARK    4  A    between atoms: C_4  and  N_5
REMARK    5  A    between atoms: C_6  and  N_36
REMARK    6  A    between atoms: C_7  and  N_14
REMARK    7  A    between atoms: N_14  and  C_15
REMARK    8  A    between atoms: C_15  and  C_16
REMARK    9  A    between atoms: C_17  and  C_19
REMARK                            x       y       z     vdW  Elec       q    Type
REMARK                         _______ _______ _______ _____ _____    ______ ____
ROOT
ATOM      1  N   UNL     1       0.479  -3.920  -5.925  0.00  0.00    -0.260 N 
ATOM      2  C   UNL     1      -0.657  -3.217  -6.102  0.00  0.00    +0.251 C 
ATOM      3  O   UNL     1      -1.069  -3.000  -7.225  0.00  0.00    -0.270 OA
ENDROOT
BRANCH   2   4
ATOM      4  C   UNL     1      -1.403  -2.709  -4.929  0.00  0.00    +0.039 A 
ATOM      5  C   UNL     1      -0.725  -2.403  -3.747  0.00  0.00    +0.014 A 
ATOM      6  C   UNL     1      -1.420  -1.932  -2.657  0.00  0.00    +0.014 A 
ATOM      7  C   UNL     1      -2.809  -1.757  -2.725  0.00  0.00    +0.048 A 
ATOM      8  C   UNL     1      -3.482  -2.062  -3.908  0.00  0.00    +0.105 A 
ATOM      9  C   UNL     1      -2.784  -2.530  -5.002  0.00  0.00    +0.041 A 
ATOM     10  S   UNL     1      -5.227  -1.847  -4.019  0.00  0.00    +0.026 S 
ATOM     11  O   UNL     1      -5.470  -1.103  -5.204  0.00  0.00    -0.164 OA
ATOM     12  O   UNL     1      -5.809  -3.122  -3.786  0.00  0.00    -0.164 OA
ATOM     13  C   UNL     1      -5.710  -0.820  -2.671  0.00  0.00    +0.104 A 
ATOM     14  C   UNL     1      -6.950  -0.213  -2.687  0.00  0.00    +0.028 A 
ATOM     15  C   UNL     1      -7.342   0.597  -1.637  0.00  0.00    +0.002 A 
ATOM     16  C   UNL     1      -6.493   0.804  -0.564  0.00  0.00    +0.001 A 
ATOM     17  C   UNL     1      -5.253   0.204  -0.536  0.00  0.00    +0.013 A 
ATOM     18  C   UNL     1      -4.847  -0.621  -1.595  0.00  0.00    +0.047 A 
ATOM     19  C   UNL     1      -3.524  -1.256  -1.540  0.00  0.00    +0.197 C 
ATOM     20  O   UNL     1      -2.989  -1.376  -0.455  0.00  0.00    -0.287 OA
ENDBRANCH   2   4
BRANCH   1  23
ATOM     21  N   UNL     1       2.721  -3.750  -3.021  0.00  0.00    -0.280 N 
ATOM     22  C   UNL     1       2.235  -3.563  -4.293  0.00  0.00    +0.127 A 
ATOM     23  C   UNL     1       1.006  -4.095  -4.630  0.00  0.00    +0.140 A 
ATOM     24  C   UNL     1       0.287  -4.814  -3.655  0.00  0.00    +0.277 A 
ATOM     25  O   UNL     1      -0.800  -5.295  -3.925  0.00  0.00    -0.266 OA
ATOM     26  N   UNL     1       0.810  -4.968  -2.423  0.00  0.00    -0.273 N 
ATOM     27  H   UNL     1       0.316  -5.463  -1.751  0.00  0.00    +0.173 HD
ATOM     28  C   UNL     1       2.011  -4.447  -2.116  0.00  0.00    +0.331 A 
ATOM     29  O   UNL     1       2.461  -4.605  -0.997  0.00  0.00    -0.246 OA
BRANCH  22  30
ATOM     30  N   UNL     1       2.963  -2.856  -5.219  0.00  0.00    -0.343 N 
ATOM     31  H   UNL     1       3.804  -2.446  -4.965  0.00  0.00    +0.144 HD
ATOM     32  H   UNL     1       2.635  -2.765  -6.128  0.00  0.00    +0.144 HD
ENDBRANCH  22  30
BRANCH  21  33
ATOM     33  C   UNL     1       4.024  -3.192  -2.651  0.00  0.00    +0.128 C 
BRANCH  33  34
ATOM     34  C   UNL     1       5.122  -4.215  -2.953  0.00  0.00    +0.021 C 
BRANCH  34  36
ATOM     35  C   UNL     1       7.580  -4.654  -2.869  0.00  0.00    +0.004 C 
ATOM     36  C   UNL     1       6.482  -3.632  -2.566  0.00  0.00    -0.002 C 
ENDBRANCH  34  36
ENDBRANCH  33  34
ENDBRANCH  21  33
ENDBRANCH   1  23
BRANCH   1  37
ATOM     37  C   UNL     1       1.167  -4.503  -7.080  0.00  0.00    +0.111 C 
ATOM     38  C   UNL     1       0.537  -5.855  -7.420  0.00  0.00    +0.025 C 
ENDBRANCH   1  37
TORSDOF 7
