REMARK  Name = ZINC60330213
REMARK  8 active torsions:
REMARK  status: ('A' for Active; 'I' for Inactive)
REMARK    1  A    between atoms: C_4  and  C_7
REMARK    2  A    between atoms: C_7  and  N_8
REMARK    3  A    between atoms: N_16  and  C_20
REMARK    4  A    between atoms: C_20  and  C_21
REMARK    5  A    between atoms: C_21  and  C_23
REMARK    6  A    between atoms: C_21  and  O_35
REMARK    7  A    between atoms: C_23  and  O_24
REMARK    8  A    between atoms: O_24  and  C_25
REMARK                            x       y       z     vdW  Elec       q    Type
REMARK                         _______ _______ _______ _____ _____    ______ ____
ROOT
ATOM      1  N   UNL     1       4.153  -0.953   1.342  0.00  0.00    +0.384 N 
ATOM      2  C   UNL     1       3.204  -1.855   2.005  0.00  0.00    -0.078 C 
ATOM      3  C   UNL     1       3.607  -2.044   3.469  0.00  0.00    -0.016 C 
ATOM      4  C   UNL     1       5.010  -2.657   3.529  0.00  0.00    +0.031 C 
ATOM      5  C   UNL     1       5.978  -1.768   2.754  0.00  0.00    +0.098 C 
ATOM      6  C   UNL     1       5.489  -1.562   1.325  0.00  0.00    -0.043 C 
ATOM      7  C   UNL     1       7.365  -2.368   2.759  0.00  0.00    +0.245 C 
ATOM      8  O   UNL     1       7.703  -3.438   2.300  0.00  0.00    -0.273 OA
ATOM      9  N   UNL     1       8.148  -1.461   3.380  0.00  0.00    -0.222 N 
ATOM     10  C   UNL     1       7.448  -0.386   3.762  0.00  0.00    +0.309 C 
ATOM     11  O   UNL     1       7.934   0.566   4.341  0.00  0.00    -0.252 OA
ATOM     12  N   UNL     1       6.145  -0.476   3.433  0.00  0.00    -0.287 N 
ATOM     13  H   UNL     1       5.454   0.181   3.609  0.00  0.00    +0.151 HD
ATOM     14  H   UNL     1       4.189  -0.078   1.843  0.00  0.00    -0.081 HD
ENDROOT
BRANCH   1  15
ATOM     15  C   UNL     1       3.711  -0.707  -0.038  0.00  0.00    -0.043 C 
BRANCH  15  19
ATOM     16  C   UNL     1      -0.017   1.378   0.010  0.00  0.00    +0.000 A 
ATOM     17  C   UNL     1       1.171   2.086   0.002  0.00  0.00    +0.000 A 
ATOM     18  C   UNL     1       2.377   1.411  -0.013  0.00  0.00    +0.002 A 
ATOM     19  C   UNL     1       2.396   0.029  -0.020  0.00  0.00    -0.064 A 
ATOM     20  C   UNL     1       1.208  -0.679  -0.012  0.00  0.00    +0.002 A 
ATOM     21  C   UNL     1       0.002  -0.004   0.002  0.00  0.00    +0.000 A 
ENDBRANCH  15  19
ENDBRANCH   1  15
BRANCH   9  22
ATOM     22  C   UNL     1       9.584  -1.633   3.609  0.00  0.00    +0.152 C 
BRANCH  22  23
ATOM     23  C   UNL     1      10.362  -1.063   2.421  0.00  0.00    +0.170 C 
BRANCH  23  24
ATOM     24  O   UNL     1       9.983  -1.754   1.228  0.00  0.00    -0.387 OA
ATOM     25  H   UNL     1      10.156  -2.704   1.252  0.00  0.00    +0.210 HD
ENDBRANCH  23  24
BRANCH  23  26
ATOM     26  C   UNL     1      11.862  -1.242   2.659  0.00  0.00    +0.262 C 
BRANCH  26  27
ATOM     27  O   UNL     1      12.591  -0.607   1.607  0.00  0.00    -0.489 OA
BRANCH  27  28
ATOM     28  C   UNL     1      13.946  -0.674   1.668  0.00  0.00    +0.128 A 
ATOM     29  C   UNL     1      14.557  -1.331   2.700  0.00  0.00    +0.046 A 
ATOM     30  C   UNL     1      15.944  -1.408   2.777  0.00  0.00    +0.004 A 
ATOM     31  C   UNL     1      16.734  -0.833   1.828  0.00  0.00    +0.009 A 
ATOM     32  C   UNL     1      16.145  -0.148   0.751  0.00  0.00    -0.014 A 
ATOM     33  C   UNL     1      14.732  -0.071   0.666  0.00  0.00    +0.024 A 
ATOM     34  C   UNL     1      14.144   0.609  -0.412  0.00  0.00    +0.012 A 
ATOM     35  C   UNL     1      14.935   1.180  -1.362  0.00  0.00    +0.001 A 
ATOM     36  C   UNL     1      16.324   1.100  -1.281  0.00  0.00    +0.001 A 
ATOM     37  C   UNL     1      16.930   0.458  -0.245  0.00  0.00    +0.008 A 
ENDBRANCH  27  28
ENDBRANCH  26  27
ENDBRANCH  23  26
ENDBRANCH  22  23
ENDBRANCH   9  22
TORSDOF 8
