REMARK  Name = ZINC09306505
REMARK  5 active torsions:
REMARK  status: ('A' for Active; 'I' for Inactive)
REMARK    1  A    between atoms: C_5  and  C_7
REMARK    2  A    between atoms: C_7  and  N_8
REMARK    3  A    between atoms: C_17  and  C_21
REMARK    4  A    between atoms: C_17  and  N_25
REMARK    5  A    between atoms: C_26  and  C_28
REMARK                            x       y       z     vdW  Elec       q    Type
REMARK                         _______ _______ _______ _____ _____    ______ ____
ROOT
ATOM      1  N   UNL     1       1.601  -2.658   1.310  0.00  0.00    -0.237 N 
ATOM      2  C   UNL     1       2.935  -2.773   1.647  0.00  0.00    +0.133 C 
ATOM      3  C   UNL     1       3.255  -3.251   2.926  0.00  0.00    +0.094 C 
ATOM      4  C   UNL     1       2.270  -3.589   3.800  0.00  0.00    +0.253 C 
ATOM      5  O   UNL     1       2.580  -4.048   5.030  0.00  0.00    -0.270 OA
ATOM      6  N   UNL     1       0.958  -3.459   3.420  0.00  0.00    -0.236 N 
ATOM      7  H   UNL     1       0.251  -3.699   4.040  0.00  0.00    +0.159 HD
ATOM      8  C   UNL     1       0.647  -2.995   2.197  0.00  0.00    +0.314 C 
ATOM      9  O   UNL     1      -0.523  -2.883   1.883  0.00  0.00    -0.252 OA
ATOM     10  C   UNL     1       4.764  -3.260   2.989  0.00  0.00    +0.242 C 
ATOM     11  C   UNL     1       5.160  -2.742   1.619  0.00  0.00    +0.275 C 
ATOM     12  O   UNL     1       6.292  -2.576   1.207  0.00  0.00    -0.271 OA
ATOM     13  N   UNL     1       4.040  -2.503   0.958  0.00  0.00    -0.162 NA
ENDROOT
BRANCH  10  14
ATOM     14  C   UNL     1       5.267  -2.324   4.089  0.00  0.00    +0.424 C 
ATOM     15  F   UNL     1       4.859  -2.809   5.336  0.00  0.00    -0.167 F 
ATOM     16  F   UNL     1       6.664  -2.263   4.047  0.00  0.00    -0.167 F 
ATOM     17  F   UNL     1       4.739  -1.044   3.890  0.00  0.00    -0.167 F 
ENDBRANCH  10  14
BRANCH  10  18
ATOM     18  N   UNL     1       5.267  -4.621   3.193  0.00  0.00    -0.286 N 
ATOM     19  C   UNL     1       4.909  -5.606   2.346  0.00  0.00    +0.252 C 
ATOM     20  O   UNL     1       4.244  -5.349   1.359  0.00  0.00    -0.270 OA
ATOM     21  H   UNL     1       5.857  -4.813   3.938  0.00  0.00    +0.151 HD
BRANCH  19  22
ATOM     22  C   UNL     1       5.320  -6.988   2.612  0.00  0.00    +0.074 A 
ATOM     23  C   UNL     1       5.065  -8.133   1.874  0.00  0.00    +0.021 A 
ATOM     24  C   UNL     1       5.587  -9.299   2.381  0.00  0.00    +0.008 A 
ATOM     25  C   UNL     1       6.297  -9.256   3.536  0.00  0.00    +0.046 A 
ATOM     26  S   UNL     1       6.284  -7.632   3.966  0.00  0.00    -0.092 S 
ENDBRANCH  19  22
ENDBRANCH  10  18
BRANCH   1  27
ATOM     27  C   UNL     1       1.223  -2.163  -0.015  0.00  0.00    +0.153 C 
BRANCH  27  32
ATOM     28  C   UNL     1      -0.669   1.088   0.315  0.00  0.00    +0.000 A 
ATOM     29  C   UNL     1       0.354   2.014   0.219  0.00  0.00    +0.001 A 
ATOM     30  C   UNL     1       1.657   1.589   0.048  0.00  0.00    +0.020 A 
ATOM     31  C   UNL     1       1.940   0.236  -0.028  0.00  0.00    +0.046 A 
ATOM     32  C   UNL     1       0.916  -0.690   0.068  0.00  0.00    -0.011 A 
ATOM     33  C   UNL     1      -0.388  -0.263   0.239  0.00  0.00    +0.006 A 
ATOM     34 CL   UNL     1       3.577  -0.298  -0.245  0.00  0.00    -0.083 Cl
ENDBRANCH  27  32
ENDBRANCH   1  27
TORSDOF 5
