REMARK  Name = ZINC15063889
REMARK  7 active torsions:
REMARK  status: ('A' for Active; 'I' for Inactive)
REMARK    1  A    between atoms: C_1  and  C_2
REMARK    2  A    between atoms: C_7  and  C_10
REMARK    3  A    between atoms: C_11  and  C_13
REMARK    4  A    between atoms: C_14  and  C_21
REMARK    5  A    between atoms: C_21  and  N_54
REMARK    6  A    between atoms: C_22  and  C_23
REMARK    7  A    between atoms: C_22  and  N_54
REMARK                            x       y       z     vdW  Elec       q    Type
REMARK                         _______ _______ _______ _____ _____    ______ ____
ROOT
ATOM      1  C   UNL     1      -4.364   8.917   3.791  0.00  0.00    +0.146 A 
ATOM      2  C   UNL     1      -3.341   9.185   2.934  0.00  0.00    +0.039 A 
ATOM      3  N   UNL     1      -2.436   9.991   3.598  0.00  0.00    -0.299 N 
ATOM      4  C   UNL     1      -1.235  10.614   3.333  0.00  0.00    +0.100 A 
ATOM      5  C   UNL     1      -0.630  11.354   4.261  0.00  0.00    +0.067 A 
ATOM      6  S   UNL     1      -1.765  11.227   5.633  0.00  0.00    -0.058 S 
ATOM      7  C   UNL     1      -2.971  10.183   4.848  0.00  0.00    +0.178 A 
ATOM      8  N   UNL     1      -4.100   9.551   4.963  0.00  0.00    -0.216 NA
ENDROOT
BRANCH   1  17
ATOM      9  C   UNL     1      -6.399   7.819   8.262  0.00  0.00    +0.039 C 
ATOM     10  C   UNL     1      -6.362   7.236   6.848  0.00  0.00    +0.133 C 
ATOM     11  C   UNL     1      -6.270   8.371   5.827  0.00  0.00    +0.139 C 
ATOM     12  N   UNL     1      -6.427   7.804   4.479  0.00  0.00    -0.291 N 
ATOM     13  C   UNL     1      -7.571   6.911   4.233  0.00  0.00    +0.139 C 
ATOM     14  C   UNL     1      -7.596   5.843   5.332  0.00  0.00    +0.133 C 
ATOM     15  O   UNL     1      -7.553   6.482   6.610  0.00  0.00    -0.371 OA
ATOM     16  C   UNL     1      -8.880   5.019   5.215  0.00  0.00    +0.039 C 
ATOM     17  C   UNL     1      -5.546   8.089   3.500  0.00  0.00    +0.267 C 
ATOM     18  O   UNL     1      -5.728   7.662   2.375  0.00  0.00    -0.268 OA
ENDBRANCH   1  17
BRANCH   2  19
ATOM     19  C   UNL     1      -3.216   8.687   1.517  0.00  0.00    -0.025 C 
BRANCH  19  20
ATOM     20  N   UNL     1      -2.498   7.398   1.520  0.00  0.00    +0.386 N 
ATOM     21  H   UNL     1      -3.022   6.719   2.083  0.00  0.00    -0.085 HD
ATOM     22  H   UNL     1      -1.564   7.532   1.926  0.00  0.00    -0.085 HD
BRANCH  20  23
ATOM     23  C   UNL     1      -2.360   6.886   0.143  0.00  0.00    -0.028 C 
BRANCH  23  24
ATOM     24  C   UNL     1      -1.623   5.572   0.177  0.00  0.00    -0.000 A 
ATOM     25  C   UNL     1      -2.206   4.362   0.201  0.00  0.00    +0.029 A 
ATOM     26  C   UNL     1      -1.130   3.369   0.229  0.00  0.00    +0.003 A 
ATOM     27  C   UNL     1      -1.099   1.973   0.256  0.00  0.00    +0.048 A 
ATOM     28  C   UNL     1       0.113   1.318   0.283  0.00  0.00    +0.124 A 
ATOM     29  C   UNL     1       1.301   2.040   0.272  0.00  0.00    +0.040 A 
ATOM     30  C   UNL     1       1.286   3.417   0.240  0.00  0.00    +0.029 A 
ATOM     31  C   UNL     1       0.073   4.098   0.219  0.00  0.00    +0.047 A 
ATOM     32  N   UNL     1      -0.262   5.434   0.187  0.00  0.00    -0.360 N 
ATOM     33  H   UNL     1       0.372   6.168   0.174  0.00  0.00    +0.166 HD
ATOM     34  F   UNL     1       0.147  -0.032   0.314  0.00  0.00    -0.205 F 
ENDBRANCH  23  24
ENDBRANCH  20  23
ENDBRANCH  19  20
ENDBRANCH   2  19
TORSDOF 5
