REMARK  Name = ZINC32910084
REMARK  13 active torsions:
REMARK  status: ('A' for Active; 'I' for Inactive)
REMARK    1  A    between atoms: C_1  and  C_2
REMARK    2  A    between atoms: C_5  and  S_8
REMARK    3  A    between atoms: S_8  and  N_11
REMARK    4  A    between atoms: N_11  and  C_12
REMARK    5  A    between atoms: N_11  and  C_13
REMARK    6  A    between atoms: C_16  and  O_19
REMARK    7  A    between atoms: O_19  and  C_20
REMARK    8  A    between atoms: C_20  and  C_21
REMARK    9  A    between atoms: C_21  and  O_23
REMARK   10  A    between atoms: O_23  and  C_24
REMARK   11  A    between atoms: C_24  and  C_25
REMARK   12  A    between atoms: N_27  and  C_28
REMARK   13  A    between atoms: C_31  and  C_35
REMARK                            x       y       z     vdW  Elec       q    Type
REMARK                         _______ _______ _______ _____ _____    ______ ____
ROOT
ATOM      1  C   UNL     1       9.450  -0.749  -0.705  0.00  0.00    +0.051 A 
ATOM      2  C   UNL     1       9.676   0.204   0.280  0.00  0.00    +0.028 A 
ATOM      3  C   UNL     1       8.656   1.050   0.669  0.00  0.00    +0.047 A 
ATOM      4  C   UNL     1       7.407   0.949   0.076  0.00  0.00    +0.121 A 
ATOM      5  C   UNL     1       7.178  -0.006  -0.904  0.00  0.00    +0.047 A 
ATOM      6  C   UNL     1       8.198  -0.849  -1.298  0.00  0.00    +0.028 A 
ENDROOT
BRANCH   1   7
ATOM      7  N   UNL     1      10.483  -1.606  -1.100  0.00  0.00    -0.206 N 
ATOM      8  C   UNL     1      11.693  -1.060  -1.718  0.00  0.00    +0.157 C 
BRANCH   7   9
ATOM      9  S   UNL     1      10.336  -3.240  -0.869  0.00  0.00    +0.074 S 
ATOM     10  O   UNL     1      11.657  -3.757  -0.775  0.00  0.00    -0.150 OA
ATOM     11  O   UNL     1       9.373  -3.419   0.161  0.00  0.00    -0.150 OA
BRANCH   9  16
ATOM     12  C   UNL     1       7.934  -5.546  -5.900  0.00  0.00    +0.044 C 
ATOM     13  C   UNL     1       8.534  -4.970  -4.643  0.00  0.00    -0.050 A 
ATOM     14  C   UNL     1       9.897  -4.759  -4.563  0.00  0.00    +0.005 A 
ATOM     15  C   UNL     1      10.448  -4.231  -3.410  0.00  0.00    +0.029 A 
ATOM     16  C   UNL     1       9.635  -3.913  -2.338  0.00  0.00    +0.109 A 
ATOM     17  C   UNL     1       8.271  -4.129  -2.417  0.00  0.00    +0.029 A 
ATOM     18  C   UNL     1       7.720  -4.653  -3.571  0.00  0.00    +0.005 A 
ENDBRANCH   9  16
ENDBRANCH   7   9
ENDBRANCH   1   7
BRANCH   4  19
ATOM     19  O   UNL     1       6.403   1.782   0.460  0.00  0.00    -0.481 OA
BRANCH  19  20
ATOM     20  C   UNL     1       5.142   1.622  -0.192  0.00  0.00    +0.349 C 
BRANCH  20  21
ATOM     21  C   UNL     1       4.160   2.624   0.359  0.00  0.00    +0.346 C 
ATOM     22  O   UNL     1       4.506   3.396   1.222  0.00  0.00    -0.247 OA
BRANCH  21  23
ATOM     23  O   UNL     1       2.903   2.660  -0.108  0.00  0.00    -0.453 OA
BRANCH  23  24
ATOM     24  C   UNL     1       2.012   3.651   0.469  0.00  0.00    +0.328 C 
BRANCH  24  25
ATOM     25  C   UNL     1       0.654   3.541  -0.175  0.00  0.00    +0.255 C 
ATOM     26  O   UNL     1       0.456   2.709  -1.035  0.00  0.00    -0.272 OA
ATOM     27  N   UNL     1      -0.339   4.371   0.202  0.00  0.00    -0.280 N 
ATOM     28  H   UNL     1      -0.180   5.080   1.028  0.00  0.00    +0.155 HD
BRANCH  27  29
ATOM     29  C   UNL     1      -1.574   4.330  -0.458  0.00  0.00    +0.069 A 
ATOM     30  C   UNL     1      -2.008   3.152  -1.050  0.00  0.00    +0.026 A 
ATOM     31  C   UNL     1      -3.226   3.115  -1.700  0.00  0.00    +0.005 A 
ATOM     32  C   UNL     1      -4.014   4.250  -1.762  0.00  0.00    -0.048 A 
ATOM     33  C   UNL     1      -3.586   5.426  -1.174  0.00  0.00    +0.043 A 
ATOM     34  C   UNL     1      -2.370   5.469  -0.518  0.00  0.00    +0.145 A 
ATOM     35  F   UNL     1      -1.954   6.616   0.062  0.00  0.00    -0.204 F 
ATOM     36  C   UNL     1      -5.343   4.204  -2.472  0.00  0.00    +0.044 C 
ENDBRANCH  27  29
ENDBRANCH  24  25
ENDBRANCH  23  24
ENDBRANCH  21  23
ENDBRANCH  20  21
ENDBRANCH  19  20
ENDBRANCH   4  19
TORSDOF 10
