REMARK  Name = ZINC32639610
REMARK  7 active torsions:
REMARK  status: ('A' for Active; 'I' for Inactive)
REMARK    1  A    between atoms: C_1  and  C_2
REMARK    2  A    between atoms: C_2  and  C_3
REMARK    3  A    between atoms: C_3  and  C_4
REMARK    4  A    between atoms: C_3  and  C_6
REMARK    5  A    between atoms: C_4  and  C_5
REMARK    6  A    between atoms: C_6  and  N_8
REMARK    7  A    between atoms: N_10  and  C_21
REMARK                            x       y       z     vdW  Elec       q    Type
REMARK                         _______ _______ _______ _____ _____    ______ ____
ROOT
ATOM      1  N   UNL     1       1.674  -2.536  -0.043  0.00  0.00    -0.159 NA
ATOM      2  C   UNL     1       2.293  -3.708   0.038  0.00  0.00    +0.154 C 
ATOM      3  N   UNL     1       2.129  -4.633   1.014  0.00  0.00    -0.276 N 
ATOM      4  C   UNL     1       2.848  -5.893   0.945  0.00  0.00    +0.116 C 
ATOM      5  C   UNL     1       1.832  -7.059   0.958  0.00  0.00    +0.190 C 
ATOM      6  S   UNL     1       2.640  -8.275  -0.170  0.00  0.00    -0.028 S 
ATOM      7  O   UNL     1       1.643  -8.960  -0.916  0.00  0.00    -0.174 OA
ATOM      8  O   UNL     1       3.612  -9.015   0.555  0.00  0.00    -0.174 OA
ATOM      9  C   UNL     1       3.490  -7.054  -1.264  0.00  0.00    +0.182 C 
ATOM     10  C   UNL     1       3.784  -5.927  -0.270  0.00  0.00    +0.097 C 
ATOM     11  S   UNL     1       3.414  -4.312  -1.053  0.00  0.00    -0.086 S 
ENDROOT
BRANCH   3  12
ATOM     12  C   UNL     1       1.269  -4.374   2.086  0.00  0.00    +0.037 A 
ATOM     13  C   UNL     1       1.583  -3.382   3.006  0.00  0.00    +0.023 A 
ATOM     14  C   UNL     1       0.732  -3.129   4.064  0.00  0.00    +0.003 A 
ATOM     15  C   UNL     1      -0.432  -3.862   4.208  0.00  0.00    +0.014 A 
ATOM     16  C   UNL     1      -0.748  -4.851   3.293  0.00  0.00    +0.015 A 
ATOM     17  C   UNL     1       0.097  -5.105   2.230  0.00  0.00    +0.037 A 
ATOM     18  I   UNL     1      -2.512  -5.958   3.517  0.00  0.00    -0.044 I 
ENDBRANCH   3  12
BRANCH   1  19
ATOM     19  C   UNL     1       0.673  -2.254   0.787  0.00  0.00    +0.241 C 
ATOM     20  O   UNL     1      -0.267  -3.018   0.888  0.00  0.00    -0.273 OA
BRANCH  19  21
ATOM     21  C   UNL     1       0.705  -0.987   1.602  0.00  0.00    +0.077 C 
BRANCH  21  23
ATOM     22  C   UNL     1       1.153   1.470   1.530  0.00  0.00    +0.004 C 
ATOM     23  C   UNL     1       1.012   0.201   0.688  0.00  0.00    +0.009 C 
ENDBRANCH  21  23
BRANCH  21  24
ATOM     24  C   UNL     1      -0.655  -0.776   2.271  0.00  0.00    +0.009 C 
ATOM     25  C   UNL     1      -1.728  -0.584   1.197  0.00  0.00    +0.004 C 
ENDBRANCH  21  24
ENDBRANCH  19  21
ENDBRANCH   1  19
TORSDOF 5
