REMARK  Name = ZINC08690289
REMARK  11 active torsions:
REMARK  status: ('A' for Active; 'I' for Inactive)
REMARK    1  A    between atoms: C_1  and  C_2
REMARK    2  A    between atoms: C_2  and  C_3
REMARK    3  A    between atoms: C_6  and  N_8
REMARK    4  A    between atoms: N_8  and  S_9
REMARK    5  A    between atoms: S_9  and  C_12
REMARK    6  A    between atoms: C_15  and  N_18
REMARK    7  A    between atoms: N_18  and  C_19
REMARK    8  A    between atoms: C_21  and  C_34
REMARK    9  A    between atoms: N_23  and  C_26
REMARK   10  A    between atoms: C_29  and  C_33
REMARK   11  A    between atoms: C_30  and  C_32
REMARK                            x       y       z     vdW  Elec       q    Type
REMARK                         _______ _______ _______ _____ _____    ______ ____
ROOT
ATOM      1  N   UNL     1     -11.105  -4.110   2.550  0.00  0.00    -0.320 N 
ATOM      2  H   UNL     1     -11.210  -5.045   2.788  0.00  0.00    +0.152 HD
ENDROOT
BRANCH   1   3
ATOM      3  C   UNL     1     -12.065  -3.219   2.878  0.00  0.00    +0.087 C 
ATOM      4  C   UNL     1     -13.198  -3.639   3.554  0.00  0.00    +0.075 C 
ATOM      5  C   UNL     1     -14.339  -2.818   3.985  0.00  0.00    +0.070 C 
ATOM      6  N   UNL     1     -15.183  -3.603   4.582  0.00  0.00    -0.176 NA
ATOM      7  N   UNL     1     -14.722  -4.919   4.606  0.00  0.00    -0.156 N 
ATOM      8  C   UNL     1     -13.524  -5.002   3.992  0.00  0.00    +0.273 C 
ATOM      9  O   UNL     1     -12.848  -6.005   3.834  0.00  0.00    -0.268 OA
ATOM     10  C   UNL     1     -14.501  -1.335   3.771  0.00  0.00    +0.068 C 
BRANCH   7  11
ATOM     11  C   UNL     1     -15.405  -5.999   5.180  0.00  0.00    +0.061 A 
ATOM     12  C   UNL     1     -14.847  -7.270   5.152  0.00  0.00    +0.026 A 
ATOM     13  C   UNL     1     -15.523  -8.332   5.718  0.00  0.00    +0.005 A 
ATOM     14  C   UNL     1     -16.755  -8.131   6.314  0.00  0.00    -0.047 A 
ATOM     15  C   UNL     1     -17.314  -6.867   6.343  0.00  0.00    -0.046 A 
ATOM     16  C   UNL     1     -16.640  -5.799   5.783  0.00  0.00    +0.029 A 
ATOM     17  C   UNL     1     -18.657  -6.652   6.993  0.00  0.00    +0.044 C 
ATOM     18  C   UNL     1     -17.491  -9.293   6.931  0.00  0.00    +0.044 C 
ENDBRANCH   7  11
ENDBRANCH   1   3
BRANCH   1  22
ATOM     19  C   UNL     1      -7.698  -2.847   0.515  0.00  0.00    +0.111 A 
ATOM     20  C   UNL     1      -7.845  -4.180   0.854  0.00  0.00    +0.031 A 
ATOM     21  C   UNL     1      -8.974  -4.602   1.529  0.00  0.00    +0.025 A 
ATOM     22  C   UNL     1      -9.962  -3.686   1.867  0.00  0.00    +0.031 A 
ATOM     23  C   UNL     1      -9.811  -2.348   1.526  0.00  0.00    +0.025 A 
ATOM     24  C   UNL     1      -8.678  -1.932   0.855  0.00  0.00    +0.031 A 
BRANCH  19  25
ATOM     25  S   UNL     1      -6.256  -2.313  -0.345  0.00  0.00    +0.094 S 
ATOM     26  O   UNL     1      -6.608  -1.114  -1.021  0.00  0.00    -0.148 OA
ATOM     27  O   UNL     1      -5.746  -3.450  -1.027  0.00  0.00    -0.148 OA
BRANCH  25  28
ATOM     28  N   UNL     1      -5.130  -1.901   0.796  0.00  0.00    -0.068 NA
BRANCH  28  32
ATOM     29  C   UNL     1      -1.412  -0.526   0.013  0.00  0.00    +0.104 A 
ATOM     30  N   UNL     1      -2.214  -0.819  -0.991  0.00  0.00    -0.145 NA
ATOM     31  N   UNL     1      -3.385  -1.252  -0.811  0.00  0.00    -0.123 NA
ATOM     32  C   UNL     1      -3.882  -1.439   0.404  0.00  0.00    +0.224 A 
ATOM     33  S   UNL     1      -2.478  -0.931   1.393  0.00  0.00    -0.032 S 
BRANCH  29  35
ATOM     34  C   UNL     1      -0.019   1.526   0.010  0.00  0.00    +0.011 C 
ATOM     35  C   UNL     1       0.002  -0.004   0.002  0.00  0.00    +0.061 C 
ENDBRANCH  29  35
ENDBRANCH  28  32
ENDBRANCH  25  28
ENDBRANCH  19  25
ENDBRANCH   1  22
TORSDOF 7
