REMARK  Name = ZINC63625159
REMARK  5 active torsions:
REMARK  status: ('A' for Active; 'I' for Inactive)
REMARK    1  A    between atoms: C_3  and  C_6
REMARK    2  A    between atoms: C_8  and  C_12
REMARK    3  A    between atoms: N_14  and  C_15
REMARK    4  A    between atoms: C_22  and  N_25
REMARK    5  A    between atoms: C_26  and  C_28
REMARK                            x       y       z     vdW  Elec       q    Type
REMARK                         _______ _______ _______ _____ _____    ______ ____
ROOT
ATOM      1  C   UNL     1       8.643   0.707   2.302  0.00  0.00    +0.035 A 
ATOM      2  C   UNL     1       8.517   1.534   3.411  0.00  0.00    +0.024 A 
ATOM      3  C   UNL     1       9.395   1.372   4.469  0.00  0.00    +0.018 A 
ATOM      4  C   UNL     1      10.372   0.405   4.409  0.00  0.00    +0.032 A 
ATOM      5  C   UNL     1      10.527  -0.444   3.309  0.00  0.00    +0.044 A 
ATOM      6  C   UNL     1       9.621  -0.266   2.249  0.00  0.00    +0.047 A 
ATOM      7  N   UNL     1      11.550  -1.391   3.350  0.00  0.00    -0.316 N 
ATOM      8  C   UNL     1      12.394  -1.428   4.551  0.00  0.00    +0.224 C 
ATOM      9  S   UNL     1      11.646  -0.080   5.552  0.00  0.00    -0.082 S 
ATOM     10  H   UNL     1      11.698  -2.003   2.612  0.00  0.00    +0.149 HD
ENDROOT
BRANCH   1  13
ATOM     11  C   UNL     1       7.321   2.086   0.880  0.00  0.00    +0.248 C 
ATOM     12  O   UNL     1       7.622   3.049   1.554  0.00  0.00    -0.273 OA
ATOM     13  N   UNL     1       7.760   0.859   1.224  0.00  0.00    -0.283 N 
ATOM     14  H   UNL     1       7.466   0.082   0.725  0.00  0.00    +0.155 HD
BRANCH  11  17
ATOM     15  C   UNL     1       4.335   3.037  -0.253  0.00  0.00    +0.098 C 
ATOM     16  C   UNL     1       5.016   1.892  -0.035  0.00  0.00    +0.041 C 
ATOM     17  C   UNL     1       6.456   2.263  -0.341  0.00  0.00    +0.239 C 
ATOM     18  N   UNL     1       6.365   3.683  -0.717  0.00  0.00    -0.170 NA
ATOM     19  N   UNL     1       5.183   4.024  -0.649  0.00  0.00    -0.153 NA
BRANCH  15  22
ATOM     20  C   UNL     1       0.741   4.212  -0.072  0.00  0.00    +0.008 A 
ATOM     21  C   UNL     1       2.098   4.305  -0.290  0.00  0.00    +0.018 A 
ATOM     22  C   UNL     1       2.874   3.194  -0.090  0.00  0.00    +0.039 A 
ATOM     23  S   UNL     1       1.662   1.986   0.418  0.00  0.00    -0.095 S 
ATOM     24  C   UNL     1       0.215   3.028   0.332  0.00  0.00    +0.046 A 
ENDBRANCH  15  22
ENDBRANCH  11  17
ENDBRANCH   1  13
BRANCH   8  25
ATOM     25  N   UNL     1      12.280  -2.718   5.236  0.00  0.00    -0.288 N 
ATOM     26  C   UNL     1      13.185  -3.067   6.172  0.00  0.00    +0.218 C 
ATOM     27  O   UNL     1      14.094  -2.312   6.447  0.00  0.00    -0.275 OA
ATOM     28  H   UNL     1      11.553  -3.322   5.016  0.00  0.00    +0.151 HD
BRANCH  26  29
ATOM     29  C   UNL     1      13.068  -4.394   6.876  0.00  0.00    +0.075 C 
ATOM     30  C   UNL     1      11.729  -4.464   7.612  0.00  0.00    +0.013 C 
ATOM     31  C   UNL     1      11.610  -5.812   8.327  0.00  0.00    +0.001 C 
ATOM     32  C   UNL     1      12.754  -5.958   9.333  0.00  0.00    +0.000 C 
ATOM     33  C   UNL     1      14.093  -5.888   8.596  0.00  0.00    +0.001 C 
ATOM     34  C   UNL     1      14.212  -4.541   7.881  0.00  0.00    +0.013 C 
ENDBRANCH  26  29
ENDBRANCH   8  25
TORSDOF 5
