REMARK  Name = ZINC15944145
REMARK  14 active torsions:
REMARK  status: ('A' for Active; 'I' for Inactive)
REMARK    1  A    between atoms: C_1  and  C_2
REMARK    2  A    between atoms: C_2  and  N_3
REMARK    3  A    between atoms: C_6  and  C_20
REMARK    4  A    between atoms: N_22  and  C_23
REMARK    5  A    between atoms: C_23  and  C_24
REMARK    6  A    between atoms: C_24  and  N_25
REMARK    7  A    between atoms: N_25  and  C_26
REMARK    8  A    between atoms: N_25  and  C_30
REMARK    9  A    between atoms: C_26  and  C_27
REMARK   10  A    between atoms: C_27  and  C_28
REMARK   11  A    between atoms: C_27  and  C_29
REMARK   12  A    between atoms: C_30  and  C_31
REMARK   13  A    between atoms: C_31  and  C_32
REMARK   14  A    between atoms: C_31  and  C_33
REMARK                            x       y       z     vdW  Elec       q    Type
REMARK                         _______ _______ _______ _____ _____    ______ ____
ROOT
ATOM      1  N   UNL     1       1.039   1.440   1.222  0.00  0.00    -0.267 N 
ATOM      2  C   UNL     1       0.210   0.955   2.219  0.00  0.00    +0.053 A 
ATOM      3  C   UNL     1       0.789   0.275   3.290  0.00  0.00    +0.037 A 
ATOM      4  C   UNL     1      -0.007  -0.226   4.315  0.00  0.00    +0.039 A 
ATOM      5  C   UNL     1      -1.391  -0.045   4.271  0.00  0.00    +0.014 A 
ATOM      6  C   UNL     1      -1.958   0.628   3.209  0.00  0.00    +0.020 A 
ATOM      7  C   UNL     1      -1.165   1.124   2.189  0.00  0.00    +0.065 A 
ATOM      8  S   UNL     1      -1.927   1.973   0.844  0.00  0.00    +0.088 S 
ATOM      9  O   UNL     1      -1.149   3.153   0.698  0.00  0.00    -0.247 OA
ATOM     10  C   UNL     1      -1.494   1.001  -0.560  0.00  0.00    +0.056 A 
ATOM     11  C   UNL     1      -2.486   0.437  -1.335  0.00  0.00    +0.018 A 
ATOM     12  C   UNL     1      -2.157  -0.326  -2.442  0.00  0.00    +0.001 A 
ATOM     13  C   UNL     1      -0.828  -0.524  -2.774  0.00  0.00    +0.001 A 
ATOM     14  C   UNL     1       0.171   0.035  -2.007  0.00  0.00    +0.014 A 
ATOM     15  C   UNL     1      -0.153   0.807  -0.884  0.00  0.00    +0.053 A 
ATOM     16  C   UNL     1       0.922   1.390  -0.078  0.00  0.00    +0.252 C 
ATOM     17  O   UNL     1       1.835   1.892  -0.706  0.00  0.00    -0.270 OA
ENDROOT
BRANCH   4  18
ATOM     18  C   UNL     1       0.610  -0.947   5.449  0.00  0.00    +0.244 C 
ATOM     19  O   UNL     1       1.815  -1.104   5.485  0.00  0.00    -0.270 OA
ATOM     20  N   UNL     1      -0.163  -1.431   6.441  0.00  0.00    -0.313 N 
ATOM     21  H   UNL     1      -1.124  -1.306   6.412  0.00  0.00    +0.149 HD
BRANCH  20  22
ATOM     22  C   UNL     1       0.450  -2.146   7.564  0.00  0.00    +0.086 C 
BRANCH  22  23
ATOM     23  C   UNL     1      -0.640  -2.587   8.543  0.00  0.00    -0.060 C 
BRANCH  23  24
ATOM     24  N   UNL     1      -0.028  -3.312   9.663  0.00  0.00    +0.381 N 
ATOM     25  H   UNL     1       0.742  -2.774  10.032  0.00  0.00    -0.082 HD
BRANCH  24  26
ATOM     26  C   UNL     1      -1.029  -3.520  10.718  0.00  0.00    -0.076 C 
BRANCH  26  27
ATOM     27  C   UNL     1      -2.068  -4.537  10.241  0.00  0.00    -0.034 C 
ATOM     28  C   UNL     1      -2.985  -4.914  11.407  0.00  0.00    +0.005 C 
ATOM     29  C   UNL     1      -2.902  -3.924   9.114  0.00  0.00    +0.005 C 
ENDBRANCH  26  27
ENDBRANCH  24  26
BRANCH  24  30
ATOM     30  C   UNL     1       0.466  -4.614   9.193  0.00  0.00    -0.076 C 
BRANCH  30  31
ATOM     31  C   UNL     1       1.207  -5.319  10.330  0.00  0.00    -0.034 C 
ATOM     32  C   UNL     1       0.207  -6.106  11.180  0.00  0.00    +0.005 C 
ATOM     33  C   UNL     1       2.245  -6.278   9.745  0.00  0.00    +0.005 C 
ENDBRANCH  30  31
ENDBRANCH  24  30
ENDBRANCH  23  24
ENDBRANCH  22  23
ENDBRANCH  20  22
ENDBRANCH   4  18
BRANCH   1  35
ATOM     34  C   UNL     1       1.938   3.614   1.888  0.00  0.00    +0.025 C 
ATOM     35  C   UNL     1       2.240   2.126   1.704  0.00  0.00    +0.110 C 
ENDBRANCH   1  35
TORSDOF 9
