REMARK  Name = ZINC14531272
REMARK  7 active torsions:
REMARK  status: ('A' for Active; 'I' for Inactive)
REMARK    1  A    between atoms: C_2  and  C_3
REMARK    2  A    between atoms: C_3  and  N_4
REMARK    3  A    between atoms: C_7  and  C_9
REMARK    4  A    between atoms: C_18  and  N_58
REMARK    5  A    between atoms: C_22  and  C_23
REMARK    6  A    between atoms: C_22  and  N_58
REMARK    7  A    between atoms: C_23  and  C_24
REMARK                            x       y       z     vdW  Elec       q    Type
REMARK                         _______ _______ _______ _____ _____    ______ ____
ROOT
ATOM      1  N   UNL     1       2.298   1.543   1.061  0.00  0.00    -0.264 N 
ATOM      2  C   UNL     1       2.974   0.382   1.083  0.00  0.00    +0.043 A 
ATOM      3  C   UNL     1       3.436   0.211   2.346  0.00  0.00    +0.004 A 
ATOM      4  C   UNL     1       2.999   1.332   3.072  0.00  0.00    +0.151 A 
ATOM      5  N   UNL     1       2.324   2.091   2.226  0.00  0.00    -0.166 NA
ATOM      6  C   UNL     1       4.245  -0.969   2.807  0.00  0.00    +0.023 C 
ATOM      7  C   UNL     1       4.104  -2.087   1.766  0.00  0.00    -0.067 C 
ATOM      8  C   UNL     1       4.370  -1.521   0.368  0.00  0.00    -0.009 C 
ATOM      9  C   UNL     1       3.218  -0.593  -0.040  0.00  0.00    +0.054 C 
ENDROOT
BRANCH   4  10
ATOM     10  C   UNL     1       3.251   1.611   4.500  0.00  0.00    +0.267 C 
ATOM     11  O   UNL     1       3.989   0.888   5.140  0.00  0.00    -0.268 OA
ATOM     12  N   UNL     1       2.662   2.668   5.095  0.00  0.00    -0.292 N 
ATOM     13  C   UNL     1       1.660   3.476   4.382  0.00  0.00    +0.136 C 
ATOM     14  C   UNL     1       0.422   3.608   5.284  0.00  0.00    +0.179 C 
ATOM     15  O   UNL     1       0.827   4.088   6.569  0.00  0.00    -0.377 OA
ATOM     16  C   UNL     1       1.708   3.208   7.271  0.00  0.00    +0.179 C 
ATOM     17  C   UNL     1       3.007   3.052   6.473  0.00  0.00    +0.136 C 
ENDBRANCH   4  10
BRANCH   7  18
ATOM     18  N   UNL     1       5.082  -3.151   2.060  0.00  0.00    +0.381 N 
ATOM     19  H   UNL     1       5.195  -3.235   3.077  0.00  0.00    -0.086 HD
ATOM     20  H   UNL     1       5.985  -2.908   1.635  0.00  0.00    -0.086 HD
BRANCH  18  21
ATOM     21  C   UNL     1       4.618  -4.440   1.514  0.00  0.00    -0.078 C 
BRANCH  21  22
ATOM     22  C   UNL     1       5.652  -5.521   1.835  0.00  0.00    +0.016 C 
BRANCH  22  23
ATOM     23  C   UNL     1       5.185  -6.842   1.280  0.00  0.00    -0.049 A 
ATOM     24  C   UNL     1       4.412  -7.684   2.058  0.00  0.00    +0.005 A 
ATOM     25  C   UNL     1       3.978  -8.893   1.547  0.00  0.00    +0.020 A 
ATOM     26  C   UNL     1       4.328  -9.266   0.262  0.00  0.00    +0.041 A 
ATOM     27  C   UNL     1       5.106  -8.426  -0.514  0.00  0.00    +0.020 A 
ATOM     28  C   UNL     1       5.534  -7.215  -0.005  0.00  0.00    +0.005 A 
ATOM     29 CL   UNL     1       3.790 -10.788  -0.378  0.00  0.00    -0.084 Cl
ENDBRANCH  22  23
ENDBRANCH  21  22
ENDBRANCH  18  21
ENDBRANCH   7  18
BRANCH   1  30
ATOM     30  C   UNL     1       1.633   2.105  -0.118  0.00  0.00    +0.170 C 
BRANCH  30  32
ATOM     31  C   UNL     1      -0.778   2.463  -0.251  0.00  0.00    +0.006 C 
ATOM     32  C   UNL     1       0.212   1.608  -0.177  0.00  0.00    -0.012 C 
ENDBRANCH  30  32
ENDBRANCH   1  30
TORSDOF 7
