REMARK  Name = ZINC30025946
REMARK  12 active torsions:
REMARK  status: ('A' for Active; 'I' for Inactive)
REMARK    1  A    between atoms: C_1  and  C_2
REMARK    2  A    between atoms: C_2  and  O_3
REMARK    3  A    between atoms: O_3  and  C_4
REMARK    4  A    between atoms: C_4  and  C_6
REMARK    5  A    between atoms: C_7  and  C_19
REMARK    6  A    between atoms: C_12  and  C_14
REMARK    7  A    between atoms: C_19  and  S_20
REMARK    8  A    between atoms: S_20  and  C_21
REMARK    9  A    between atoms: N_22  and  C_23
REMARK   10  A    between atoms: C_23  and  C_24
REMARK   11  A    between atoms: C_24  and  O_25
REMARK   12  A    between atoms: O_25  and  C_26
REMARK                            x       y       z     vdW  Elec       q    Type
REMARK                         _______ _______ _______ _____ _____    ______ ____
ROOT
ATOM      1  C   UNL     1       2.269  -1.973  -1.432  0.00  0.00    +0.082 C 
ATOM      2  C   UNL     1       3.477  -2.517  -1.695  0.00  0.00    +0.034 C 
ATOM      3  N   UNL     1       4.369  -2.770  -0.693  0.00  0.00    -0.272 N 
ATOM      4  C   UNL     1       4.130  -2.509   0.598  0.00  0.00    +0.304 C 
ATOM      5  O   UNL     1       4.987  -2.770   1.420  0.00  0.00    -0.252 OA
ATOM      6  N   UNL     1       2.970  -1.965   1.017  0.00  0.00    -0.285 N 
ATOM      7  C   UNL     1       1.939  -1.654   0.012  0.00  0.00    +0.179 C 
ATOM      8  H   UNL     1       5.348  -3.214  -0.927  0.00  0.00    +0.156 HD
ATOM      9  H   UNL     1       2.784  -1.752   2.080  0.00  0.00    +0.151 HD
ENDROOT
BRANCH   7  10
ATOM     10  C   UNL     1       1.631  -0.181   0.103  0.00  0.00    +0.130 A 
ATOM     11  C   UNL     1       0.402   0.364   0.145  0.00  0.00    +0.047 A 
ATOM     12  C   UNL     1       0.578   1.764   0.228  0.00  0.00    +0.041 A 
ATOM     13  C   UNL     1       1.903   1.991   0.231  0.00  0.00    +0.195 A 
ATOM     14  O   UNL     1       2.536   0.809   0.156  0.00  0.00    -0.466 OA
ENDBRANCH   7  10
BRANCH   1  15
ATOM     15  C   UNL     1       1.343  -1.711  -2.469  0.00  0.00    +0.339 C 
ATOM     16  O   UNL     1       0.419  -2.477  -2.668  0.00  0.00    -0.245 OA
BRANCH  15  17
ATOM     17  O   UNL     1       1.485  -0.610  -3.237  0.00  0.00    -0.462 OA
BRANCH  17  19
ATOM     18  C   UNL     1       0.837   0.881  -5.025  0.00  0.00    +0.048 C 
ATOM     19  C   UNL     1       0.514  -0.408  -4.266  0.00  0.00    +0.229 C 
ENDBRANCH  17  19
ENDBRANCH  15  17
ENDBRANCH   1  15
BRANCH   2  20
ATOM     20  C   UNL     1       3.845  -2.851  -3.118  0.00  0.00    +0.128 C 
BRANCH  20  21
ATOM     21  S   UNL     1       5.013  -1.618  -3.743  0.00  0.00    -0.087 S 
BRANCH  21  22
ATOM     22  C   UNL     1       5.265  -2.235  -5.374  0.00  0.00    +0.126 C 
ATOM     23  N   UNL     1       4.646  -3.314  -5.766  0.00  0.00    -0.366 N 
ATOM     24  N   UNL     1       6.114  -1.578  -6.235  0.00  0.00    -0.339 N 
ATOM     25  H   UNL     1       6.271  -1.963  -7.253  0.00  0.00    +0.144 HD
ATOM     26  H   UNL     1       6.636  -0.667  -5.904  0.00  0.00    +0.144 HD
ATOM     27  H   UNL     1       3.891  -3.781  -5.117  0.00  0.00    +0.161 HD
BRANCH  23  28
ATOM     28  C   UNL     1       4.958  -3.904  -7.070  0.00  0.00    +0.142 C 
BRANCH  28  29
ATOM     29  C   UNL     1       5.555  -5.299  -6.869  0.00  0.00    +0.180 C 
BRANCH  29  30
ATOM     30  O   UNL     1       4.571  -6.159  -6.290  0.00  0.00    -0.381 OA
ATOM     31  C   UNL     1       5.029  -7.493  -6.060  0.00  0.00    +0.194 C 
ENDBRANCH  29  30
ENDBRANCH  28  29
ENDBRANCH  23  28
ENDBRANCH  21  22
ENDBRANCH  20  21
ENDBRANCH   2  20
TORSDOF 10
