REMARK  Name = ZINC03665883
REMARK  8 active torsions:
REMARK  status: ('A' for Active; 'I' for Inactive)
REMARK    1  A    between atoms: C_1  and  C_2
REMARK    2  A    between atoms: C_5  and  C_8
REMARK    3  A    between atoms: C_8  and  N_9
REMARK    4  A    between atoms: C_10  and  C_12
REMARK    5  A    between atoms: C_12  and  O_31
REMARK    6  A    between atoms: N_22  and  C_23
REMARK    7  A    between atoms: C_26  and  C_30
REMARK    8  A    between atoms: C_27  and  C_29
REMARK                            x       y       z     vdW  Elec       q    Type
REMARK                         _______ _______ _______ _____ _____    ______ ____
ROOT
ATOM      1  C   UNL     1      -0.112   4.217  -0.092  0.00  0.00    +0.247 C 
ATOM      2  C   UNL     1      -0.037   5.727  -0.071  0.00  0.00    +0.033 A 
ATOM      3  C   UNL     1      -1.171   6.500  -0.154  0.00  0.00    +0.010 A 
ATOM      4  C   UNL     1      -1.063   7.881  -0.137  0.00  0.00    +0.001 A 
ATOM      5  C   UNL     1       0.181   8.477  -0.037  0.00  0.00    +0.002 A 
ATOM      6  C   UNL     1       1.321   7.702   0.047  0.00  0.00    +0.024 A 
ATOM      7  C   UNL     1       1.218   6.317   0.030  0.00  0.00    +0.043 A 
ATOM      8  N   UNL     1       2.358   5.517   0.114  0.00  0.00    -0.269 N 
ATOM      9  C   UNL     1       2.311   4.179   0.103  0.00  0.00    +0.314 C 
ATOM     10  O   UNL     1       3.356   3.562   0.181  0.00  0.00    -0.252 OA
ATOM     11  N   UNL     1       1.162   3.485   0.009  0.00  0.00    -0.214 N 
ATOM     12  H   UNL     1       3.223   5.949   0.184  0.00  0.00    +0.156 HD
ENDROOT
BRANCH  11  13
ATOM     13  C   UNL     1       1.177   2.086   0.002  0.00  0.00    +0.042 A 
ATOM     14  C   UNL     1       1.206   1.384   1.200  0.00  0.00    +0.024 A 
ATOM     15  C   UNL     1       1.221   0.003   1.190  0.00  0.00    +0.005 A 
ATOM     16  C   UNL     1       1.207  -0.681  -0.012  0.00  0.00    -0.047 A 
ATOM     17  C   UNL     1       1.178   0.015  -1.207  0.00  0.00    -0.046 A 
ATOM     18  C   UNL     1       1.163   1.396  -1.203  0.00  0.00    +0.027 A 
ATOM     19  C   UNL     1       1.162  -0.734  -2.514  0.00  0.00    +0.044 C 
ATOM     20  C   UNL     1       1.224  -2.188  -0.020  0.00  0.00    +0.044 C 
ENDBRANCH  11  13
BRANCH   1  22
ATOM     21  N   UNL     1      -0.580   3.974   2.325  0.00  0.00    -0.307 N 
ATOM     22  C   UNL     1      -0.989   3.785   1.054  0.00  0.00    +0.269 C 
ATOM     23  O   UNL     1      -2.063   3.266   0.834  0.00  0.00    -0.270 OA
ATOM     24  H   UNL     1       0.279   4.388   2.501  0.00  0.00    +0.149 HD
BRANCH  21  25
ATOM     25  C   UNL     1      -1.433   3.553   3.439  0.00  0.00    +0.139 C 
BRANCH  25  30
ATOM     26  C   UNL     1       1.186   4.785   8.441  0.00  0.00    +0.044 C 
ATOM     27  C   UNL     1       0.503   4.464   7.136  0.00  0.00    -0.050 A 
ATOM     28  C   UNL     1      -0.331   5.394   6.545  0.00  0.00    +0.003 A 
ATOM     29  C   UNL     1      -0.958   5.099   5.349  0.00  0.00    +0.005 A 
ATOM     30  C   UNL     1      -0.750   3.875   4.743  0.00  0.00    -0.030 A 
ATOM     31  C   UNL     1       0.081   2.942   5.337  0.00  0.00    +0.005 A 
ATOM     32  C   UNL     1       0.711   3.239   6.531  0.00  0.00    +0.003 A 
ENDBRANCH  25  30
ENDBRANCH  21  25
ENDBRANCH   1  22
BRANCH   1  33
ATOM     33  O   UNL     1      -0.753   3.820  -1.306  0.00  0.00    -0.360 OA
ATOM     34  H   UNL     1      -1.605   4.252  -1.460  0.00  0.00    +0.213 HD
ENDBRANCH   1  33
TORSDOF 5
