REMARK  Name = ZINC09044514
REMARK  11 active torsions:
REMARK  status: ('A' for Active; 'I' for Inactive)
REMARK    1  A    between atoms: C_1  and  C_2
REMARK    2  A    between atoms: C_11  and  O_24
REMARK    3  A    between atoms: C_12  and  C_14
REMARK    4  A    between atoms: C_17  and  C_20
REMARK    5  A    between atoms: C_20  and  C_21
REMARK    6  A    between atoms: C_20  and  C_22
REMARK    7  A    between atoms: C_20  and  C_23
REMARK    8  A    between atoms: O_24  and  C_25
REMARK    9  A    between atoms: C_25  and  C_27
REMARK   10  A    between atoms: C_25  and  C_28
REMARK   11  A    between atoms: N_30  and  C_31
REMARK                            x       y       z     vdW  Elec       q    Type
REMARK                         _______ _______ _______ _____ _____    ______ ____
ROOT
ATOM      1  C   UNL     1      -2.526   1.639   0.465  0.00  0.00    +0.045 C 
ATOM      2  C   UNL     1      -1.231   2.409   0.415  0.00  0.00    -0.029 A 
ATOM      3  C   UNL     1      -1.259   3.786   0.367  0.00  0.00    +0.051 A 
ATOM      4  C   UNL     1      -0.069   4.503   0.316  0.00  0.00    +0.140 A 
ATOM      5  C   UNL     1       1.153   3.809   0.320  0.00  0.00    +0.069 A 
ATOM      6  C   UNL     1       1.168   2.416   0.374  0.00  0.00    +0.035 A 
ATOM      7  C   UNL     1      -0.024   1.724   0.425  0.00  0.00    +0.045 A 
ATOM      8 CL   UNL     1      -0.014  -0.011   0.494  0.00  0.00    -0.083 Cl
ATOM      9  C   UNL     1       2.404   4.588   0.264  0.00  0.00    +0.235 A 
ATOM     10  O   UNL     1       3.494   4.038   0.265  0.00  0.00    -0.283 OA
ATOM     11  C   UNL     1       2.291   6.001   0.209  0.00  0.00    +0.212 A 
ATOM     12  C   UNL     1       1.054   6.574   0.210  0.00  0.00    +0.181 A 
ATOM     13  O   UNL     1      -0.076   5.850   0.261  0.00  0.00    -0.451 OA
ENDROOT
BRANCH  12  14
ATOM     14  C   UNL     1       0.953   8.045   0.152  0.00  0.00    +0.021 A 
ATOM     15  C   UNL     1       1.696   8.835   1.034  0.00  0.00    +0.012 A 
ATOM     16  C   UNL     1       1.600  10.209   0.971  0.00  0.00    +0.005 A 
ATOM     17  C   UNL     1       0.764  10.806   0.045  0.00  0.00    -0.042 A 
ATOM     18  C   UNL     1       0.021  10.031  -0.828  0.00  0.00    +0.005 A 
ATOM     19  C   UNL     1       0.111   8.655  -0.780  0.00  0.00    +0.012 A 
BRANCH  17  20
ATOM     20  C   UNL     1       0.661  12.309  -0.014  0.00  0.00    -0.013 C 
ATOM     21  C   UNL     1      -0.785  12.732   0.251  0.00  0.00    +0.015 C 
ATOM     22  C   UNL     1       1.575  12.924   1.047  0.00  0.00    +0.015 C 
ATOM     23  C   UNL     1       1.089  12.795  -1.400  0.00  0.00    +0.015 C 
ENDBRANCH  17  20
ENDBRANCH  12  14
BRANCH  11  24
ATOM     24  O   UNL     1       3.407   6.777   0.155  0.00  0.00    -0.473 OA
BRANCH  24  25
ATOM     25  C   UNL     1       3.850   7.188  -1.139  0.00  0.00    +0.256 C 
ATOM     26  C   UNL     1       4.729   6.094  -1.749  0.00  0.00    +0.062 C 
BRANCH  25  27
ATOM     27  C   UNL     1       4.646   8.462  -1.017  0.00  0.00    +0.258 C 
ATOM     28  O   UNL     1       4.894   8.919   0.079  0.00  0.00    -0.271 OA
ATOM     29  N   UNL     1       5.082   9.093  -2.125  0.00  0.00    -0.282 N 
ATOM     30  H   UNL     1       4.818   8.772  -3.002  0.00  0.00    +0.155 HD
BRANCH  29  31
ATOM     31  C   UNL     1       5.915  10.212  -2.011  0.00  0.00    +0.034 A 
ATOM     32  C   UNL     1       5.812  11.252  -2.926  0.00  0.00    +0.025 A 
ATOM     33  C   UNL     1       6.633  12.357  -2.808  0.00  0.00    +0.022 A 
ATOM     34  C   UNL     1       7.563  12.424  -1.787  0.00  0.00    +0.041 A 
ATOM     35  C   UNL     1       7.671  11.386  -0.877  0.00  0.00    +0.022 A 
ATOM     36  C   UNL     1       6.850  10.282  -0.987  0.00  0.00    +0.025 A 
ATOM     37 CL   UNL     1       8.597  13.811  -1.645  0.00  0.00    -0.084 Cl
ENDBRANCH  29  31
ENDBRANCH  25  27
ENDBRANCH  24  25
ENDBRANCH  11  24
TORSDOF 6
