REMARK  Name = ZINC11841527
REMARK  8 active torsions:
REMARK  status: ('A' for Active; 'I' for Inactive)
REMARK    1  A    between atoms: C_9  and  S_11
REMARK    2  A    between atoms: S_11  and  C_12
REMARK    3  A    between atoms: C_15  and  C_30
REMARK    4  A    between atoms: C_18  and  C_19
REMARK    5  A    between atoms: C_18  and  N_56
REMARK    6  A    between atoms: C_22  and  O_25
REMARK    7  A    between atoms: O_25  and  C_26
REMARK    8  A    between atoms: N_32  and  C_33
REMARK                            x       y       z     vdW  Elec       q    Type
REMARK                         _______ _______ _______ _____ _____    ______ ____
ROOT
ATOM      1  C   UNL     1       3.599   2.856  -0.017  0.00  0.00    +0.037 C 
ATOM      2  C   UNL     1       5.127   2.670  -0.159  0.00  0.00    +0.006 C 
ATOM      3  C   UNL     1       5.749   3.712   0.789  0.00  0.00    +0.021 C 
ATOM      4  C   UNL     1       3.461   3.547   1.362  0.00  0.00    -0.063 C 
ATOM      5  N   UNL     1       4.624   4.442   1.384  0.00  0.00    +0.391 N 
ATOM      6  H   UNL     1       4.423   5.283   0.830  0.00  0.00    -0.080 HD
ENDROOT
BRANCH   3   7
ATOM      7  C   UNL     1       6.634   4.650   0.010  0.00  0.00    +0.200 C 
ATOM      8  O   UNL     1       6.380   5.835  -0.024  0.00  0.00    -0.278 OA
ATOM      9  N   UNL     1       7.709   4.172  -0.648  0.00  0.00    -0.314 N 
ATOM     10  H   UNL     1       7.912   3.224  -0.621  0.00  0.00    +0.149 HD
BRANCH   9  11
ATOM     11  C   UNL     1       8.570   5.084  -1.405  0.00  0.00    +0.073 C 
ATOM     12  C   UNL     1       9.029   4.634  -2.793  0.00  0.00    +0.024 C 
ATOM     13  C   UNL     1      10.023   4.661  -1.630  0.00  0.00    +0.024 C 
ENDBRANCH   9  11
ENDBRANCH   3   7
BRANCH   1  14
ATOM     14  S   UNL     1       2.756   1.254  -0.018  0.00  0.00    -0.086 S 
BRANCH  14  23
ATOM     15  C   UNL     1      -3.394   2.571   0.047  0.00  0.00    +0.002 A 
ATOM     16  C   UNL     1      -2.938   3.881   0.050  0.00  0.00    +0.002 A 
ATOM     17  C   UNL     1      -1.588   4.150   0.039  0.00  0.00    +0.030 A 
ATOM     18  C   UNL     1      -0.670   3.097   0.025  0.00  0.00    +0.090 A 
ATOM     19  C   UNL     1      -1.137   1.772   0.016  0.00  0.00    +0.067 A 
ATOM     20  C   UNL     1      -2.501   1.519   0.034  0.00  0.00    +0.028 A 
ATOM     21  N   UNL     1      -0.011   0.966   0.007  0.00  0.00    -0.333 N 
ATOM     22  H   UNL     1       0.003  -0.034   0.006  0.00  0.00    +0.168 HD
ATOM     23  C   UNL     1       1.078   1.791   0.001  0.00  0.00    +0.167 A 
ATOM     24  N   UNL     1       0.688   3.042   0.012  0.00  0.00    -0.222 NA
ENDBRANCH  14  23
ENDBRANCH   1  14
BRANCH   5  25
ATOM     25  C   UNL     1       4.951   4.844   2.785  0.00  0.00    -0.042 C 
BRANCH  25  26
ATOM     26  C   UNL     1       3.714   5.382   3.456  0.00  0.00    -0.064 A 
ATOM     27  C   UNL     1       3.429   6.734   3.397  0.00  0.00    +0.005 A 
ATOM     28  C   UNL     1       2.293   7.229   4.007  0.00  0.00    +0.046 A 
ATOM     29  C   UNL     1       1.443   6.370   4.689  0.00  0.00    +0.130 A 
ATOM     30  C   UNL     1       1.734   5.015   4.752  0.00  0.00    +0.046 A 
ATOM     31  C   UNL     1       2.869   4.524   4.135  0.00  0.00    +0.005 A 
BRANCH  29  32
ATOM     32  O   UNL     1       0.327   6.855   5.294  0.00  0.00    -0.406 OA
BRANCH  32  33
ATOM     33  C   UNL     1       0.091   8.261   5.188  0.00  0.00    +0.575 C 
ATOM     34  F   UNL     1      -0.029   8.613   3.840  0.00  0.00    -0.133 F 
ATOM     35  F   UNL     1      -1.091   8.587   5.863  0.00  0.00    -0.133 F 
ATOM     36  F   UNL     1       1.161   8.958   5.759  0.00  0.00    -0.133 F 
ENDBRANCH  32  33
ENDBRANCH  29  32
ENDBRANCH  25  26
ENDBRANCH   5  25
TORSDOF 8
