REMARK  Name = ZINC28057129
REMARK  6 active torsions:
REMARK  status: ('A' for Active; 'I' for Inactive)
REMARK    1  A    between atoms: C_1  and  O_2
REMARK    2  A    between atoms: O_2  and  C_3
REMARK    3  A    between atoms: C_7  and  C_9
REMARK    4  A    between atoms: C_20  and  C_22
REMARK    5  A    between atoms: C_25  and  S_28
REMARK    6  A    between atoms: S_28  and  C_29
REMARK                            x       y       z     vdW  Elec       q    Type
REMARK                         _______ _______ _______ _____ _____    ______ ____
ROOT
ATOM      1  C   UNL     1       2.812   3.745  -0.006  0.00  0.00    +0.174 C 
ATOM      2  C   UNL     1       3.423   3.463   1.345  0.00  0.00    +0.025 C 
ATOM      3  C   UNL     1       4.485   2.670   1.497  0.00  0.00    +0.050 C 
ATOM      4  C   UNL     1       5.003   2.438   2.866  0.00  0.00    +0.039 A 
ATOM      5  C   UNL     1       6.272   1.917   3.084  0.00  0.00    +0.033 A 
ATOM      6  C   UNL     1       6.713   1.716   4.379  0.00  0.00    +0.042 A 
ATOM      7  C   UNL     1       5.896   2.031   5.452  0.00  0.00    +0.023 A 
ATOM      8  C   UNL     1       4.631   2.551   5.243  0.00  0.00    +0.048 A 
ATOM      9  C   UNL     1       4.178   2.757   3.953  0.00  0.00    +0.131 A 
ATOM     10  O   UNL     1       2.946   3.269   3.706  0.00  0.00    -0.479 OA
ATOM     11  C   UNL     1       2.810   4.114   2.564  0.00  0.00    +0.234 C 
ATOM     12 CL   UNL     1       8.298   1.066   4.662  0.00  0.00    -0.084 Cl
ATOM     13  N   UNL     1       5.125   2.060   0.411  0.00  0.00    -0.282 N 
ATOM     14  C   UNL     1       4.792   2.507  -0.856  0.00  0.00    +0.240 A 
ATOM     15  N   UNL     1       3.712   3.302  -1.062  0.00  0.00    -0.201 N 
ATOM     16  N   UNL     1       3.694   3.558  -2.434  0.00  0.00    -0.042 NA
ATOM     17  N   UNL     1       4.706   2.929  -2.938  0.00  0.00    -0.021 NA
ATOM     18  N   UNL     1       5.354   2.307  -2.013  0.00  0.00    -0.092 NA
ATOM     19  H   UNL     1       5.859   1.259   0.585  0.00  0.00    +0.155 HD
ENDROOT
BRANCH   1  24
ATOM     20  C   UNL     1      -0.874   3.040  -0.440  0.00  0.00    +0.120 A 
ATOM     21  C   UNL     1      -0.902   1.656  -0.349  0.00  0.00    +0.045 A 
ATOM     22  C   UNL     1       0.270   0.955  -0.138  0.00  0.00    +0.004 A 
ATOM     23  C   UNL     1       1.471   1.632  -0.029  0.00  0.00    +0.006 A 
ATOM     24  C   UNL     1       1.502   3.011  -0.125  0.00  0.00    -0.015 A 
ATOM     25  C   UNL     1       0.332   3.716  -0.330  0.00  0.00    +0.051 A 
BRANCH  20  27
ATOM     26  C   UNL     1      -3.231   2.969  -0.745  0.00  0.00    +0.277 C 
ATOM     27  O   UNL     1      -2.027   3.732  -0.642  0.00  0.00    -0.495 OA
ENDBRANCH  20  27
ENDBRANCH   1  24
BRANCH  11  28
ATOM     28  C   UNL     1       3.506   5.425   2.830  0.00  0.00    -0.003 A 
ATOM     29  C   UNL     1       2.883   6.615   2.502  0.00  0.00    +0.008 A 
ATOM     30  C   UNL     1       3.515   7.818   2.749  0.00  0.00    +0.015 A 
ATOM     31  C   UNL     1       4.784   7.830   3.317  0.00  0.00    +0.008 A 
ATOM     32  C   UNL     1       5.409   6.631   3.639  0.00  0.00    +0.015 A 
ATOM     33  C   UNL     1       4.768   5.433   3.395  0.00  0.00    +0.008 A 
BRANCH  31  34
ATOM     34  S   UNL     1       5.598   9.362   3.626  0.00  0.00    -0.129 S 
ATOM     35  C   UNL     1       4.415  10.611   3.052  0.00  0.00    +0.090 C 
ENDBRANCH  31  34
ENDBRANCH  11  28
TORSDOF 4
