REMARK  Name = ZINC28380226
REMARK  4 active torsions:
REMARK  status: ('A' for Active; 'I' for Inactive)
REMARK    1  A    between atoms: C_3  and  C_6
REMARK    2  A    between atoms: N_10  and  N_11
REMARK    3  A    between atoms: C_12  and  C_13
REMARK    4  A    between atoms: C_18  and  O_19
REMARK                            x       y       z     vdW  Elec       q    Type
REMARK                         _______ _______ _______ _____ _____    ______ ____
ROOT
ATOM      1  N   UNL     1       4.938  -0.273   0.589  0.00  0.00    -0.170 NA
ATOM      2  C   UNL     1       5.056  -1.170  -0.342  0.00  0.00    +0.145 C 
ENDROOT
BRANCH   2   3
ATOM      3  C   UNL     1       5.129  -2.597   0.017  0.00  0.00    +0.038 A 
ATOM      4  C   UNL     1       5.262  -3.566  -0.981  0.00  0.00    +0.028 A 
ATOM      5  C   UNL     1       5.330  -4.901  -0.639  0.00  0.00    +0.020 A 
ATOM      6  C   UNL     1       5.265  -5.285   0.690  0.00  0.00    +0.034 A 
ATOM      7  C   UNL     1       5.133  -4.336   1.686  0.00  0.00    +0.061 A 
ATOM      8  C   UNL     1       5.069  -2.990   1.360  0.00  0.00    +0.139 A 
ATOM      9 BR   UNL     1       5.045  -4.874   3.497  0.00  0.00    -0.046 Br
ATOM     10 BR   UNL     1       5.511  -6.211  -1.991  0.00  0.00    -0.050 Br
BRANCH   8  11
ATOM     11  O   UNL     1       4.945  -2.057   2.339  0.00  0.00    -0.505 OA
ATOM     12  H   UNL     1       4.029  -1.845   2.566  0.00  0.00    +0.292 HD
ENDBRANCH   8  11
ENDBRANCH   2   3
BRANCH   1  17
ATOM     13  C   UNL     1       3.734   1.820  -0.024  0.00  0.00    +0.192 A 
ATOM     14  N   UNL     1       4.127   3.048  -0.290  0.00  0.00    -0.126 NA
ATOM     15  N   UNL     1       5.407   3.127  -0.210  0.00  0.00    -0.119 NA
ATOM     16  C   UNL     1       5.915   1.959   0.112  0.00  0.00    +0.223 A 
ATOM     17  N   UNL     1       4.869   1.085   0.248  0.00  0.00    -0.186 N 
ATOM     18  S   UNL     1       7.623   1.588   0.334  0.00  0.00    -0.007 SA
BRANCH  13  21
ATOM     19  C   UNL     1      -0.016   1.354   0.009  0.00  0.00    +0.008 A 
ATOM     20  C   UNL     1       1.176   2.042   0.002  0.00  0.00    +0.019 A 
ATOM     21  C   UNL     1       2.348   1.327  -0.013  0.00  0.00    +0.058 A 
ATOM     22  S   UNL     1       1.752  -0.356  -0.017  0.00  0.00    -0.093 S 
ATOM     23  C   UNL     1       0.002  -0.004   0.002  0.00  0.00    +0.046 A 
ENDBRANCH  13  21
ENDBRANCH   1  17
TORSDOF 4
