REMARK  Name = ZINC08592332
REMARK  8 active torsions:
REMARK  status: ('A' for Active; 'I' for Inactive)
REMARK    1  A    between atoms: C_1  and  C_2
REMARK    2  A    between atoms: C_5  and  N_8
REMARK    3  A    between atoms: C_9  and  C_11
REMARK    4  A    between atoms: C_17  and  C_38
REMARK    5  A    between atoms: C_18  and  C_28
REMARK    6  A    between atoms: C_19  and  C_21
REMARK    7  A    between atoms: C_26  and  C_27
REMARK    8  A    between atoms: N_30  and  C_31
REMARK                            x       y       z     vdW  Elec       q    Type
REMARK                         _______ _______ _______ _____ _____    ______ ____
ROOT
ATOM      1  C   UNL     1       1.581  -6.473   0.297  0.00  0.00    +0.096 A 
ATOM      2  C   UNL     1       1.042  -7.365  -0.663  0.00  0.00    +0.149 A 
ATOM      3  N   UNL     1       0.678  -8.458  -0.046  0.00  0.00    -0.176 NA
ATOM      4  N   UNL     1       0.959  -8.332   1.312  0.00  0.00    -0.238 N 
ATOM      5  C   UNL     1       1.516  -7.114   1.519  0.00  0.00    +0.134 A 
ATOM      6  N   UNL     1       1.907  -6.680   2.773  0.00  0.00    -0.302 N 
ATOM      7  C   UNL     1       1.480  -7.412   3.855  0.00  0.00    +0.017 C 
ATOM      8  C   UNL     1       0.930  -8.627   3.718  0.00  0.00    +0.060 C 
ATOM      9  C   UNL     1       0.734  -9.299   2.388  0.00  0.00    +0.176 C 
ATOM     10  C   UNL     1       1.635  -6.832   5.237  0.00  0.00    +0.061 C 
ATOM     11  H   UNL     1       2.460  -5.891   2.884  0.00  0.00    +0.153 HD
ENDROOT
BRANCH   9  12
ATOM     12  C   UNL     1       1.722 -10.430   2.262  0.00  0.00    -0.016 A 
ATOM     13  C   UNL     1       3.068 -10.199   2.479  0.00  0.00    +0.006 A 
ATOM     14  C   UNL     1       3.975 -11.236   2.363  0.00  0.00    +0.000 A 
ATOM     15  C   UNL     1       3.535 -12.504   2.031  0.00  0.00    +0.000 A 
ATOM     16  C   UNL     1       2.190 -12.735   1.815  0.00  0.00    +0.004 A 
ATOM     17  C   UNL     1       1.283 -11.699   1.935  0.00  0.00    -0.045 A 
ATOM     18  C   UNL     1      -0.185 -11.952   1.704  0.00  0.00    +0.044 C 
ENDBRANCH   9  12
BRANCH   1  20
ATOM     19  N   UNL     1       2.113  -4.631  -1.212  0.00  0.00    -0.281 N 
ATOM     20  C   UNL     1       2.114  -5.128   0.041  0.00  0.00    +0.253 C 
ATOM     21  O   UNL     1       2.556  -4.464   0.959  0.00  0.00    -0.270 OA
ATOM     22  H   UNL     1       1.695  -5.130  -1.931  0.00  0.00    +0.155 HD
BRANCH  19  27
ATOM     23  C   UNL     1       4.549   0.381  -2.273  0.00  0.00    +0.044 C 
ATOM     24  C   UNL     1       3.902  -0.951  -1.991  0.00  0.00    -0.050 A 
ATOM     25  C   UNL     1       2.773  -1.331  -2.693  0.00  0.00    +0.005 A 
ATOM     26  C   UNL     1       2.177  -2.551  -2.437  0.00  0.00    +0.023 A 
ATOM     27  C   UNL     1       2.714  -3.395  -1.474  0.00  0.00    +0.034 A 
ATOM     28  C   UNL     1       3.848  -3.010  -0.771  0.00  0.00    +0.023 A 
ATOM     29  C   UNL     1       4.442  -1.792  -1.035  0.00  0.00    +0.005 A 
ENDBRANCH  19  27
ENDBRANCH   1  20
BRANCH   8  30
ATOM     30  C   UNL     1       0.507  -9.309   4.883  0.00  0.00    +0.248 C 
ATOM     31  O   UNL     1       0.588  -8.765   5.970  0.00  0.00    -0.270 OA
ATOM     32  N   UNL     1       0.013 -10.560   4.791  0.00  0.00    -0.282 N 
ATOM     33  H   UNL     1       0.010 -11.018   3.936  0.00  0.00    +0.155 HD
BRANCH  32  34
ATOM     34  C   UNL     1      -0.493 -11.197   5.928  0.00  0.00    +0.034 A 
ATOM     35  C   UNL     1      -1.179 -10.465   6.889  0.00  0.00    +0.025 A 
ATOM     36  C   UNL     1      -1.679 -11.098   8.011  0.00  0.00    +0.022 A 
ATOM     37  C   UNL     1      -1.497 -12.459   8.178  0.00  0.00    +0.041 A 
ATOM     38  C   UNL     1      -0.814 -13.191   7.222  0.00  0.00    +0.022 A 
ATOM     39  C   UNL     1      -0.317 -12.565   6.096  0.00  0.00    +0.025 A 
ATOM     40 CL   UNL     1      -2.126 -13.251   9.589  0.00  0.00    -0.084 Cl
ENDBRANCH  32  34
ENDBRANCH   8  30
TORSDOF 5
