REMARK  Name = ZINC35843676
REMARK  13 active torsions:
REMARK  status: ('A' for Active; 'I' for Inactive)
REMARK    1  A    between atoms: C_1  and  C_2
REMARK    2  A    between atoms: C_7  and  C_8
REMARK    3  A    between atoms: C_8  and  N_9
REMARK    4  A    between atoms: N_9  and  C_10
REMARK    5  A    between atoms: N_9  and  C_35
REMARK    6  A    between atoms: C_10  and  C_11
REMARK    7  A    between atoms: N_13  and  C_14
REMARK    8  A    between atoms: N_13  and  C_26
REMARK    9  A    between atoms: C_14  and  C_15
REMARK   10  A    between atoms: C_15  and  C_16
REMARK   11  A    between atoms: C_26  and  C_27
REMARK   12  A    between atoms: C_35  and  C_36
REMARK   13  A    between atoms: C_35  and  C_37
REMARK                            x       y       z     vdW  Elec       q    Type
REMARK                         _______ _______ _______ _____ _____    ______ ____
ROOT
ATOM      1  C   UNL     1      -2.588   2.161   4.338  0.00  0.00    +0.199 C 
ATOM      2  O   UNL     1      -3.668   1.815   3.909  0.00  0.00    -0.278 OA
ATOM      3  N   UNL     1      -2.498   3.232   5.152  0.00  0.00    -0.298 N 
ENDROOT
BRANCH   1   4
ATOM      4  C   UNL     1      -1.347   1.394   3.962  0.00  0.00    +0.020 C 
BRANCH   4   5
ATOM      5  N   UNL     1      -1.693   0.350   2.989  0.00  0.00    +0.390 N 
ATOM      6  H   UNL     1      -2.439  -0.220   3.357  0.00  0.00    -0.080 HD
BRANCH   5   7
ATOM      7  C   UNL     1      -2.129   0.976   1.733  0.00  0.00    -0.074 C 
ATOM      8  C   UNL     1      -0.950   1.712   1.094  0.00  0.00    -0.013 C 
ATOM      9  C   UNL     1      -2.637  -0.103   0.775  0.00  0.00    -0.013 C 
ENDBRANCH   5   7
BRANCH   5  10
ATOM     10  C   UNL     1      -0.515  -0.491   2.733  0.00  0.00    -0.042 C 
BRANCH  10  17
ATOM     11  C   UNL     1      -2.036  -2.832   3.478  0.00  0.00    +0.044 C 
ATOM     12  C   UNL     1      -0.888  -2.373   4.341  0.00  0.00    -0.049 A 
ATOM     13  C   UNL     1      -0.560  -3.075   5.485  0.00  0.00    +0.003 A 
ATOM     14  C   UNL     1       0.492  -2.654   6.276  0.00  0.00    +0.000 A 
ATOM     15  C   UNL     1       1.217  -1.530   5.923  0.00  0.00    +0.000 A 
ATOM     16  C   UNL     1       0.889  -0.829   4.778  0.00  0.00    +0.002 A 
ATOM     17  C   UNL     1      -0.161  -1.253   3.984  0.00  0.00    -0.061 A 
ENDBRANCH  10  17
ENDBRANCH   5  10
ENDBRANCH   4   5
ENDBRANCH   1   4
BRANCH   3  18
ATOM     18  C   UNL     1      -3.714   3.912   5.605  0.00  0.00    +0.113 C 
BRANCH  18  19
ATOM     19  C   UNL     1      -4.194   3.279   6.913  0.00  0.00    +0.056 C 
BRANCH  19  20
ATOM     20  C   UNL     1      -5.445   3.979   7.380  0.00  0.00    -0.021 A 
ATOM     21  C   UNL     1      -5.513   4.995   8.255  0.00  0.00    +0.087 A 
ATOM     22  N   UNL     1      -6.816   5.370   8.434  0.00  0.00    -0.360 N 
ATOM     23  H   UNL     1      -7.115   6.083   9.019  0.00  0.00    +0.165 HD
ATOM     24  C   UNL     1      -7.640   4.585   7.659  0.00  0.00    +0.047 A 
ATOM     25  C   UNL     1      -6.817   3.683   6.960  0.00  0.00    +0.003 A 
ATOM     26  C   UNL     1      -7.385   2.758   6.082  0.00  0.00    +0.010 A 
ATOM     27  C   UNL     1      -8.739   2.735   5.904  0.00  0.00    +0.001 A 
ATOM     28  C   UNL     1      -9.556   3.625   6.588  0.00  0.00    +0.002 A 
ATOM     29  C   UNL     1      -9.017   4.540   7.466  0.00  0.00    +0.026 A 
ENDBRANCH  19  20
ENDBRANCH  18  19
ENDBRANCH   3  18
BRANCH   3  30
ATOM     30  C   UNL     1      -1.184   3.716   5.583  0.00  0.00    +0.142 C 
BRANCH  30  31
ATOM     31  C   UNL     1      -0.747   4.846   4.687  0.00  0.00    -0.029 A 
ATOM     32  C   UNL     1      -0.015   4.579   3.545  0.00  0.00    +0.007 A 
ATOM     33  C   UNL     1       0.388   5.614   2.723  0.00  0.00    +0.022 A 
ATOM     34  C   UNL     1       0.058   6.919   3.042  0.00  0.00    +0.059 A 
ATOM     35  C   UNL     1      -0.676   7.187   4.186  0.00  0.00    +0.060 A 
ATOM     36  C   UNL     1      -1.082   6.149   5.005  0.00  0.00    +0.026 A 
ATOM     37 CL   UNL     1      -1.090   8.824   4.588  0.00  0.00    -0.082 Cl
ATOM     38 CL   UNL     1       0.563   8.220   2.010  0.00  0.00    -0.082 Cl
ENDBRANCH  30  31
ENDBRANCH   3  30
TORSDOF 10
