REMARK  Name = ZINC63742872
REMARK  9 active torsions:
REMARK  status: ('A' for Active; 'I' for Inactive)
REMARK    1  A    between atoms: C_1  and  C_2
REMARK    2  A    between atoms: C_2  and  C_4
REMARK    3  A    between atoms: C_2  and  S_20
REMARK    4  A    between atoms: N_6  and  C_7
REMARK    5  A    between atoms: C_7  and  C_8
REMARK    6  A    between atoms: N_10  and  C_11
REMARK    7  A    between atoms: S_20  and  C_21
REMARK    8  A    between atoms: C_27  and  O_31
REMARK    9  A    between atoms: O_31  and  C_32
REMARK                            x       y       z     vdW  Elec       q    Type
REMARK                         _______ _______ _______ _____ _____    ______ ____
ROOT
ATOM      1  C   UNL     1       0.716  -0.455  -1.245  0.00  0.00    +0.226 C 
ATOM      2  O   UNL     1       1.875  -0.809  -1.184  0.00  0.00    -0.275 OA
ATOM      3  N   UNL     1       0.059  -0.501  -2.421  0.00  0.00    -0.306 N 
ATOM      4  H   UNL     1      -0.868  -0.218  -2.470  0.00  0.00    +0.149 HD
ENDROOT
BRANCH   1   6
ATOM      5  C   UNL     1      -0.014   1.567  -0.009  0.00  0.00    +0.029 C 
ATOM      6  C   UNL     1       0.012   0.037  -0.007  0.00  0.00    +0.133 C 
BRANCH   6   7
ATOM      7  S   UNL     1       0.896  -0.550   1.465  0.00  0.00    -0.103 S 
BRANCH   7   8
ATOM      8  C   UNL     1      -0.148  -0.011   2.847  0.00  0.00    +0.236 C 
ATOM      9  N   UNL     1      -0.325   1.445   2.807  0.00  0.00    -0.355 N 
ATOM     10  C   UNL     1      -1.599   1.682   2.677  0.00  0.00    +0.061 A 
ATOM     11  C   UNL     1      -2.367   2.932   2.581  0.00  0.00    +0.031 A 
ATOM     12  C   UNL     1      -3.706   2.885   2.450  0.00  0.00    +0.048 A 
ATOM     13  C   UNL     1      -4.431   1.622   2.399  0.00  0.00    +0.122 A 
ATOM     14  C   UNL     1      -3.794   0.429   2.481  0.00  0.00    +0.073 A 
ATOM     15  C   UNL     1      -2.337   0.392   2.624  0.00  0.00    +0.064 A 
ATOM     16  N   UNL     1      -1.488  -0.597   2.724  0.00  0.00    -0.355 N 
ATOM     17  H   UNL     1       0.379   2.110   2.866  0.00  0.00    +0.162 HD
ATOM     18  H   UNL     1      -1.704  -1.542   2.718  0.00  0.00    +0.162 HD
BRANCH  13  19
ATOM     19  O   UNL     1      -5.781   1.642   2.266  0.00  0.00    -0.495 OA
ATOM     20  C   UNL     1      -6.406   2.924   2.185  0.00  0.00    +0.277 C 
ENDBRANCH  13  19
ENDBRANCH   7   8
ENDBRANCH   6   7
ENDBRANCH   1   6
BRANCH   3  21
ATOM     21  C   UNL     1       0.743  -0.980  -3.624  0.00  0.00    +0.200 C 
BRANCH  21  22
ATOM     22  C   UNL     1      -0.206  -0.933  -4.794  0.00  0.00    +0.234 C 
ATOM     23  O   UNL     1      -1.342  -0.539  -4.638  0.00  0.00    -0.274 OA
ATOM     24  N   UNL     1       0.208  -1.329  -6.014  0.00  0.00    -0.282 N 
ATOM     25  H   UNL     1       1.134  -1.583  -6.153  0.00  0.00    +0.155 HD
BRANCH  24  26
ATOM     26  C   UNL     1      -0.699  -1.374  -7.081  0.00  0.00    +0.072 A 
ATOM     27  C   UNL     1      -1.716  -0.432  -7.170  0.00  0.00    +0.029 A 
ATOM     28  C   UNL     1      -2.610  -0.478  -8.222  0.00  0.00    +0.043 A 
ATOM     29  C   UNL     1      -2.494  -1.461  -9.190  0.00  0.00    +0.161 A 
ATOM     30  C   UNL     1      -1.481  -2.403  -9.106  0.00  0.00    +0.195 A 
ATOM     31  C   UNL     1      -0.579  -2.358  -8.056  0.00  0.00    +0.182 A 
ATOM     32  F   UNL     1       0.413  -3.272  -7.976  0.00  0.00    -0.200 F 
ATOM     33  F   UNL     1      -1.370  -3.362 -10.050  0.00  0.00    -0.199 F 
ATOM     34  F   UNL     1      -3.370  -1.502 -10.217  0.00  0.00    -0.202 F 
ENDBRANCH  24  26
ENDBRANCH  21  22
ENDBRANCH   3  21
TORSDOF 7
