REMARK  Name = ZINC15953683
REMARK  7 active torsions:
REMARK  status: ('A' for Active; 'I' for Inactive)
REMARK    1  A    between atoms: C_1  and  O_2
REMARK    2  A    between atoms: O_2  and  C_3
REMARK    3  A    between atoms: C_6  and  C_11
REMARK    4  A    between atoms: C_8  and  O_9
REMARK    5  A    between atoms: O_9  and  C_10
REMARK    6  A    between atoms: N_30  and  C_33
REMARK    7  A    between atoms: C_33  and  C_34
REMARK                            x       y       z     vdW  Elec       q    Type
REMARK                         _______ _______ _______ _____ _____    ______ ____
ROOT
ATOM      1  C   UNL     1       1.679   3.312   0.012  0.00  0.00    +0.154 C 
ATOM      2  C   UNL     1       0.927   2.003   0.103  0.00  0.00    +0.046 A 
ATOM      3  C   UNL     1      -0.419   1.912   0.052  0.00  0.00    -0.015 A 
ATOM      4  C   UNL     1      -0.753   0.508   0.180  0.00  0.00    +0.003 A 
ATOM      5  C   UNL     1      -1.972  -0.179   0.199  0.00  0.00    +0.010 A 
ATOM      6  C   UNL     1      -1.912  -1.543   0.337  0.00  0.00    +0.001 A 
ATOM      7  C   UNL     1      -0.709  -2.220   0.452  0.00  0.00    +0.002 A 
ATOM      8  C   UNL     1       0.510  -1.566   0.438  0.00  0.00    +0.026 A 
ATOM      9  C   UNL     1       0.481  -0.180   0.300  0.00  0.00    +0.047 A 
ATOM     10  N   UNL     1       1.474   0.756   0.250  0.00  0.00    -0.356 N 
ATOM     11  H   UNL     1       2.423   0.567   0.309  0.00  0.00    +0.166 HD
ATOM     12  C   UNL     1      -1.353   3.083  -0.115  0.00  0.00    +0.069 C 
ATOM     13  C   UNL     1      -0.595   4.375   0.222  0.00  0.00    +0.167 C 
ATOM     14  N   UNL     1       0.716   4.345  -0.425  0.00  0.00    -0.276 N 
ATOM     15  C   UNL     1       1.076   5.200  -1.385  0.00  0.00    +0.234 C 
ATOM     16  O   UNL     1       2.162   5.045  -1.902  0.00  0.00    -0.274 OA
ATOM     17  C   UNL     1       0.232   6.336  -1.864  0.00  0.00    +0.203 C 
ATOM     18  N   UNL     1      -1.025   6.426  -1.140  0.00  0.00    -0.289 N 
ATOM     19  C   UNL     1      -1.405   5.557  -0.205  0.00  0.00    +0.237 C 
ATOM     20  O   UNL     1      -2.475   5.737   0.336  0.00  0.00    -0.274 OA
ENDROOT
BRANCH   1  24
ATOM     21  C   UNL     1       3.272   4.346   3.843  0.00  0.00    +0.162 A 
ATOM     22  C   UNL     1       2.220   5.072   3.309  0.00  0.00    +0.050 A 
ATOM     23  C   UNL     1       1.710   4.738   2.068  0.00  0.00    +0.009 A 
ATOM     24  C   UNL     1       2.241   3.674   1.362  0.00  0.00    -0.018 A 
ATOM     25  C   UNL     1       3.292   2.946   1.890  0.00  0.00    +0.055 A 
ATOM     26  C   UNL     1       3.810   3.279   3.131  0.00  0.00    +0.162 A 
BRANCH  21  28
ATOM     27  C   UNL     1       3.176   5.783   5.736  0.00  0.00    +0.277 C 
ATOM     28  O   UNL     1       3.778   4.676   5.062  0.00  0.00    -0.491 OA
ENDBRANCH  21  28
BRANCH  26  29
ATOM     29  O   UNL     1       4.844   2.563   3.651  0.00  0.00    -0.491 OA
ATOM     30  C   UNL     1       5.346   1.482   2.864  0.00  0.00    +0.277 C 
ENDBRANCH  26  29
ENDBRANCH   1  24
BRANCH  18  31
ATOM     31  C   UNL     1      -1.927   7.536  -1.457  0.00  0.00    +0.140 C 
BRANCH  31  32
ATOM     32  C   UNL     1      -2.880   7.114  -2.577  0.00  0.00    +0.136 C 
ATOM     33  C   UNL     1      -3.757   8.313  -2.998  0.00  0.00    +0.035 C 
ATOM     34  C   UNL     1      -5.138   7.644  -3.236  0.00  0.00    +0.031 C 
ATOM     35  C   UNL     1      -5.117   6.534  -2.155  0.00  0.00    +0.160 C 
ATOM     36  O   UNL     1      -3.755   6.082  -2.108  0.00  0.00    -0.375 OA
ENDBRANCH  31  32
ENDBRANCH  18  31
TORSDOF 5
