REMARK  Name = ZINC07595727
REMARK  6 active torsions:
REMARK  status: ('A' for Active; 'I' for Inactive)
REMARK    1  A    between atoms: C_1  and  C_2
REMARK    2  A    between atoms: C_5  and  C_9
REMARK    3  A    between atoms: C_7  and  C_8
REMARK    4  A    between atoms: C_15  and  C_17
REMARK    5  A    between atoms: C_17  and  O_18
REMARK    6  A    between atoms: O_18  and  C_19
REMARK                            x       y       z     vdW  Elec       q    Type
REMARK                         _______ _______ _______ _____ _____    ______ ____
ROOT
ATOM      1  C   UNL     1       6.887  -4.046  -0.089  0.00  0.00    +0.250 A 
ATOM      2  N   UNL     1       7.315  -2.807  -0.086  0.00  0.00    -0.106 NA
ATOM      3  N   UNL     1       6.308  -2.007  -0.071  0.00  0.00    -0.092 NA
ATOM      4  C   UNL     1       5.197  -2.704  -0.065  0.00  0.00    +0.315 A 
ATOM      5  O   UNL     1       5.537  -4.006  -0.070  0.00  0.00    -0.405 OA
ATOM      6  N   UNL     1       3.909  -2.193  -0.049  0.00  0.00    -0.236 N 
ATOM      7  C   UNL     1       3.713  -0.860  -0.040  0.00  0.00    +0.258 C 
ATOM      8  O   UNL     1       4.664  -0.107  -0.044  0.00  0.00    -0.272 OA
ATOM      9  H   UNL     1       3.148  -2.795  -0.045  0.00  0.00    +0.159 HD
ENDROOT
BRANCH   1  14
ATOM     10  C   UNL     1      10.155  -8.782  -0.149  0.00  0.00    +0.044 C 
ATOM     11  C   UNL     1       9.299  -7.541  -0.134  0.00  0.00    -0.047 A 
ATOM     12  C   UNL     1       7.920  -7.656  -0.121  0.00  0.00    +0.004 A 
ATOM     13  C   UNL     1       7.131  -6.525  -0.100  0.00  0.00    +0.013 A 
ATOM     14  C   UNL     1       7.726  -5.263  -0.105  0.00  0.00    +0.039 A 
ATOM     15  C   UNL     1       9.118  -5.154  -0.118  0.00  0.00    +0.016 A 
ATOM     16  C   UNL     1       9.896  -6.293  -0.132  0.00  0.00    -0.047 A 
ATOM     17  C   UNL     1      11.398  -6.178  -0.147  0.00  0.00    +0.044 C 
ENDBRANCH   1  14
BRANCH   7  18
ATOM     18  C   UNL     1       2.312  -0.304  -0.023  0.00  0.00    +0.325 C 
BRANCH  18  19
ATOM     19  O   UNL     1       2.366   1.123  -0.015  0.00  0.00    -0.481 OA
BRANCH  19  20
ATOM     20  C   UNL     1       1.179   1.786   0.000  0.00  0.00    +0.140 A 
ATOM     21  C   UNL     1      -0.013   1.076   0.008  0.00  0.00    +0.048 A 
ATOM     22  C   UNL     1      -1.218   1.751   0.017  0.00  0.00    +0.023 A 
ATOM     23  C   UNL     1      -1.238   3.134   0.031  0.00  0.00    +0.043 A 
ATOM     24  C   UNL     1      -0.051   3.845   0.023  0.00  0.00    +0.043 A 
ATOM     25  C   UNL     1       1.157   3.174   0.008  0.00  0.00    +0.084 A 
ATOM     26 CL   UNL     1       2.647   4.066  -0.001  0.00  0.00    -0.080 Cl
ATOM     27 CL   UNL     1      -2.754   3.979   0.050  0.00  0.00    -0.083 Cl
ENDBRANCH  19  20
ENDBRANCH  18  19
ENDBRANCH   7  18
TORSDOF 4
