REMARK  Name = ZINC16021926
REMARK  7 active torsions:
REMARK  status: ('A' for Active; 'I' for Inactive)
REMARK    1  A    between atoms: C_1  and  C_2
REMARK    2  A    between atoms: C_2  and  C_3
REMARK    3  A    between atoms: C_2  and  C_4
REMARK    4  A    between atoms: C_4  and  C_5
REMARK    5  A    between atoms: N_13  and  C_16
REMARK    6  A    between atoms: C_16  and  C_17
REMARK    7  A    between atoms: C_17  and  C_18
REMARK                            x       y       z     vdW  Elec       q    Type
REMARK                         _______ _______ _______ _____ _____    ______ ____
ROOT
ATOM      1  C   UNL     1      -0.161  -0.344   2.472  0.00  0.00    -0.057 C 
ATOM      2  C   UNL     1       0.527  -0.924   3.726  0.00  0.00    +0.073 C 
ATOM      3  C   UNL     1       0.243   0.110   4.851  0.00  0.00    +0.088 C 
ATOM      4  C   UNL     1      -0.644  -0.651   5.809  0.00  0.00    +0.225 C 
ATOM      5  O   UNL     1      -1.107  -0.208   6.838  0.00  0.00    -0.275 OA
ATOM      6  N   UNL     1      -0.839  -1.891   5.345  0.00  0.00    -0.241 N 
ATOM      7  C   UNL     1      -0.218  -2.162   4.173  0.00  0.00    +0.224 C 
ATOM      8  O   UNL     1      -0.250  -3.215   3.574  0.00  0.00    -0.275 OA
ATOM      9  C   UNL     1      -0.550   1.225   4.159  0.00  0.00    +0.050 C 
ATOM     10  N   UNL     1      -0.246   1.119   2.725  0.00  0.00    +0.394 N 
ATOM     11  C   UNL     1      -2.027   1.083   4.395  0.00  0.00    -0.026 A 
ATOM     12  C   UNL     1      -2.940   0.088   4.122  0.00  0.00    +0.004 A 
ATOM     13  C   UNL     1      -4.269   0.254   4.467  0.00  0.00    +0.002 A 
ATOM     14  C   UNL     1      -4.680   1.421   5.087  0.00  0.00    +0.022 A 
ATOM     15  C   UNL     1      -3.769   2.420   5.363  0.00  0.00    +0.062 A 
ATOM     16  C   UNL     1      -2.427   2.261   5.019  0.00  0.00    +0.054 A 
ATOM     17  N   UNL     1      -1.333   3.113   5.191  0.00  0.00    -0.285 N 
ATOM     18  C   UNL     1      -0.193   2.578   4.712  0.00  0.00    +0.211 C 
ATOM     19  O   UNL     1       0.907   3.088   4.725  0.00  0.00    -0.277 OA
ATOM     20 CL   UNL     1      -4.295   3.880   6.140  0.00  0.00    -0.082 Cl
ATOM     21  H   UNL     1       0.638   1.564   2.528  0.00  0.00    -0.083 HD
ATOM     22  H   UNL     1      -1.388   3.987   5.606  0.00  0.00    +0.155 HD
ATOM     23  H   UNL     1      -0.981   1.531   2.170  0.00  0.00    -0.083 HD
ENDROOT
BRANCH   1  24
ATOM     24  C   UNL     1       0.683  -0.621   1.226  0.00  0.00    -0.012 C 
BRANCH  24  26
ATOM     25  C   UNL     1       0.881  -0.201  -1.229  0.00  0.00    +0.007 C 
ATOM     26  C   UNL     1      -0.026  -0.053  -0.006  0.00  0.00    -0.019 C 
ATOM     27  C   UNL     1      -1.329  -0.818  -0.242  0.00  0.00    +0.007 C 
ENDBRANCH  24  26
ENDBRANCH   1  24
BRANCH   6  28
ATOM     28  C   UNL     1      -1.654  -2.882   6.051  0.00  0.00    +0.121 C 
BRANCH  28  29
ATOM     29  C   UNL     1      -3.106  -2.776   5.581  0.00  0.00    +0.054 C 
BRANCH  29  30
ATOM     30  C   UNL     1      -3.945  -3.796   6.308  0.00  0.00    -0.046 A 
ATOM     31  C   UNL     1      -4.104  -5.063   5.779  0.00  0.00    +0.004 A 
ATOM     32  C   UNL     1      -4.873  -5.998   6.446  0.00  0.00    +0.000 A 
ATOM     33  C   UNL     1      -5.483  -5.667   7.641  0.00  0.00    +0.000 A 
ATOM     34  C   UNL     1      -5.324  -4.399   8.170  0.00  0.00    +0.000 A 
ATOM     35  C   UNL     1      -4.551  -3.465   7.506  0.00  0.00    +0.004 A 
ENDBRANCH  29  30
ENDBRANCH  28  29
ENDBRANCH   6  28
TORSDOF 5
