REMARK  Name = ZINC05225437
REMARK  13 active torsions:
REMARK  status: ('A' for Active; 'I' for Inactive)
REMARK    1  A    between atoms: C_1  and  S_2
REMARK    2  A    between atoms: S_2  and  C_3
REMARK    3  A    between atoms: C_3  and  C_4
REMARK    4  A    between atoms: C_4  and  C_5
REMARK    5  A    between atoms: C_5  and  C_7
REMARK    6  A    between atoms: C_5  and  N_24
REMARK    7  A    between atoms: C_7  and  O_9
REMARK    8  A    between atoms: O_9  and  C_10
REMARK    9  A    between atoms: C_10  and  C_11
REMARK   10  A    between atoms: N_13  and  C_14
REMARK   11  A    between atoms: C_17  and  S_20
REMARK   12  A    between atoms: S_20  and  N_23
REMARK   13  A    between atoms: C_25  and  C_27
REMARK                            x       y       z     vdW  Elec       q    Type
REMARK                         _______ _______ _______ _____ _____    ______ ____
ROOT
ATOM      1  O   UNL     1       2.974   6.306   1.208  0.00  0.00    -0.454 OA
ENDROOT
BRANCH   1   2
ATOM      2  C   UNL     1       3.471   5.683   0.128  0.00  0.00    +0.328 C 
ATOM      3  O   UNL     1       4.021   6.321  -0.738  0.00  0.00    -0.249 OA
BRANCH   2   4
ATOM      4  C   UNL     1       3.342   4.187  -0.005  0.00  0.00    +0.183 C 
BRANCH   4   5
ATOM      5  N   UNL     1       3.959   3.753  -1.261  0.00  0.00    -0.298 N 
ATOM      6  C   UNL     1       4.420   2.493  -1.385  0.00  0.00    +0.245 C 
ATOM      7  O   UNL     1       4.325   1.717  -0.454  0.00  0.00    -0.270 OA
ATOM      8  H   UNL     1       4.035   4.373  -2.003  0.00  0.00    +0.150 HD
BRANCH   6   9
ATOM      9  C   UNL     1       5.043   2.055  -2.652  0.00  0.00    +0.037 A 
ATOM     10  C   UNL     1       5.148   2.942  -3.724  0.00  0.00    +0.013 A 
ATOM     11  C   UNL     1       5.735   2.529  -4.903  0.00  0.00    +0.001 A 
ATOM     12  C   UNL     1       6.208   1.235  -5.027  0.00  0.00    +0.000 A 
ATOM     13  C   UNL     1       6.102   0.349  -3.969  0.00  0.00    +0.001 A 
ATOM     14  C   UNL     1       5.522   0.751  -2.784  0.00  0.00    +0.013 A 
ENDBRANCH   6   9
ENDBRANCH   4   5
BRANCH   4  15
ATOM     15  C   UNL     1       1.861   3.801  -0.003  0.00  0.00    +0.044 C 
BRANCH  15  16
ATOM     16  C   UNL     1       1.732   2.276  -0.012  0.00  0.00    +0.071 C 
BRANCH  16  18
ATOM     17  C   UNL     1      -0.003   0.004  -0.021  0.00  0.00    +0.084 C 
ATOM     18  S   UNL     1      -0.023   1.818  -0.010  0.00  0.00    -0.164 S 
ENDBRANCH  16  18
ENDBRANCH  15  16
ENDBRANCH   4  15
ENDBRANCH   2   4
ENDBRANCH   1   2
BRANCH   1  19
ATOM     19  C   UNL     1       3.134   7.748   1.268  0.00  0.00    +0.328 C 
BRANCH  19  20
ATOM     20  C   UNL     1       2.519   8.269   2.542  0.00  0.00    +0.255 C 
ATOM     21  O   UNL     1       1.998   7.500   3.322  0.00  0.00    -0.272 OA
ATOM     22  N   UNL     1       2.549   9.588   2.814  0.00  0.00    -0.283 N 
ATOM     23  H   UNL     1       3.024  10.195   2.225  0.00  0.00    +0.155 HD
BRANCH  22  24
ATOM     24  C   UNL     1       1.895  10.084   3.948  0.00  0.00    +0.034 A 
ATOM     25  C   UNL     1       1.290  11.333   3.911  0.00  0.00    +0.025 A 
ATOM     26  C   UNL     1       0.639  11.816   5.029  0.00  0.00    +0.030 A 
ATOM     27  C   UNL     1       0.601  11.063   6.189  0.00  0.00    +0.105 A 
ATOM     28  C   UNL     1       1.208   9.821   6.230  0.00  0.00    +0.030 A 
ATOM     29  C   UNL     1       1.854   9.329   5.113  0.00  0.00    +0.025 A 
BRANCH  27  30
ATOM     30  S   UNL     1      -0.224  11.687   7.615  0.00  0.00    +0.056 S 
ATOM     31  O   UNL     1      -1.178  12.632   7.152  0.00  0.00    -0.153 OA
ATOM     32  O   UNL     1      -0.588  10.559   8.400  0.00  0.00    -0.153 OA
BRANCH  30  33
ATOM     33  N   UNL     1       0.894  12.534   8.495  0.00  0.00    -0.204 NA
ATOM     34  H   UNL     1       1.808  12.604   8.179  0.00  0.00    +0.144 HD
ATOM     35  H   UNL     1       0.634  12.961   9.327  0.00  0.00    +0.144 HD
ENDBRANCH  30  33
ENDBRANCH  27  30
ENDBRANCH  22  24
ENDBRANCH  19  20
ENDBRANCH   1  19
TORSDOF 12
