REMARK  Name = ZINC09100978
REMARK  7 active torsions:
REMARK  status: ('A' for Active; 'I' for Inactive)
REMARK    1  A    between atoms: C_1  and  C_2
REMARK    2  A    between atoms: C_2  and  C_3
REMARK    3  A    between atoms: C_2  and  C_4
REMARK    4  A    between atoms: C_2  and  C_5
REMARK    5  A    between atoms: N_7  and  C_8
REMARK    6  A    between atoms: C_8  and  C_9
REMARK    7  A    between atoms: N_12  and  C_16
REMARK                            x       y       z     vdW  Elec       q    Type
REMARK                         _______ _______ _______ _____ _____    ______ ____
ROOT
ATOM      1  C   UNL     1       1.553  -3.814  -2.673  0.00  0.00    +0.213 C 
ATOM      2  C   UNL     1       2.270  -4.338  -3.933  0.00  0.00    +0.163 C 
ATOM      3  N   UNL     1       3.415  -5.090  -3.397  0.00  0.00    -0.234 N 
ATOM      4  C   UNL     1       3.388  -5.026  -2.059  0.00  0.00    +0.408 C 
ATOM      5  O   UNL     1       4.219  -5.561  -1.353  0.00  0.00    -0.226 OA
ATOM      6  O   UNL     1       2.361  -4.320  -1.572  0.00  0.00    -0.444 OA
ENDROOT
BRANCH   3   7
ATOM      7  C   UNL     1       4.378  -5.761  -4.161  0.00  0.00    +0.041 A 
ATOM      8  C   UNL     1       4.292  -5.756  -5.547  0.00  0.00    +0.025 A 
ATOM      9  C   UNL     1       5.246  -6.414  -6.299  0.00  0.00    +0.023 A 
ATOM     10  C   UNL     1       6.279  -7.088  -5.672  0.00  0.00    +0.059 A 
ATOM     11  C   UNL     1       6.364  -7.099  -4.290  0.00  0.00    +0.061 A 
ATOM     12  C   UNL     1       5.415  -6.437  -3.534  0.00  0.00    +0.045 A 
ATOM     13 CL   UNL     1       7.662  -7.944  -3.507  0.00  0.00    -0.082 Cl
ATOM     14 CL   UNL     1       7.472  -7.920  -6.620  0.00  0.00    -0.082 Cl
ENDBRANCH   3   7
BRANCH   1  15
ATOM     15  C   UNL     1       1.532  -2.285  -2.665  0.00  0.00    +0.150 C 
BRANCH  15  18
ATOM     16  C   UNL     1       0.707  -0.490  -1.238  0.00  0.00    +0.219 C 
ATOM     17  O   UNL     1       1.150   0.308  -2.036  0.00  0.00    -0.275 OA
ATOM     18  N   UNL     1       0.847  -1.812  -1.460  0.00  0.00    -0.311 N 
ATOM     19  H   UNL     1       0.493  -2.451  -0.821  0.00  0.00    +0.149 HD
BRANCH  16  21
ATOM     20  C   UNL     1      -0.019   1.526   0.010  0.00  0.00    +0.020 C 
ATOM     21  C   UNL     1       0.002  -0.004   0.002  0.00  0.00    +0.039 C 
ATOM     22  C   UNL     1       0.742  -0.511   1.242  0.00  0.00    +0.020 C 
ATOM     23  C   UNL     1      -1.433  -0.534   0.013  0.00  0.00    +0.020 C 
ENDBRANCH  16  21
ENDBRANCH  15  18
ENDBRANCH   1  15
TORSDOF 4
