REMARK  Name = ZINC10775067
REMARK  9 active torsions:
REMARK  status: ('A' for Active; 'I' for Inactive)
REMARK    1  A    between atoms: C_1  and  C_2
REMARK    2  A    between atoms: N_11  and  C_12
REMARK    3  A    between atoms: C_12  and  C_13
REMARK    4  A    between atoms: C_13  and  N_60
REMARK    5  A    between atoms: C_14  and  N_60
REMARK    6  A    between atoms: C_15  and  N_60
REMARK    7  A    between atoms: C_16  and  C_18
REMARK    8  A    between atoms: N_24  and  S_25
REMARK    9  A    between atoms: S_25  and  C_28
REMARK                            x       y       z     vdW  Elec       q    Type
REMARK                         _______ _______ _______ _____ _____    ______ ____
ROOT
ATOM      1  C   UNL     1      -0.491  -1.357  -0.438  0.00  0.00    +0.044 C 
ATOM      2  C   UNL     1       0.722  -0.462  -0.419  0.00  0.00    -0.049 A 
ATOM      3  C   UNL     1       1.996  -1.007  -0.493  0.00  0.00    +0.005 A 
ATOM      4  C   UNL     1       3.115  -0.216  -0.479  0.00  0.00    +0.029 A 
ATOM      5  C   UNL     1       3.004   1.190  -0.386  0.00  0.00    +0.080 A 
ATOM      6  C   UNL     1       1.692   1.710  -0.312  0.00  0.00    +0.041 A 
ATOM      7  C   UNL     1       0.576   0.910  -0.327  0.00  0.00    +0.020 A 
ATOM      8  S   UNL     1       1.982   3.459  -0.210  0.00  0.00    -0.052 S 
ATOM      9  C   UNL     1       3.767   3.394  -0.271  0.00  0.00    +0.168 A 
ATOM     10  N   UNL     1       3.997   2.105  -0.360  0.00  0.00    -0.224 NA
ATOM     11  N   UNL     1       4.677   4.439  -0.234  0.00  0.00    -0.251 N 
ATOM     12  C   UNL     1       4.239   5.710  -0.140  0.00  0.00    +0.240 C 
ATOM     13  O   UNL     1       3.050   5.947  -0.175  0.00  0.00    -0.273 OA
ENDROOT
BRANCH  12  14
ATOM     14  C   UNL     1       5.228   6.838   0.010  0.00  0.00    +0.166 C 
ATOM     15  C   UNL     1       5.029   7.518   1.368  0.00  0.00    +0.030 C 
ATOM     16  C   UNL     1       5.936   8.748   1.455  0.00  0.00    +0.003 C 
ATOM     17  C   UNL     1       5.561   9.743   0.354  0.00  0.00    +0.017 C 
ATOM     18  C   UNL     1       5.768   9.086  -1.014  0.00  0.00    +0.110 C 
ATOM     19  N   UNL     1       5.010   7.828  -1.054  0.00  0.00    -0.164 NA
BRANCH  19  20
ATOM     20  S   UNL     1       3.932   7.531  -2.275  0.00  0.00    +0.068 S 
ATOM     21  O   UNL     1       4.348   8.315  -3.385  0.00  0.00    -0.152 OA
ATOM     22  O   UNL     1       3.784   6.120  -2.352  0.00  0.00    -0.152 OA
BRANCH  20  23
ATOM     23  C   UNL     1       2.373   8.173  -1.761  0.00  0.00    +0.143 A 
ATOM     24  C   UNL     1       1.859   9.414  -1.944  0.00  0.00    +0.036 A 
ATOM     25  C   UNL     1       0.599   9.697  -1.452  0.00  0.00    +0.010 A 
ATOM     26  C   UNL     1      -0.081   8.728  -0.792  0.00  0.00    +0.047 A 
ATOM     27  S   UNL     1       1.065   7.361  -0.858  0.00  0.00    -0.077 S 
ENDBRANCH  20  23
ENDBRANCH  19  20
ENDBRANCH  12  14
BRANCH  11  28
ATOM     28  C   UNL     1       6.114   4.161  -0.296  0.00  0.00    +0.097 C 
BRANCH  28  29
ATOM     29  C   UNL     1       6.597   4.297  -1.742  0.00  0.00    -0.060 C 
BRANCH  29  32
ATOM     30  C   UNL     1       8.492   3.905  -3.197  0.00  0.00    -0.097 C 
ATOM     31  C   UNL     1       8.804   5.043  -1.083  0.00  0.00    -0.097 C 
ATOM     32  N   UNL     1       8.042   3.993  -1.792  0.00  0.00    +0.377 N 
ATOM     33  H   UNL     1       8.210   3.091  -1.331  0.00  0.00    -0.083 HD
ENDBRANCH  29  32
ENDBRANCH  28  29
ENDBRANCH  11  28
TORSDOF 6
