REMARK  Name = ZINC33051949
REMARK  7 active torsions:
REMARK  status: ('A' for Active; 'I' for Inactive)
REMARK    1  A    between atoms: C_1  and  C_2
REMARK    2  A    between atoms: C_2  and  C_3
REMARK    3  A    between atoms: C_6  and  C_9
REMARK    4  A    between atoms: C_18  and  C_27
REMARK    5  A    between atoms: N_20  and  C_21
REMARK    6  A    between atoms: N_32  and  C_33
REMARK    7  A    between atoms: C_38  and  C_39
REMARK                            x       y       z     vdW  Elec       q    Type
REMARK                         _______ _______ _______ _____ _____    ______ ____
ROOT
ATOM      1  C   UNL     1      -0.969   7.515  -3.285  0.00  0.00    +0.155 C 
ATOM      2  C   UNL     1      -1.914   6.461  -2.786  0.00  0.00    +0.050 A 
ATOM      3  C   UNL     1      -3.070   6.042  -3.325  0.00  0.00    +0.025 A 
ATOM      4  C   UNL     1      -3.539   4.968  -2.537  0.00  0.00    +0.020 A 
ATOM      5  C   UNL     1      -2.652   4.781  -1.533  0.00  0.00    +0.093 A 
ATOM      6  N   UNL     1      -1.676   5.708  -1.663  0.00  0.00    -0.303 N 
ATOM      7  C   UNL     1      -0.570   5.988  -0.853  0.00  0.00    +0.146 A 
ATOM      8  C   UNL     1      -0.236   7.278  -0.551  0.00  0.00    +0.035 A 
ATOM      9  C   UNL     1       0.946   7.245   0.181  0.00  0.00    +0.067 A 
ATOM     10  N   UNL     1       1.297   5.991   0.345  0.00  0.00    -0.169 NA
ATOM     11  N   UNL     1       0.347   5.176  -0.293  0.00  0.00    -0.215 N 
ATOM     12  C   UNL     1       1.694   8.445   0.703  0.00  0.00    +0.068 C 
ATOM     13  C   UNL     1      -1.068   8.459  -0.956  0.00  0.00    +0.151 C 
ATOM     14  N   UNL     1      -0.982   8.713  -2.414  0.00  0.00    -0.268 N 
ATOM     15  C   UNL     1      -0.918   9.961  -2.918  0.00  0.00    +0.308 C 
ATOM     16  O   UNL     1      -0.849  10.129  -4.120  0.00  0.00    -0.252 OA
ATOM     17  N   UNL     1      -0.932  11.024  -2.089  0.00  0.00    -0.269 N 
ATOM     18  H   UNL     1      -0.931  10.872  -1.000  0.00  0.00    +0.156 HD
ENDROOT
BRANCH  17  19
ATOM     19  C   UNL     1      -0.948  12.321  -2.615  0.00  0.00    +0.038 A 
ATOM     20  C   UNL     1      -0.272  12.602  -3.795  0.00  0.00    +0.023 A 
ATOM     21  C   UNL     1      -0.294  13.881  -4.314  0.00  0.00    +0.002 A 
ATOM     22  C   UNL     1      -0.979  14.885  -3.653  0.00  0.00    +0.000 A 
ATOM     23  C   UNL     1      -1.649  14.610  -2.475  0.00  0.00    +0.005 A 
ATOM     24  C   UNL     1      -1.635  13.331  -1.954  0.00  0.00    -0.029 A 
ATOM     25  C   UNL     1      -2.366  13.031  -0.671  0.00  0.00    +0.045 C 
ENDBRANCH  17  19
BRANCH   1  29
ATOM     26  C   UNL     1       2.988   5.909  -3.387  0.00  0.00    -0.048 A 
ATOM     27  C   UNL     1       1.901   5.083  -3.607  0.00  0.00    +0.004 A 
ATOM     28  C   UNL     1       0.620   5.603  -3.573  0.00  0.00    +0.006 A 
ATOM     29  C   UNL     1       0.427   6.948  -3.321  0.00  0.00    -0.021 A 
ATOM     30  C   UNL     1       1.514   7.775  -3.107  0.00  0.00    +0.006 A 
ATOM     31  C   UNL     1       2.794   7.254  -3.135  0.00  0.00    +0.004 A 
BRANCH  26  33
ATOM     32  C   UNL     1       4.931   5.427  -4.850  0.00  0.00    +0.009 C 
ATOM     33  C   UNL     1       4.384   5.342  -3.424  0.00  0.00    +0.032 C 
ENDBRANCH  26  33
ENDBRANCH   1  29
BRANCH  11  34
ATOM     34  C   UNL     1       0.349   3.775  -0.334  0.00  0.00    +0.068 A 
ATOM     35  C   UNL     1      -0.098   3.112  -1.469  0.00  0.00    +0.028 A 
ATOM     36  C   UNL     1      -0.094   1.731  -1.507  0.00  0.00    +0.002 A 
ATOM     37  C   UNL     1       0.356   1.010  -0.416  0.00  0.00    +0.000 A 
ATOM     38  C   UNL     1       0.796   1.667   0.718  0.00  0.00    +0.002 A 
ATOM     39  C   UNL     1       0.799   3.048   0.759  0.00  0.00    +0.028 A 
ENDBRANCH  11  34
TORSDOF 4
