REMARK  Name = ZINC03840382
REMARK  8 active torsions:
REMARK  status: ('A' for Active; 'I' for Inactive)
REMARK    1  A    between atoms: C_1  and  C_2
REMARK    2  A    between atoms: C_5  and  N_8
REMARK    3  A    between atoms: C_14  and  N_21
REMARK    4  A    between atoms: C_22  and  C_24
REMARK    5  A    between atoms: C_27  and  S_32
REMARK    6  A    between atoms: C_29  and  O_30
REMARK    7  A    between atoms: O_30  and  C_31
REMARK    8  A    between atoms: S_32  and  C_33
REMARK                            x       y       z     vdW  Elec       q    Type
REMARK                         _______ _______ _______ _____ _____    ______ ____
ROOT
ATOM      1  N   UNL     1       6.710  -5.308  -1.074  0.00  0.00    -0.193 N 
ATOM      2  C   UNL     1       6.241  -4.866   0.113  0.00  0.00    +0.248 C 
ATOM      3  O   UNL     1       6.748  -5.017   1.204  0.00  0.00    -0.273 OA
ATOM      4  C   UNL     1       4.950  -4.144  -0.203  0.00  0.00    +0.166 C 
ATOM      5  C   UNL     1       3.776  -4.770   0.556  0.00  0.00    +0.054 C 
ATOM      6  C   UNL     1       2.468  -4.275  -0.068  0.00  0.00    +0.077 C 
ATOM      7  C   UNL     1       2.352  -4.749  -1.517  0.00  0.00    +0.041 C 
ATOM      8  C   UNL     1       3.499  -4.155  -2.349  0.00  0.00    +0.112 C 
ATOM      9  N   UNL     1       4.748  -4.438  -1.639  0.00  0.00    -0.273 N 
ATOM     10  C   UNL     1       5.872  -5.009  -2.078  0.00  0.00    +0.316 C 
ATOM     11  O   UNL     1       6.109  -5.231  -3.250  0.00  0.00    -0.252 OA
ENDROOT
BRANCH   1  16
ATOM     12  C   UNL     1      11.617  -8.084  -1.730  0.00  0.00    +0.044 C 
ATOM     13  C   UNL     1      10.314  -7.346  -1.556  0.00  0.00    -0.050 A 
ATOM     14  C   UNL     1       9.457  -7.197  -2.630  0.00  0.00    +0.005 A 
ATOM     15  C   UNL     1       8.262  -6.522  -2.474  0.00  0.00    +0.024 A 
ATOM     16  C   UNL     1       7.922  -5.994  -1.236  0.00  0.00    +0.045 A 
ATOM     17  C   UNL     1       8.787  -6.141  -0.160  0.00  0.00    +0.024 A 
ATOM     18  C   UNL     1       9.978  -6.821  -0.321  0.00  0.00    +0.005 A 
ENDBRANCH   1  16
BRANCH   6  19
ATOM     19  N   UNL     1       2.440  -2.811  -0.034  0.00  0.00    -0.308 N 
ATOM     20  C   UNL     1       1.260  -2.159  -0.020  0.00  0.00    +0.248 C 
ATOM     21  O   UNL     1       0.218  -2.788  -0.035  0.00  0.00    -0.270 OA
ATOM     22  H   UNL     1       3.270  -2.310  -0.023  0.00  0.00    +0.149 HD
BRANCH  20  23
ATOM     23  C   UNL     1       1.232  -0.688   0.014  0.00  0.00    +0.078 A 
ATOM     24  C   UNL     1       2.428   0.037   0.031  0.00  0.00    +0.018 A 
ATOM     25  C   UNL     1       2.402   1.400   0.063  0.00  0.00    +0.015 A 
ATOM     26  C   UNL     1       1.185   2.082   0.078  0.00  0.00    +0.011 A 
ATOM     27  C   UNL     1      -0.012   1.375   0.061  0.00  0.00    +0.061 A 
ATOM     28  C   UNL     1       0.004  -0.007   0.029  0.00  0.00    +0.133 A 
BRANCH  28  29
ATOM     29  O   UNL     1      -1.161  -0.702   0.013  0.00  0.00    -0.494 OA
ATOM     30  C   UNL     1      -2.371   0.059   0.030  0.00  0.00    +0.277 C 
ENDBRANCH  28  29
BRANCH  26  31
ATOM     31  S   UNL     1       1.166   3.843   0.118  0.00  0.00    -0.128 S 
ATOM     32  C   UNL     1       2.921   4.301   0.130  0.00  0.00    +0.090 C 
ENDBRANCH  26  31
ENDBRANCH  20  23
ENDBRANCH   6  19
TORSDOF 5
