REMARK  Name = ZINC13449904
REMARK  8 active torsions:
REMARK  status: ('A' for Active; 'I' for Inactive)
REMARK    1  A    between atoms: C_1  and  C_2
REMARK    2  A    between atoms: C_4  and  S_14
REMARK    3  A    between atoms: C_8  and  C_9
REMARK    4  A    between atoms: C_9  and  C_10
REMARK    5  A    between atoms: C_10  and  C_11
REMARK    6  A    between atoms: S_14  and  C_15
REMARK    7  A    between atoms: C_15  and  C_16
REMARK    8  A    between atoms: C_24  and  C_26
REMARK                            x       y       z     vdW  Elec       q    Type
REMARK                         _______ _______ _______ _____ _____    ______ ____
ROOT
ATOM      1  C   UNL     1      -3.513  -5.022  -2.127  0.00  0.00    +0.173 C 
ENDROOT
BRANCH   1   2
ATOM      2  C   UNL     1      -2.749  -5.572  -3.304  0.00  0.00    +0.226 C 
ATOM      3  O   UNL     1      -2.758  -4.980  -4.362  0.00  0.00    -0.275 OA
ATOM      4  N   UNL     1      -2.056  -6.721  -3.179  0.00  0.00    -0.298 N 
ATOM      5  C   UNL     1      -2.041  -7.451  -1.904  0.00  0.00    +0.127 C 
ATOM      6  C   UNL     1      -2.509  -8.890  -2.158  0.00  0.00    +0.127 C 
ATOM      7  N   UNL     1      -1.754  -9.435  -3.296  0.00  0.00    -0.294 N 
ATOM      8  C   UNL     1      -1.769  -8.705  -4.571  0.00  0.00    +0.127 C 
ATOM      9  C   UNL     1      -1.306  -7.269  -4.319  0.00  0.00    +0.127 C 
ATOM     10  C   UNL     1      -1.061 -10.584  -3.171  0.00  0.00    +0.253 C 
ATOM     11  O   UNL     1      -0.536 -11.086  -4.148  0.00  0.00    -0.269 OA
BRANCH  10  12
ATOM     12  C   UNL     1      -0.941 -11.229  -1.861  0.00  0.00    +0.074 A 
ATOM     13  C   UNL     1      -0.803 -12.576  -1.559  0.00  0.00    +0.021 A 
ATOM     14  C   UNL     1      -0.712 -12.881  -0.222  0.00  0.00    +0.008 A 
ATOM     15  C   UNL     1      -0.761 -11.877   0.689  0.00  0.00    +0.046 A 
ATOM     16  S   UNL     1      -0.924 -10.487  -0.240  0.00  0.00    -0.092 S 
ENDBRANCH  10  12
ENDBRANCH   1   2
BRANCH   1  17
ATOM     17  S   UNL     1      -4.334  -3.478  -2.607  0.00  0.00    -0.077 S 
BRANCH  17  21
ATOM     18  C   UNL     1      -7.331  -0.160  -0.117  0.00  0.00    +0.066 C 
ATOM     19  C   UNL     1      -6.527  -1.434  -0.082  0.00  0.00    +0.049 A 
ATOM     20  N   UNL     1      -5.883  -1.849  -1.163  0.00  0.00    -0.227 NA
ATOM     21  C   UNL     1      -5.173  -2.967  -1.144  0.00  0.00    +0.192 A 
ATOM     22  N   UNL     1      -5.078  -3.712  -0.052  0.00  0.00    -0.183 NA
ATOM     23  C   UNL     1      -5.698  -3.355   1.066  0.00  0.00    +0.277 A 
ATOM     24  O   UNL     1      -5.599  -4.119   2.181  0.00  0.00    -0.265 OA
ATOM     25  C   UNL     1      -6.449  -2.180   1.079  0.00  0.00    +0.040 A 
BRANCH  25  26
ATOM     26  C   UNL     1      -7.163  -1.736   2.329  0.00  0.00    +0.054 C 
BRANCH  26  27
ATOM     27  C   UNL     1      -8.572  -2.333   2.351  0.00  0.00    +0.130 C 
BRANCH  27  28
ATOM     28  C   UNL     1      -9.286  -1.889   3.601  0.00  0.00    +0.356 C 
ATOM     29  O   UNL     1      -8.721  -1.162   4.401  0.00  0.00    -0.246 OA
ATOM     30  O   UNL     1     -10.430  -2.256   3.813  0.00  0.00    -0.246 OA
ENDBRANCH  27  28
ENDBRANCH  26  27
ENDBRANCH  25  26
ENDBRANCH  17  21
ENDBRANCH   1  17
TORSDOF 7
