REMARK  Name = ZINC15067739
REMARK  12 active torsions:
REMARK  status: ('A' for Active; 'I' for Inactive)
REMARK    1  A    between atoms: C_1  and  O_2
REMARK    2  A    between atoms: O_2  and  C_3
REMARK    3  A    between atoms: C_8  and  N_9
REMARK    4  A    between atoms: N_12  and  C_15
REMARK    5  A    between atoms: N_19  and  C_29
REMARK    6  A    between atoms: C_21  and  C_23
REMARK    7  A    between atoms: C_23  and  C_24
REMARK    8  A    between atoms: C_24  and  C_25
REMARK    9  A    between atoms: C_25  and  O_27
REMARK   10  A    between atoms: O_27  and  C_28
REMARK   11  A    between atoms: C_29  and  C_30
REMARK   12  A    between atoms: C_33  and  C_36
REMARK                            x       y       z     vdW  Elec       q    Type
REMARK                         _______ _______ _______ _____ _____    ______ ____
ROOT
ATOM      1  C   UNL     1      -0.024   1.062  -2.473  0.00  0.00    +0.056 C 
ATOM      2  C   UNL     1       1.376   1.629  -2.721  0.00  0.00    +0.000 C 
ATOM      3  C   UNL     1       1.893   1.128  -4.071  0.00  0.00    -0.077 C 
ATOM      4  N   UNL     1       0.976   1.556  -5.136  0.00  0.00    +0.383 N 
ATOM      5  C   UNL     1      -0.363   0.984  -4.945  0.00  0.00    -0.073 C 
ATOM      6  C   UNL     1      -0.947   1.481  -3.621  0.00  0.00    -0.010 C 
ATOM      7  H   UNL     1       0.885   2.651  -5.080  0.00  0.00    -0.081 HD
ENDROOT
BRANCH   1  11
ATOM      8  N   UNL     1      -1.467   1.397   1.484  0.00  0.00    -0.325 N 
ATOM      9  C   UNL     1      -2.412   1.636   0.384  0.00  0.00    +0.120 C 
ATOM     10  C   UNL     1      -1.865   1.007  -0.900  0.00  0.00    +0.103 C 
ATOM     11  N   UNL     1      -0.549   1.586  -1.205  0.00  0.00    -0.296 NA
ATOM     12  C   UNL     1       0.395   1.346  -0.105  0.00  0.00    +0.103 C 
ATOM     13  C   UNL     1      -0.151   1.975   1.179  0.00  0.00    +0.120 C 
BRANCH   8  19
ATOM     14  C   UNL     1      -2.255   1.026   3.741  0.00  0.00    +0.141 A 
ATOM     15  C   UNL     1      -2.744   1.527   4.936  0.00  0.00    +0.047 A 
ATOM     16  C   UNL     1      -2.957   2.885   5.082  0.00  0.00    +0.004 A 
ATOM     17  C   UNL     1      -2.676   3.749   4.040  0.00  0.00    +0.002 A 
ATOM     18  C   UNL     1      -2.183   3.258   2.845  0.00  0.00    +0.027 A 
ATOM     19  C   UNL     1      -1.967   1.896   2.692  0.00  0.00    +0.072 A 
BRANCH  14  21
ATOM     20  C   UNL     1      -2.368  -1.142   4.712  0.00  0.00    +0.277 C 
ATOM     21  O   UNL     1      -2.051  -0.310   3.594  0.00  0.00    -0.493 OA
ENDBRANCH  14  21
ENDBRANCH   8  19
ENDBRANCH   1  11
BRANCH   6  22
ATOM     22  C   UNL     1      -1.062   3.006  -3.652  0.00  0.00    +0.014 C 
BRANCH  22  23
ATOM     23  C   UNL     1      -2.095   3.418  -4.703  0.00  0.00    +0.121 C 
BRANCH  23  24
ATOM     24  C   UNL     1      -2.209   4.920  -4.734  0.00  0.00    +0.307 C 
ATOM     25  O   UNL     1      -1.533   5.593  -3.992  0.00  0.00    -0.251 OA
BRANCH  24  26
ATOM     26  O   UNL     1      -3.061   5.511  -5.586  0.00  0.00    -0.468 OA
ATOM     27  C   UNL     1      -3.118   6.962  -5.561  0.00  0.00    +0.280 C 
ENDBRANCH  24  26
ENDBRANCH  23  24
ENDBRANCH  22  23
ENDBRANCH   6  22
BRANCH   4  28
ATOM     28  C   UNL     1       1.511   1.212  -6.460  0.00  0.00    -0.043 C 
BRANCH  28  29
ATOM     29  C   UNL     1       2.765   2.008  -6.718  0.00  0.00    -0.064 A 
ATOM     30  C   UNL     1       2.685   3.244  -7.332  0.00  0.00    +0.002 A 
ATOM     31  C   UNL     1       3.834   3.976  -7.564  0.00  0.00    +0.012 A 
ATOM     32  C   UNL     1       5.064   3.468  -7.190  0.00  0.00    +0.055 A 
ATOM     33  C   UNL     1       5.145   2.230  -6.581  0.00  0.00    +0.012 A 
ATOM     34  C   UNL     1       3.995   1.500  -6.345  0.00  0.00    +0.002 A 
BRANCH  32  35
ATOM     35  C   UNL     1       6.318   4.264  -7.447  0.00  0.00    +0.417 C 
ATOM     36  F   UNL     1       6.827   3.937  -8.709  0.00  0.00    -0.166 F 
ATOM     37  F   UNL     1       6.019   5.631  -7.405  0.00  0.00    -0.166 F 
ATOM     38  F   UNL     1       7.270   3.965  -6.468  0.00  0.00    -0.166 F 
ENDBRANCH  32  35
ENDBRANCH  28  29
ENDBRANCH   4  28
TORSDOF 10
