REMARK  Name = ZINC40317318
REMARK  15 active torsions:
REMARK  status: ('A' for Active; 'I' for Inactive)
REMARK    1  A    between atoms: C_1  and  C_2
REMARK    2  A    between atoms: C_4  and  O_9
REMARK    3  A    between atoms: O_9  and  C_10
REMARK    4  A    between atoms: C_10  and  C_11
REMARK    5  A    between atoms: C_11  and  C_13
REMARK    6  A    between atoms: C_11  and  O_32
REMARK    7  A    between atoms: C_13  and  N_14
REMARK    8  A    between atoms: N_14  and  C_15
REMARK    9  A    between atoms: N_14  and  C_26
REMARK   10  A    between atoms: C_15  and  C_16
REMARK   11  A    between atoms: C_19  and  C_22
REMARK   12  A    between atoms: C_22  and  C_23
REMARK   13  A    between atoms: C_22  and  C_24
REMARK   14  A    between atoms: C_22  and  C_25
REMARK   15  A    between atoms: C_26  and  C_27
REMARK                            x       y       z     vdW  Elec       q    Type
REMARK                         _______ _______ _______ _____ _____    ______ ____
ROOT
ATOM      1  N   UNL     1       0.038  -6.729  -5.052  0.00  0.00    +0.389 N 
ATOM      2  H   UNL     1       0.892  -6.288  -5.357  0.00  0.00    -0.081 HD
ENDROOT
BRANCH   1   3
ATOM      3  C   UNL     1      -0.282  -6.285  -3.689  0.00  0.00    -0.043 C 
BRANCH   3   4
ATOM      4  C   UNL     1       0.932  -6.504  -2.783  0.00  0.00    +0.135 C 
BRANCH   4   5
ATOM      5  O   UNL     1       1.157  -7.905  -2.617  0.00  0.00    -0.390 OA
ATOM      6  H   UNL     1       0.414  -8.378  -2.217  0.00  0.00    +0.210 HD
ENDBRANCH   4   5
BRANCH   4   7
ATOM      7  C   UNL     1       0.672  -5.864  -1.418  0.00  0.00    +0.258 C 
BRANCH   7   8
ATOM      8  O   UNL     1       1.848  -5.965  -0.613  0.00  0.00    -0.489 OA
BRANCH   8  12
ATOM      9  C   UNL     1       4.024  -5.042   3.657  0.00  0.00    +0.045 C 
ATOM     10  C   UNL     1       2.824  -4.972   2.749  0.00  0.00    -0.029 A 
ATOM     11  C   UNL     1       2.890  -5.506   1.476  0.00  0.00    +0.050 A 
ATOM     12  C   UNL     1       1.785  -5.442   0.640  0.00  0.00    +0.121 A 
ATOM     13  C   UNL     1       0.615  -4.842   1.084  0.00  0.00    +0.047 A 
ATOM     14  C   UNL     1       0.553  -4.309   2.357  0.00  0.00    +0.024 A 
ATOM     15  C   UNL     1       1.655  -4.379   3.192  0.00  0.00    +0.044 A 
ATOM     16 CL   UNL     1       1.573  -3.716   4.794  0.00  0.00    -0.083 Cl
ENDBRANCH   8  12
ENDBRANCH   7   8
ENDBRANCH   4   7
ENDBRANCH   3   4
ENDBRANCH   1   3
BRANCH   1  17
ATOM     17  C   UNL     1       0.207  -8.188  -5.065  0.00  0.00    -0.042 C 
BRANCH  17  18
ATOM     18  C   UNL     1       0.593  -8.637  -6.451  0.00  0.00    -0.064 A 
ATOM     19  C   UNL     1      -0.387  -8.969  -7.367  0.00  0.00    +0.002 A 
ATOM     20  C   UNL     1      -0.034  -9.381  -8.639  0.00  0.00    +0.004 A 
ATOM     21  C   UNL     1       1.300  -9.460  -8.994  0.00  0.00    -0.042 A 
ATOM     22  C   UNL     1       2.280  -9.126  -8.078  0.00  0.00    +0.004 A 
ATOM     23  C   UNL     1       1.926  -8.711  -6.808  0.00  0.00    +0.002 A 
BRANCH  21  24
ATOM     24  C   UNL     1       1.685  -9.909 -10.380  0.00  0.00    -0.013 C 
ATOM     25  C   UNL     1       1.083  -8.953 -11.412  0.00  0.00    +0.015 C 
ATOM     26  C   UNL     1       3.209  -9.908 -10.511  0.00  0.00    +0.015 C 
ATOM     27  C   UNL     1       1.153 -11.323 -10.624  0.00  0.00    +0.015 C 
ENDBRANCH  21  24
ENDBRANCH  17  18
ENDBRANCH   1  17
BRANCH   1  28
ATOM     28  C   UNL     1      -1.057  -6.356  -5.958  0.00  0.00    -0.003 C 
BRANCH  28  29
ATOM     29  C   UNL     1      -1.153  -4.854  -6.037  0.00  0.00    +0.089 A 
ATOM     30  C   UNL     1      -0.571  -4.076  -6.968  0.00  0.00    +0.042 A 
ATOM     31  C   UNL     1      -0.922  -2.741  -6.664  0.00  0.00    +0.041 A 
ATOM     32  C   UNL     1      -1.697  -2.782  -5.565  0.00  0.00    +0.195 A 
ATOM     33  O   UNL     1      -1.838  -4.065  -5.193  0.00  0.00    -0.470 OA
ENDBRANCH  28  29
ENDBRANCH   1  28
TORSDOF 11
