REMARK  Name = ZINC20898688
REMARK  11 active torsions:
REMARK  status: ('A' for Active; 'I' for Inactive)
REMARK    1  A    between atoms: C_1  and  C_2
REMARK    2  A    between atoms: C_2  and  C_3
REMARK    3  A    between atoms: C_6  and  N_9
REMARK    4  A    between atoms: C_12  and  C_14
REMARK    5  A    between atoms: C_15  and  C_22
REMARK    6  A    between atoms: C_25  and  O_31
REMARK    7  A    between atoms: C_26  and  O_28
REMARK    8  A    between atoms: O_28  and  C_29
REMARK    9  A    between atoms: C_29  and  C_30
REMARK   10  A    between atoms: O_31  and  C_32
REMARK   11  A    between atoms: C_32  and  C_33
REMARK                            x       y       z     vdW  Elec       q    Type
REMARK                         _______ _______ _______ _____ _____    ______ ____
ROOT
ATOM      1  N   UNL     1       2.065   0.717  -0.017  0.00  0.00    -0.218 N 
ATOM      2  C   UNL     1       1.261   1.825  -0.173  0.00  0.00    +0.133 A 
ATOM      3  C   UNL     1      -0.018   1.399  -0.095  0.00  0.00    +0.033 A 
ATOM      4  C   UNL     1       0.004   0.004   0.116  0.00  0.00    +0.067 A 
ATOM      5  N   UNL     1       1.242  -0.396   0.161  0.00  0.00    -0.170 NA
ATOM      6  C   UNL     1      -1.208  -0.880   0.264  0.00  0.00    +0.068 C 
ATOM      7  C   UNL     1      -1.300   2.164  -0.203  0.00  0.00    +0.112 C 
ATOM      8  S   UNL     1      -1.210   3.545  -1.343  0.00  0.00    -0.138 S 
ATOM      9  C   UNL     1      -0.081   4.732  -0.601  0.00  0.00    +0.166 C 
ATOM     10  C   UNL     1       1.319   4.260  -0.579  0.00  0.00    +0.228 C 
ATOM     11  O   UNL     1       2.150   5.116  -0.800  0.00  0.00    -0.275 OA
ATOM     12  N   UNL     1       1.802   3.074  -0.361  0.00  0.00    -0.269 N 
ATOM     13  H   UNL     1       2.894   3.209  -0.340  0.00  0.00    +0.156 HD
ENDROOT
BRANCH   1  17
ATOM     14  C   UNL     1       6.233   0.692  -0.070  0.00  0.00    -0.047 A 
ATOM     15  C   UNL     1       5.557   1.673   0.632  0.00  0.00    +0.006 A 
ATOM     16  C   UNL     1       4.176   1.685   0.651  0.00  0.00    +0.028 A 
ATOM     17  C   UNL     1       3.466   0.709  -0.035  0.00  0.00    +0.067 A 
ATOM     18  C   UNL     1       4.147  -0.279  -0.735  0.00  0.00    +0.028 A 
ATOM     19  C   UNL     1       5.528  -0.281  -0.754  0.00  0.00    +0.006 A 
BRANCH  14  21
ATOM     20  C   UNL     1       8.259  -0.155   1.081  0.00  0.00    +0.009 C 
ATOM     21  C   UNL     1       7.739   0.683  -0.089  0.00  0.00    +0.032 C 
ENDBRANCH  14  21
ENDBRANCH   1  17
BRANCH   7  22
ATOM     22  C   UNL     1      -2.386   1.227  -0.664  0.00  0.00    -0.026 A 
ATOM     23  C   UNL     1      -2.270   0.582  -1.881  0.00  0.00    +0.009 A 
ATOM     24  C   UNL     1      -3.261  -0.283  -2.305  0.00  0.00    +0.050 A 
ATOM     25  C   UNL     1      -4.379  -0.497  -1.515  0.00  0.00    +0.163 A 
ATOM     26  C   UNL     1      -4.498   0.156  -0.293  0.00  0.00    +0.162 A 
ATOM     27  C   UNL     1      -3.499   1.018   0.130  0.00  0.00    +0.054 A 
BRANCH  26  28
ATOM     28  O   UNL     1      -5.594  -0.051   0.487  0.00  0.00    -0.489 OA
BRANCH  28  29
ATOM     29  C   UNL     1      -5.648   0.653   1.729  0.00  0.00    +0.226 C 
ATOM     30  C   UNL     1      -6.944   0.296   2.461  0.00  0.00    +0.048 C 
ENDBRANCH  28  29
ENDBRANCH  26  28
BRANCH  25  31
ATOM     31  O   UNL     1      -5.358  -1.344  -1.934  0.00  0.00    -0.479 OA
BRANCH  31  32
ATOM     32  C   UNL     1      -5.168  -1.980  -3.200  0.00  0.00    +0.324 C 
BRANCH  32  33
ATOM     33  C   UNL     1      -6.345  -2.873  -3.494  0.00  0.00    +0.248 C 
ATOM     34  O   UNL     1      -7.256  -2.958  -2.699  0.00  0.00    -0.272 OA
ATOM     35  N   UNL     1      -6.384  -3.579  -4.642  0.00  0.00    -0.327 N 
ATOM     36  H   UNL     1      -7.243  -4.231  -4.857  0.00  0.00    +0.145 HD
ATOM     37  H   UNL     1      -5.557  -3.503  -5.363  0.00  0.00    +0.145 HD
ENDBRANCH  32  33
ENDBRANCH  31  32
ENDBRANCH  25  31
ENDBRANCH   7  22
TORSDOF 8
