REMARK  Name = ZINC34830358
REMARK  11 active torsions:
REMARK  status: ('A' for Active; 'I' for Inactive)
REMARK    1  A    between atoms: C_1  and  C_2
REMARK    2  A    between atoms: C_2  and  C_3
REMARK    3  A    between atoms: C_3  and  C_4
REMARK    4  A    between atoms: C_4  and  C_5
REMARK    5  A    between atoms: C_5  and  C_6
REMARK    6  A    between atoms: C_6  and  C_7
REMARK    7  A    between atoms: C_15  and  C_17
REMARK    8  A    between atoms: C_17  and  C_19
REMARK    9  A    between atoms: C_17  and  N_20
REMARK   10  A    between atoms: C_28  and  C_30
REMARK   11  A    between atoms: C_35  and  C_36
REMARK                            x       y       z     vdW  Elec       q    Type
REMARK                         _______ _______ _______ _____ _____    ______ ____
ROOT
ATOM      1  C   UNL     1       2.375 -10.329  -6.500  0.00  0.00    +0.018 C 
ATOM      2  C   UNL     1       3.888 -10.110  -6.560  0.00  0.00    -0.004 C 
ENDROOT
BRANCH   1  11
ATOM      3  C   UNL     1       1.996  -7.058  -1.267  0.00  0.00    +0.216 C 
ATOM      4  O   UNL     1       2.114  -5.889  -1.568  0.00  0.00    -0.276 OA
ATOM      5  N   UNL     1       2.287  -8.018  -2.168  0.00  0.00    -0.298 N 
ATOM      6  C   UNL     1       2.144  -9.438  -1.820  0.00  0.00    +0.126 C 
ATOM      7  C   UNL     1       1.222 -10.104  -2.848  0.00  0.00    +0.126 C 
ATOM      8  N   UNL     1       1.687  -9.749  -4.196  0.00  0.00    -0.300 N 
ATOM      9  C   UNL     1       1.830  -8.328  -4.544  0.00  0.00    +0.126 C 
ATOM     10  C   UNL     1       2.747  -7.662  -3.518  0.00  0.00    +0.126 C 
ATOM     11  C   UNL     1       1.978 -10.708  -5.097  0.00  0.00    +0.202 C 
ATOM     12  O   UNL     1       1.919 -11.877  -4.778  0.00  0.00    -0.277 OA
BRANCH   3  13
ATOM     13  C   UNL     1       1.526  -7.438   0.113  0.00  0.00    +0.096 C 
BRANCH  13  14
ATOM     14  C   UNL     1       1.267  -6.171   0.930  0.00  0.00    +0.009 C 
BRANCH  14  15
ATOM     15  C   UNL     1       0.789  -6.557   2.332  0.00  0.00    +0.000 C 
BRANCH  15  16
ATOM     16  C   UNL     1       0.531  -5.289   3.149  0.00  0.00    -0.000 C 
BRANCH  16  18
ATOM     17  C   UNL     1      -0.205  -4.408   5.368  0.00  0.00    +0.004 C 
ATOM     18  C   UNL     1       0.053  -5.675   4.551  0.00  0.00    -0.003 C 
ENDBRANCH  16  18
ENDBRANCH  15  16
ENDBRANCH  14  15
ENDBRANCH  13  14
ENDBRANCH   3  13
ENDBRANCH   1  11
BRANCH   1  19
ATOM     19  N   UNL     1       2.000 -11.408  -7.424  0.00  0.00    +0.395 N 
ATOM     20  C   UNL     1       2.792 -12.606  -7.116  0.00  0.00    -0.071 C 
ATOM     21  C   UNL     1       2.645 -13.610  -8.273  0.00  0.00    +0.024 C 
ATOM     22  C   UNL     1       1.191 -13.713  -8.597  0.00  0.00    -0.010 A 
ATOM     23  C   UNL     1       0.206 -12.870  -8.175  0.00  0.00    -0.047 A 
ATOM     24  C   UNL     1      -1.087 -13.164  -8.599  0.00  0.00    +0.010 A 
ATOM     25  C   UNL     1      -1.312 -14.238  -9.392  0.00  0.00    +0.045 A 
ATOM     26  S   UNL     1       0.334 -14.906  -9.584  0.00  0.00    -0.101 S 
ATOM     27  C   UNL     1       0.564 -11.682  -7.287  0.00  0.00    -0.005 C 
ATOM     28  H   UNL     1       2.193 -11.116  -8.370  0.00  0.00    -0.079 HD
BRANCH  27  29
ATOM     29  C   UNL     1      -0.225 -10.473  -7.719  0.00  0.00    -0.054 A 
ATOM     30  C   UNL     1       0.296  -9.609  -8.663  0.00  0.00    +0.002 A 
ATOM     31  C   UNL     1      -0.428  -8.500  -9.059  0.00  0.00    +0.000 A 
ATOM     32  C   UNL     1      -1.673  -8.255  -8.510  0.00  0.00    +0.000 A 
ATOM     33  C   UNL     1      -2.194  -9.120  -7.566  0.00  0.00    +0.003 A 
ATOM     34  C   UNL     1      -1.472 -10.232  -7.174  0.00  0.00    -0.049 A 
ATOM     35  C   UNL     1      -2.043 -11.178  -6.149  0.00  0.00    +0.044 C 
ENDBRANCH  27  29
ENDBRANCH   1  19
TORSDOF 8
