REMARK  Name = ZINC35466054
REMARK  16 active torsions:
REMARK  status: ('A' for Active; 'I' for Inactive)
REMARK    1  A    between atoms: C_1  and  C_2
REMARK    2  A    between atoms: C_3  and  C_4
REMARK    3  A    between atoms: C_5  and  C_6
REMARK    4  A    between atoms: C_7  and  C_8
REMARK    5  A    between atoms: C_8  and  O_10
REMARK    6  A    between atoms: O_10  and  C_11
REMARK    7  A    between atoms: C_13  and  O_41
REMARK    8  A    between atoms: N_19  and  C_21
REMARK    9  A    between atoms: C_21  and  C_23
REMARK   10  A    between atoms: C_21  and  C_28
REMARK   11  A    between atoms: C_23  and  C_24
REMARK   12  A    between atoms: C_24  and  C_25
REMARK   13  A    between atoms: C_31  and  C_40
REMARK   14  A    between atoms: C_34  and  C_38
REMARK   15  A    between atoms: C_34  and  C_39
REMARK   16  A    between atoms: O_41  and  C_42
REMARK                            x       y       z     vdW  Elec       q    Type
REMARK                         _______ _______ _______ _____ _____    ______ ____
ROOT
ATOM      1  C   UNL     1       2.529  -8.662   3.714  0.00  0.00    +0.214 C 
ATOM      2  C   UNL     1       3.793  -9.053   2.924  0.00  0.00    +0.187 C 
ATOM      3  C   UNL     1       4.116 -10.502   3.162  0.00  0.00    -0.012 C 
ATOM      4  C   UNL     1       3.531 -11.292   4.064  0.00  0.00    +0.024 C 
ATOM      5  C   UNL     1       4.109 -12.632   4.000  0.00  0.00    +0.244 C 
ATOM      6  O   UNL     1       3.784 -13.575   4.696  0.00  0.00    -0.270 OA
ATOM      7  N   UNL     1       5.062 -12.677   3.047  0.00  0.00    -0.280 N 
ATOM      8  C   UNL     1       5.146 -11.338   2.446  0.00  0.00    +0.143 C 
ATOM      9  C   UNL     1       2.428 -10.798   4.981  0.00  0.00    +0.005 C 
ATOM     10  C   UNL     1       2.607  -9.286   5.103  0.00  0.00    +0.049 C 
ATOM     11  C   UNL     1       1.742  -8.626   6.150  0.00  0.00    -0.028 C 
ATOM     12  C   UNL     1       1.710  -9.406   7.468  0.00  0.00    +0.007 C 
ATOM     13  C   UNL     1       1.473 -10.895   7.273  0.00  0.00    +0.001 C 
ATOM     14  C   UNL     1       2.544 -11.470   6.344  0.00  0.00    +0.012 C 
ATOM     15  C   UNL     1       2.351  -7.247   6.510  0.00  0.00    +0.011 C 
ATOM     16  C   UNL     1       0.314  -8.382   5.660  0.00  0.00    +0.011 C 
ATOM     17  C   UNL     1       1.095 -11.182   4.339  0.00  0.00    +0.017 C 
ENDROOT
BRANCH   2  18
ATOM     18  O   UNL     1       3.561  -8.836   1.530  0.00  0.00    -0.372 OA
ATOM     19  C   UNL     1       4.737  -8.502   0.791  0.00  0.00    +0.195 C 
ENDBRANCH   2  18
BRANCH   1  20
ATOM     20  O   UNL     1       2.473  -7.235   3.767  0.00  0.00    -0.455 OA
BRANCH  20  21
ATOM     21  C   UNL     1       1.862  -6.607   2.741  0.00  0.00    +0.332 C 
ATOM     22  O   UNL     1       1.389  -7.255   1.825  0.00  0.00    -0.246 OA
BRANCH  21  24
ATOM     23  C   UNL     1       1.155  -4.563   1.696  0.00  0.00    +0.007 C 
ATOM     24  C   UNL     1       1.770  -5.196   2.729  0.00  0.00    +0.091 C 
BRANCH  23  26
ATOM     25  C   UNL     1       0.449  -2.526   0.653  0.00  0.00    -0.000 C 
ATOM     26  C   UNL     1       1.063  -3.157   1.685  0.00  0.00    +0.000 C 
BRANCH  25  29
ATOM     27  C   UNL     1      -0.348   1.058  -0.387  0.00  0.00    +0.035 C 
ATOM     28  C   UNL     1      -0.251  -0.445  -0.374  0.00  0.00    -0.030 C 
ATOM     29  C   UNL     1       0.354  -1.067   0.641  0.00  0.00    -0.005 C 
ENDBRANCH  25  29
ENDBRANCH  23  26
ENDBRANCH  21  24
ENDBRANCH  20  21
ENDBRANCH   1  20
BRANCH   7  30
ATOM     30  C   UNL     1       5.865 -13.845   2.680  0.00  0.00    +0.190 C 
BRANCH  30  31
ATOM     31  C   UNL     1       4.956 -14.952   2.212  0.00  0.00    +0.376 C 
ATOM     32  O   UNL     1       3.749 -14.781   2.188  0.00  0.00    -0.244 OA
ATOM     33  O   UNL     1       5.428 -16.019   1.857  0.00  0.00    -0.244 OA
ENDBRANCH  30  31
BRANCH  30  34
ATOM     34  C   UNL     1       6.662 -14.319   3.896  0.00  0.00    +0.045 C 
BRANCH  34  35
ATOM     35  C   UNL     1       7.673 -13.243   4.295  0.00  0.00    +0.127 C 
BRANCH  35  36
ATOM     36  C   UNL     1       8.459 -13.710   5.494  0.00  0.00    +0.356 C 
ATOM     37  O   UNL     1       8.231 -14.803   5.983  0.00  0.00    -0.246 OA
ATOM     38  O   UNL     1       9.322 -12.995   5.973  0.00  0.00    -0.246 OA
ENDBRANCH  35  36
ENDBRANCH  34  35
ENDBRANCH  30  34
ENDBRANCH   7  30
TORSDOF 11
