REMARK  Name = ZINC36302745
REMARK  17 active torsions:
REMARK  status: ('A' for Active; 'I' for Inactive)
REMARK    1  A    between atoms: C_1  and  C_2
REMARK    2  A    between atoms: C_2  and  C_3
REMARK    3  A    between atoms: C_4  and  C_23
REMARK    4  A    between atoms: C_5  and  O_14
REMARK    5  A    between atoms: N_6  and  C_8
REMARK    6  A    between atoms: O_14  and  C_15
REMARK    7  A    between atoms: C_20  and  O_21
REMARK    8  A    between atoms: O_21  and  C_22
REMARK    9  A    between atoms: C_23  and  N_24
REMARK   10  A    between atoms: N_24  and  C_25
REMARK   11  A    between atoms: N_24  and  C_38
REMARK   12  A    between atoms: C_25  and  C_26
REMARK   13  A    between atoms: C_26  and  C_28
REMARK   14  A    between atoms: C_26  and  O_37
REMARK   15  A    between atoms: C_28  and  O_29
REMARK   16  A    between atoms: O_29  and  C_30
REMARK   17  A    between atoms: C_30  and  C_31
REMARK                            x       y       z     vdW  Elec       q    Type
REMARK                         _______ _______ _______ _____ _____    ______ ____
ROOT
ATOM      1  C   UNL     1       0.184  -2.006  -1.175  0.00  0.00    +0.068 A 
ATOM      2  C   UNL     1      -0.282  -1.870  -2.486  0.00  0.00    +0.021 A 
ATOM      3  C   UNL     1       0.796  -1.864  -3.314  0.00  0.00    +0.225 A 
ATOM      4  N   UNL     1       1.907  -1.994  -2.540  0.00  0.00    -0.200 N 
ATOM      5  N   UNL     1       1.491  -2.075  -1.205  0.00  0.00    -0.168 NA
ENDROOT
BRANCH   4   6
ATOM      6  C   UNL     1       3.232  -2.034  -2.996  0.00  0.00    +0.069 A 
ATOM      7  C   UNL     1       3.554  -2.761  -4.134  0.00  0.00    +0.028 A 
ATOM      8  C   UNL     1       4.860  -2.798  -4.581  0.00  0.00    +0.002 A 
ATOM      9  C   UNL     1       5.847  -2.113  -3.896  0.00  0.00    +0.000 A 
ATOM     10  C   UNL     1       5.529  -1.389  -2.762  0.00  0.00    +0.002 A 
ATOM     11  C   UNL     1       4.224  -1.343  -2.313  0.00  0.00    +0.028 A 
ENDBRANCH   4   6
BRANCH   1  13
ATOM     12  C   UNL     1      -0.884  -0.641   0.598  0.00  0.00    +0.010 C 
ATOM     13  C   UNL     1      -0.673  -2.059   0.064  0.00  0.00    +0.054 C 
ENDBRANCH   1  13
BRANCH   3  14
ATOM     14  O   UNL     1       0.770  -1.750  -4.667  0.00  0.00    -0.434 OA
BRANCH  14  15
ATOM     15  C   UNL     1       0.593  -2.882  -5.399  0.00  0.00    +0.172 A 
ATOM     16  C   UNL     1       0.389  -4.096  -4.763  0.00  0.00    +0.050 A 
ATOM     17  C   UNL     1       0.210  -5.246  -5.510  0.00  0.00    +0.004 A 
ATOM     18  C   UNL     1       0.233  -5.188  -6.891  0.00  0.00    +0.004 A 
ATOM     19  C   UNL     1       0.436  -3.980  -7.532  0.00  0.00    +0.049 A 
ATOM     20  C   UNL     1       0.612  -2.822  -6.790  0.00  0.00    +0.162 A 
BRANCH  20  21
ATOM     21  O   UNL     1       0.806  -1.633  -7.418  0.00  0.00    -0.491 OA
ATOM     22  C   UNL     1       0.812  -1.647  -8.847  0.00  0.00    +0.277 C 
ENDBRANCH  20  21
ENDBRANCH  14  15
ENDBRANCH   3  14
BRANCH   2  23
ATOM     23  C   UNL     1      -1.724  -1.751  -2.907  0.00  0.00    -0.035 C 
BRANCH  23  24
ATOM     24  N   UNL     1      -2.113  -0.335  -2.929  0.00  0.00    +0.386 N 
ATOM     25  H   UNL     1      -1.921   0.081  -2.030  0.00  0.00    -0.081 HD
BRANCH  24  26
ATOM     26  C   UNL     1      -1.346   0.368  -3.967  0.00  0.00    -0.068 C 
ATOM     27  C   UNL     1      -0.248   1.328  -3.505  0.00  0.00    -0.017 C 
ATOM     28  C   UNL     1      -1.548   1.879  -4.093  0.00  0.00    -0.017 C 
ENDBRANCH  24  26
BRANCH  24  29
ATOM     29  C   UNL     1      -3.548  -0.225  -3.222  0.00  0.00    -0.044 C 
BRANCH  29  30
ATOM     30  C   UNL     1      -3.854  -0.934  -4.543  0.00  0.00    +0.124 C 
BRANCH  30  31
ATOM     31  O   UNL     1      -3.235  -0.226  -5.618  0.00  0.00    -0.391 OA
ATOM     32  H   UNL     1      -3.532   0.689  -5.710  0.00  0.00    +0.210 HD
ENDBRANCH  30  31
BRANCH  30  33
ATOM     33  C   UNL     1      -5.368  -0.972  -4.762  0.00  0.00    +0.189 C 
BRANCH  33  34
ATOM     34  O   UNL     1      -5.660  -1.734  -5.935  0.00  0.00    -0.373 OA
BRANCH  34  35
ATOM     35  C   UNL     1      -7.055  -1.832  -6.232  0.00  0.00    +0.195 C 
BRANCH  35  36
ATOM     36  C   UNL     1      -7.246  -2.653  -7.481  0.00  0.00    -0.022 A 
ATOM     37  C   UNL     1      -7.256  -2.037  -8.718  0.00  0.00    +0.006 A 
ATOM     38  C   UNL     1      -7.432  -2.790  -9.864  0.00  0.00    +0.000 A 
ATOM     39  C   UNL     1      -7.596  -4.160  -9.773  0.00  0.00    +0.000 A 
ATOM     40  C   UNL     1      -7.585  -4.776  -8.536  0.00  0.00    +0.000 A 
ATOM     41  C   UNL     1      -7.405  -4.024  -7.390  0.00  0.00    +0.006 A 
ENDBRANCH  35  36
ENDBRANCH  34  35
ENDBRANCH  33  34
ENDBRANCH  30  33
ENDBRANCH  29  30
ENDBRANCH  24  29
ENDBRANCH  23  24
ENDBRANCH   2  23
TORSDOF 15
