REMARK  Name = ZINC36597685
REMARK  15 active torsions:
REMARK  status: ('A' for Active; 'I' for Inactive)
REMARK    1  A    between atoms: C_1  and  C_2
REMARK    2  A    between atoms: C_5  and  C_7
REMARK    3  A    between atoms: C_7  and  N_8
REMARK    4  A    between atoms: N_8  and  C_9
REMARK    5  A    between atoms: C_9  and  C_11
REMARK    6  A    between atoms: C_9  and  C_24
REMARK    7  A    between atoms: C_11  and  C_12
REMARK    8  A    between atoms: C_11  and  C_18
REMARK    9  A    between atoms: N_26  and  C_27
REMARK   10  A    between atoms: C_27  and  C_28
REMARK   11  A    between atoms: C_27  and  C_29
REMARK   12  A    between atoms: C_27  and  C_30
REMARK   13  A    between atoms: C_31  and  C_33
REMARK   14  A    between atoms: C_37  and  O_40
REMARK   15  A    between atoms: C_38  and  O_39
REMARK                            x       y       z     vdW  Elec       q    Type
REMARK                         _______ _______ _______ _____ _____    ______ ____
ROOT
ATOM      1  C   UNL     1       3.754  -3.227  -3.245  0.00  0.00    +0.174 C 
ENDROOT
BRANCH   1   2
ATOM      2  C   UNL     1       4.754  -4.210  -3.798  0.00  0.00    +0.235 C 
ATOM      3  O   UNL     1       4.512  -5.398  -3.778  0.00  0.00    -0.274 OA
ATOM      4  N   UNL     1       5.918  -3.768  -4.315  0.00  0.00    -0.309 N 
ATOM      5  H   UNL     1       6.112  -2.817  -4.331  0.00  0.00    +0.149 HD
BRANCH   4   6
ATOM      6  C   UNL     1       6.891  -4.722  -4.852  0.00  0.00    +0.026 C 
ATOM      7  C   UNL     1       6.253  -5.510  -5.998  0.00  0.00    +0.031 C 
ATOM      8  C   UNL     1       8.114  -3.966  -5.372  0.00  0.00    +0.031 C 
ATOM      9  C   UNL     1       7.320  -5.689  -3.747  0.00  0.00    +0.031 C 
ENDBRANCH   4   6
ENDBRANCH   1   2
BRANCH   1  10
ATOM     10  N   UNL     1       2.582  -3.952  -2.748  0.00  0.00    -0.278 N 
ATOM     11  C   UNL     1       2.743  -5.034  -1.960  0.00  0.00    +0.251 C 
ATOM     12  O   UNL     1       1.771  -5.641  -1.554  0.00  0.00    -0.270 OA
BRANCH  11  13
ATOM     13  C   UNL     1       4.099  -5.483  -1.592  0.00  0.00    +0.082 A 
ATOM     14  C   UNL     1       5.179  -4.598  -1.675  0.00  0.00    +0.017 A 
ATOM     15  C   UNL     1       6.444  -5.020  -1.329  0.00  0.00    +0.005 A 
ATOM     16  C   UNL     1       6.654  -6.320  -0.898  0.00  0.00    +0.049 A 
ATOM     17  C   UNL     1       5.596  -7.208  -0.810  0.00  0.00    +0.159 A 
ATOM     18  C   UNL     1       4.311  -6.794  -1.151  0.00  0.00    +0.171 A 
BRANCH  18  19
ATOM     19  O   UNL     1       3.269  -7.660  -1.060  0.00  0.00    -0.503 OA
ATOM     20  H   UNL     1       3.109  -8.168  -1.868  0.00  0.00    +0.292 HD
ENDBRANCH  18  19
BRANCH  17  21
ATOM     21  O   UNL     1       5.810  -8.482  -0.387  0.00  0.00    -0.503 OA
ATOM     22  H   UNL     1       5.729  -8.597   0.570  0.00  0.00    +0.292 HD
ENDBRANCH  17  21
ENDBRANCH  11  13
BRANCH  10  23
ATOM     23  C   UNL     1       1.235  -3.500  -3.105  0.00  0.00    +0.183 C 
BRANCH  23  28
ATOM     24  C   UNL     1       0.434  -4.934  -7.874  0.00  0.00    +0.086 C 
ATOM     25  C   UNL     1       0.393  -4.907  -6.368  0.00  0.00    +0.102 A 
ATOM     26  C   UNL     1      -0.249  -5.790  -5.582  0.00  0.00    +0.045 A 
ATOM     27  C   UNL     1      -0.025  -5.388  -4.246  0.00  0.00    +0.046 A 
ATOM     28  C   UNL     1       0.742  -4.284  -4.294  0.00  0.00    +0.122 A 
ATOM     29  O   UNL     1       0.996  -4.000  -5.582  0.00  0.00    -0.463 OA
ENDBRANCH  23  28
ENDBRANCH  10  23
ENDBRANCH   1  10
BRANCH   1  30
ATOM     30  C   UNL     1       3.324  -2.261  -4.351  0.00  0.00    +0.078 C 
BRANCH  30  31
ATOM     31  C   UNL     1       2.670  -1.051  -3.734  0.00  0.00    -0.038 A 
ATOM     32  C   UNL     1       1.601  -0.445  -4.367  0.00  0.00    +0.004 A 
ATOM     33  C   UNL     1       1.001   0.664  -3.802  0.00  0.00    +0.000 A 
ATOM     34  C   UNL     1       1.469   1.167  -2.602  0.00  0.00    +0.000 A 
ATOM     35  C   UNL     1       2.538   0.560  -1.968  0.00  0.00    +0.000 A 
ATOM     36  C   UNL     1       3.135  -0.551  -2.532  0.00  0.00    +0.004 A 
ENDBRANCH  30  31
BRANCH  30  37
ATOM     37  C   UNL     1       4.534  -1.830  -5.140  0.00  0.00    -0.038 A 
ATOM     38  C   UNL     1       5.433  -0.934  -4.593  0.00  0.00    +0.004 A 
ATOM     39  C   UNL     1       6.542  -0.539  -5.316  0.00  0.00    +0.000 A 
ATOM     40  C   UNL     1       6.753  -1.040  -6.587  0.00  0.00    +0.000 A 
ATOM     41  C   UNL     1       5.854  -1.937  -7.134  0.00  0.00    +0.000 A 
ATOM     42  C   UNL     1       4.747  -2.335  -6.409  0.00  0.00    +0.004 A 
ENDBRANCH  30  37
ENDBRANCH   1  30
TORSDOF 11
