REMARK  Name = ZINC35640005
REMARK  6 active torsions:
REMARK  status: ('A' for Active; 'I' for Inactive)
REMARK    1  A    between atoms: C_1  and  C_2
REMARK    2  A    between atoms: C_7  and  C_8
REMARK    3  A    between atoms: C_11  and  C_27
REMARK    4  A    between atoms: C_21  and  C_23
REMARK    5  A    between atoms: N_29  and  C_30
REMARK    6  A    between atoms: C_30  and  C_31
REMARK                            x       y       z     vdW  Elec       q    Type
REMARK                         _______ _______ _______ _____ _____    ______ ____
ROOT
ATOM      1  C   UNL     1       1.022  -0.204   1.943  0.00  0.00    +0.250 C 
ATOM      2  O   UNL     1       1.137   0.955   1.597  0.00  0.00    -0.270 OA
ATOM      3  N   UNL     1       0.790  -0.501   3.237  0.00  0.00    -0.255 N 
ATOM      4  C   UNL     1       0.611  -1.849   3.823  0.00  0.00    +0.190 C 
ATOM      5  C   UNL     1      -0.143  -1.551   5.143  0.00  0.00    +0.194 C 
ATOM      6  O   UNL     1       0.448  -0.299   5.561  0.00  0.00    -0.353 OA
ATOM      7  C   UNL     1       0.670   0.448   4.355  0.00  0.00    +0.142 C 
ATOM      8  C   UNL     1      -0.515   1.383   4.110  0.00  0.00    +0.074 C 
ATOM      9  C   UNL     1      -0.292   2.154   2.805  0.00  0.00    +0.112 C 
ATOM     10  N   UNL     1       1.012   2.828   2.872  0.00  0.00    -0.301 N 
ATOM     11  C   UNL     1       2.206   2.029   3.180  0.00  0.00    +0.112 C 
ATOM     12  C   UNL     1       1.960   1.259   4.482  0.00  0.00    +0.074 C 
ATOM     13  C   UNL     1       1.111   4.154   2.653  0.00  0.00    +0.219 C 
ATOM     14  O   UNL     1       0.118   4.803   2.400  0.00  0.00    -0.275 OA
ENDROOT
BRANCH   1  21
ATOM     15  C   UNL     1      -0.450  -0.020  -0.541  0.00  0.00    +0.044 C 
ATOM     16  C   UNL     1       0.430  -1.211  -0.257  0.00  0.00    -0.038 A 
ATOM     17  C   UNL     1       0.545  -2.223  -1.188  0.00  0.00    +0.004 A 
ATOM     18  C   UNL     1       1.352  -3.317  -0.928  0.00  0.00    +0.000 A 
ATOM     19  C   UNL     1       2.049  -3.402   0.264  0.00  0.00    +0.001 A 
ATOM     20  C   UNL     1       1.943  -2.397   1.202  0.00  0.00    +0.013 A 
ATOM     21  C   UNL     1       1.135  -1.288   0.945  0.00  0.00    +0.040 A 
ENDBRANCH   1  21
BRANCH  13  22
ATOM     22  C   UNL     1       2.456   4.831   2.724  0.00  0.00    +0.075 C 
ATOM     23  C   UNL     1       2.892   5.185   4.156  0.00  0.00    +0.013 C 
ATOM     24  C   UNL     1       3.430   6.506   3.581  0.00  0.00    +0.001 C 
ATOM     25  C   UNL     1       2.399   6.344   2.452  0.00  0.00    +0.013 C 
ENDBRANCH  13  22
BRANCH   4  26
ATOM     26  C   UNL     1      -0.217  -2.720   2.914  0.00  0.00    +0.236 C 
ATOM     27  O   UNL     1      -1.053  -2.220   2.191  0.00  0.00    -0.274 OA
ATOM     28  N   UNL     1      -0.030  -4.055   2.905  0.00  0.00    -0.307 N 
ATOM     29  H   UNL     1       0.638  -4.454   3.483  0.00  0.00    +0.149 HD
BRANCH  28  30
ATOM     30  C   UNL     1      -0.836  -4.902   2.022  0.00  0.00    +0.178 C 
BRANCH  30  31
ATOM     31  C   UNL     1      -0.432  -6.342   2.203  0.00  0.00    +0.122 A 
ATOM     32  C   UNL     1      -0.973  -7.206   3.081  0.00  0.00    +0.046 A 
ATOM     33  C   UNL     1      -0.300  -8.438   2.911  0.00  0.00    +0.041 A 
ATOM     34  C   UNL     1       0.612  -8.253   1.940  0.00  0.00    +0.195 A 
ATOM     35  O   UNL     1       0.523  -6.983   1.510  0.00  0.00    -0.466 OA
ENDBRANCH  30  31
ENDBRANCH  28  30
ENDBRANCH   4  26
TORSDOF 5
