REMARK  Name = ZINC14962669
REMARK  6 active torsions:
REMARK  status: ('A' for Active; 'I' for Inactive)
REMARK    1  A    between atoms: C_1  and  S_2
REMARK    2  A    between atoms: S_2  and  C_3
REMARK    3  A    between atoms: C_7  and  N_9
REMARK    4  A    between atoms: C_10  and  C_12
REMARK    5  A    between atoms: C_15  and  N_28
REMARK    6  A    between atoms: C_18  and  N_61
REMARK                            x       y       z     vdW  Elec       q    Type
REMARK                         _______ _______ _______ _____ _____    ______ ____
ROOT
ATOM      1  C   UNL     1      -1.387   4.029  -2.471  0.00  0.00    +0.022 C 
ATOM      2  C   UNL     1      -1.296   5.321  -1.629  0.00  0.00    +0.019 C 
ATOM      3  C   UNL     1      -1.551   4.870  -0.176  0.00  0.00    +0.093 C 
ATOM      4  C   UNL     1      -1.774   3.345  -0.262  0.00  0.00    -0.050 C 
ATOM      5  N   UNL     1      -1.097   2.968  -1.500  0.00  0.00    +0.391 N 
ATOM      6  H   UNL     1      -0.085   2.904  -1.341  0.00  0.00    -0.080 HD
ENDROOT
BRANCH   5   7
ATOM      7  C   UNL     1      -1.599   1.650  -2.001  0.00  0.00    -0.061 C 
ATOM      8  C   UNL     1      -1.633   0.643  -0.849  0.00  0.00    -0.024 C 
ATOM      9  C   UNL     1      -0.219   0.450  -0.299  0.00  0.00    +0.005 C 
ATOM     10  C   UNL     1       0.693  -0.076  -1.409  0.00  0.00    -0.010 C 
ATOM     11  C   UNL     1       0.157  -1.415  -1.918  0.00  0.00    +0.007 C 
ATOM     12  C   UNL     1      -1.258  -1.222  -2.469  0.00  0.00    -0.010 C 
ATOM     13  C   UNL     1      -2.170  -0.696  -1.358  0.00  0.00    +0.005 C 
ATOM     14  C   UNL     1      -1.224  -0.215  -3.620  0.00  0.00    +0.005 C 
ATOM     15  C   UNL     1      -0.687   1.124  -3.111  0.00  0.00    -0.024 C 
ATOM     16  C   UNL     1       0.727   0.931  -2.561  0.00  0.00    +0.005 C 
ENDBRANCH   5   7
BRANCH   3  17
ATOM     17  N   UNL     1      -0.387   5.170   0.661  0.00  0.00    -0.231 N 
ATOM     18  C   UNL     1       0.902   5.145   0.276  0.00  0.00    +0.245 A 
ATOM     19  N   UNL     1       1.615   5.475   1.325  0.00  0.00    -0.117 NA
ATOM     20  N   UNL     1       0.805   5.691   2.304  0.00  0.00    -0.023 NA
ATOM     21  N   UNL     1      -0.406   5.514   1.905  0.00  0.00    -0.044 NA
ENDBRANCH   3  17
BRANCH   1  23
ATOM     22  N   UNL     1      -0.678   4.604  -4.770  0.00  0.00    -0.287 N 
ATOM     23  C   UNL     1      -0.367   4.053  -3.580  0.00  0.00    +0.204 C 
ATOM     24  O   UNL     1       0.734   3.576  -3.402  0.00  0.00    -0.277 OA
ATOM     25  H   UNL     1      -1.533   5.046  -4.891  0.00  0.00    +0.155 HD
BRANCH  22  30
ATOM     26  C   UNL     1       2.493   4.553  -6.639  0.00  0.00    +0.009 A 
ATOM     27  C   UNL     1       2.026   4.404  -7.941  0.00  0.00    +0.015 A 
ATOM     28  C   UNL     1       0.668   4.323  -8.183  0.00  0.00    +0.003 A 
ATOM     29  C   UNL     1      -0.229   4.384  -7.133  0.00  0.00    +0.023 A 
ATOM     30  C   UNL     1       0.231   4.538  -5.832  0.00  0.00    +0.034 A 
ATOM     31  C   UNL     1       1.594   4.619  -5.584  0.00  0.00    +0.038 A 
BRANCH  26  33
ATOM     32  C   UNL     1       4.973   4.525  -7.979  0.00  0.00    +0.090 C 
ATOM     33  S   UNL     1       4.225   4.657  -6.331  0.00  0.00    -0.129 S 
ENDBRANCH  26  33
ENDBRANCH  22  30
ENDBRANCH   1  23
TORSDOF 5
