REMARK  Name = ZINC02229598
REMARK  7 active torsions:
REMARK  status: ('A' for Active; 'I' for Inactive)
REMARK    1  A    between atoms: C_1  and  C_2
REMARK    2  A    between atoms: C_7  and  C_8
REMARK    3  A    between atoms: C_17  and  C_19
REMARK    4  A    between atoms: C_19  and  C_20
REMARK    5  A    between atoms: C_19  and  C_21
REMARK    6  A    between atoms: N_24  and  C_27
REMARK    7  A    between atoms: C_27  and  C_28
REMARK                            x       y       z     vdW  Elec       q    Type
REMARK                         _______ _______ _______ _____ _____    ______ ____
ROOT
ATOM      1  C   UNL     1       3.094   4.186  -2.753  0.00  0.00    +0.044 C 
ATOM      2  C   UNL     1       1.647   4.221  -3.171  0.00  0.00    -0.046 A 
ATOM      3  C   UNL     1       0.764   3.279  -2.674  0.00  0.00    +0.004 A 
ATOM      4  C   UNL     1      -0.565   3.310  -3.057  0.00  0.00    +0.005 A 
ATOM      5  C   UNL     1      -1.007   4.279  -3.930  0.00  0.00    -0.027 A 
ATOM      6  C   UNL     1      -0.129   5.231  -4.437  0.00  0.00    +0.039 A 
ATOM      7  C   UNL     1       1.208   5.192  -4.046  0.00  0.00    -0.026 A 
ATOM      8  C   UNL     1       2.177   6.214  -4.582  0.00  0.00    +0.046 C 
ATOM      9  N   UNL     1      -0.803   6.101  -5.296  0.00  0.00    -0.286 N 
ATOM     10  C   UNL     1      -2.110   5.795  -5.406  0.00  0.00    +0.211 C 
ATOM     11  O   UNL     1      -2.936   6.375  -6.079  0.00  0.00    -0.277 OA
ATOM     12  C   UNL     1      -2.347   4.592  -4.534  0.00  0.00    +0.050 C 
ATOM     13  C   UNL     1      -3.397   4.881  -3.455  0.00  0.00    +0.088 C 
ATOM     14  C   UNL     1      -4.183   3.548  -3.306  0.00  0.00    +0.073 C 
ATOM     15  C   UNL     1      -3.507   2.578  -4.299  0.00  0.00    -0.055 C 
ATOM     16  C   UNL     1      -3.865   3.112  -1.894  0.00  0.00    +0.224 C 
ATOM     17  O   UNL     1      -4.285   2.109  -1.359  0.00  0.00    -0.275 OA
ATOM     18  N   UNL     1      -3.049   4.007  -1.325  0.00  0.00    -0.237 N 
ATOM     19  C   UNL     1      -2.725   5.041  -2.110  0.00  0.00    +0.225 C 
ATOM     20  O   UNL     1      -2.004   5.962  -1.793  0.00  0.00    -0.275 OA
ATOM     21  H   UNL     1      -0.380   6.841  -5.760  0.00  0.00    +0.155 HD
ATOM     22  N   UNL     1      -2.871   3.461  -5.279  0.00  0.00    +0.394 N 
ATOM     23  H   UNL     1      -2.108   2.968  -5.758  0.00  0.00    -0.083 HD
ATOM     24  H   UNL     1      -3.560   3.780  -5.970  0.00  0.00    -0.083 HD
ENDROOT
BRANCH  15  25
ATOM     25  C   UNL     1      -4.553   1.675  -4.957  0.00  0.00    -0.031 C 
ATOM     26  C   UNL     1      -3.862   0.723  -5.935  0.00  0.00    +0.005 C 
ATOM     27  C   UNL     1      -5.276   0.864  -3.880  0.00  0.00    +0.005 C 
ENDBRANCH  15  25
BRANCH  18  28
ATOM     28  C   UNL     1      -2.553   3.868   0.046  0.00  0.00    +0.151 C 
BRANCH  28  29
ATOM     29  C   UNL     1      -3.513   4.536   0.997  0.00  0.00    -0.029 A 
ATOM     30  C   UNL     1      -3.355   5.872   1.312  0.00  0.00    +0.008 A 
ATOM     31  C   UNL     1      -4.231   6.484   2.188  0.00  0.00    +0.038 A 
ATOM     32  C   UNL     1      -5.274   5.761   2.742  0.00  0.00    +0.123 A 
ATOM     33  C   UNL     1      -5.434   4.424   2.421  0.00  0.00    +0.038 A 
ATOM     34  C   UNL     1      -4.554   3.812   1.549  0.00  0.00    +0.008 A 
ATOM     35  F   UNL     1      -6.134   6.359   3.595  0.00  0.00    -0.205 F 
ENDBRANCH  28  29
ENDBRANCH  18  28
TORSDOF 3
