REMARK  Name = ZINC06469149
REMARK  6 active torsions:
REMARK  status: ('A' for Active; 'I' for Inactive)
REMARK    1  A    between atoms: C_1  and  C_2
REMARK    2  A    between atoms: C_11  and  O_25
REMARK    3  A    between atoms: C_13  and  C_16
REMARK    4  A    between atoms: C_20  and  O_23
REMARK    5  A    between atoms: C_21  and  O_22
REMARK    6  A    between atoms: O_23  and  C_24
REMARK                            x       y       z     vdW  Elec       q    Type
REMARK                         _______ _______ _______ _____ _____    ______ ____
ROOT
ATOM      1  C   UNL     1       8.319  -0.518  -4.130  0.00  0.00    +0.008 C 
ATOM      2  C   UNL     1       6.897  -0.361  -3.587  0.00  0.00    -0.009 C 
ATOM      3  C   UNL     1       6.426   1.082  -3.789  0.00  0.00    +0.008 C 
ATOM      4  C   UNL     1       5.115   1.311  -3.035  0.00  0.00    +0.037 C 
ATOM      5  C   UNL     1       4.120   0.231  -3.439  0.00  0.00    -0.023 A 
ATOM      6  C   UNL     1       4.540  -0.916  -4.023  0.00  0.00    -0.004 A 
ATOM      7  S   UNL     1       3.060  -1.849  -4.313  0.00  0.00    -0.078 S 
ATOM      8  C   UNL     1       1.919  -0.743  -3.679  0.00  0.00    +0.080 A 
ATOM      9  C   UNL     1       2.686   0.343  -3.239  0.00  0.00    +0.068 A 
ATOM     10  C   UNL     1       1.960   1.481  -2.618  0.00  0.00    +0.220 C 
ATOM     11  N   UNL     1       0.696   1.317  -2.340  0.00  0.00    -0.223 NA
ATOM     12  C   UNL     1      -0.035   0.067  -2.502  0.00  0.00    +0.227 C 
ATOM     13  N   UNL     1       0.550  -0.774  -3.562  0.00  0.00    -0.313 N 
ATOM     14  C   UNL     1       5.950  -1.301  -4.348  0.00  0.00    +0.046 C 
ATOM     15  H   UNL     1      -0.103  -1.381  -4.207  0.00  0.00    +0.149 HD
ENDROOT
BRANCH  12  16
ATOM     16  C   UNL     1      -0.006  -0.692  -1.200  0.00  0.00    +0.040 A 
ATOM     17  C   UNL     1       0.019  -2.074  -1.206  0.00  0.00    +0.011 A 
ATOM     18  C   UNL     1       0.040  -2.773  -0.014  0.00  0.00    +0.004 A 
ATOM     19  C   UNL     1       0.042  -2.093   1.190  0.00  0.00    +0.049 A 
ATOM     20  C   UNL     1       0.023  -0.708   1.203  0.00  0.00    +0.162 A 
ATOM     21  C   UNL     1       0.002  -0.004   0.002  0.00  0.00    +0.165 A 
BRANCH  21  22
ATOM     22  O   UNL     1      -0.016   1.356   0.009  0.00  0.00    -0.503 OA
ATOM     23  H   UNL     1      -0.010   1.901   0.965  0.00  0.00    +0.292 HD
ENDBRANCH  21  22
BRANCH  20  24
ATOM     24  O   UNL     1       0.025  -0.037   2.386  0.00  0.00    -0.491 OA
ATOM     25  C   UNL     1       0.048  -0.825   3.578  0.00  0.00    +0.277 C 
ENDBRANCH  20  24
ENDBRANCH  12  16
BRANCH  10  26
ATOM     26  O   UNL     1       2.590   2.648  -2.349  0.00  0.00    -0.492 OA
ATOM     27  H   UNL     1       2.034   3.479  -1.889  0.00  0.00    +0.294 HD
ENDBRANCH  10  26
TORSDOF 4
