REMARK  Name = ZINC39657039
REMARK  8 active torsions:
REMARK  status: ('A' for Active; 'I' for Inactive)
REMARK    1  A    between atoms: C_1  and  C_2
REMARK    2  A    between atoms: C_2  and  C_3
REMARK    3  A    between atoms: C_3  and  C_5
REMARK    4  A    between atoms: C_3  and  C_11
REMARK    5  A    between atoms: C_15  and  C_24
REMARK    6  A    between atoms: N_26  and  C_27
REMARK    7  A    between atoms: C_27  and  C_29
REMARK    8  A    between atoms: C_27  and  C_30
REMARK                            x       y       z     vdW  Elec       q    Type
REMARK                         _______ _______ _______ _____ _____    ______ ____
ROOT
ATOM      1  C   UNL     1       0.139  -0.044   2.301  0.00  0.00    +0.223 C 
ATOM      2  O   UNL     1      -0.087  -0.862   3.168  0.00  0.00    -0.275 OA
ATOM      3  N   UNL     1      -0.160   1.254   2.505  0.00  0.00    -0.300 N 
ATOM      4  C   UNL     1       0.120   2.402   1.611  0.00  0.00    +0.121 C 
ATOM      5  C   UNL     1      -1.138   3.293   1.714  0.00  0.00    +0.100 C 
ATOM      6  C   UNL     1      -1.764   2.932   3.072  0.00  0.00    -0.004 C 
ATOM      7  C   UNL     1      -0.848   1.855   3.672  0.00  0.00    +0.115 C 
ATOM      8  C   UNL     1      -3.168   2.370   2.873  0.00  0.00    -0.010 C 
ATOM      9  C   UNL     1      -3.792   2.072   4.240  0.00  0.00    -0.082 C 
ATOM     10  N   UNL     1      -3.843   3.305   5.035  0.00  0.00    +0.379 N 
ATOM     11  C   UNL     1      -2.483   3.788   5.300  0.00  0.00    -0.082 C 
ATOM     12  C   UNL     1      -1.804   4.158   3.979  0.00  0.00    -0.010 C 
ATOM     13  H   UNL     1      -4.356   4.010   4.528  0.00  0.00    -0.086 HD
ATOM     14  H   UNL     1      -4.309   3.119   5.911  0.00  0.00    -0.086 HD
ENDROOT
BRANCH   5  15
ATOM     15  C   UNL     1      -0.753   4.750   1.683  0.00  0.00    +0.219 C 
ATOM     16  O   UNL     1       0.339   5.097   2.082  0.00  0.00    -0.275 OA
ATOM     17  N   UNL     1      -1.621   5.666   1.210  0.00  0.00    -0.308 N 
ATOM     18  H   UNL     1      -2.493   5.388   0.891  0.00  0.00    +0.149 HD
BRANCH  17  19
ATOM     19  C   UNL     1      -1.246   7.082   1.179  0.00  0.00    +0.100 C 
ATOM     20  C   UNL     1      -0.466   7.375  -0.104  0.00  0.00    +0.033 C 
BRANCH  19  21
ATOM     21  C   UNL     1      -2.490   7.932   1.216  0.00  0.00    -0.027 A 
ATOM     22  C   UNL     1      -3.608   7.552   0.496  0.00  0.00    +0.006 A 
ATOM     23  C   UNL     1      -4.750   8.330   0.529  0.00  0.00    +0.015 A 
ATOM     24  C   UNL     1      -4.774   9.490   1.283  0.00  0.00    +0.018 A 
ATOM     25  C   UNL     1      -3.655   9.870   2.002  0.00  0.00    +0.015 A 
ATOM     26  C   UNL     1      -2.516   9.088   1.973  0.00  0.00    +0.006 A 
ATOM     27 BR   UNL     1      -6.335  10.556   1.328  0.00  0.00    -0.050 Br
ENDBRANCH  19  21
ENDBRANCH  17  19
ENDBRANCH   5  15
BRANCH   1  28
ATOM     28  C   UNL     1       0.754  -0.480   0.996  0.00  0.00    +0.105 C 
BRANCH  28  29
ATOM     29  C   UNL     1       2.255  -0.483   1.124  0.00  0.00    -0.036 A 
ATOM     30  C   UNL     1       2.867  -1.292   2.063  0.00  0.00    +0.004 A 
ATOM     31  C   UNL     1       4.245  -1.294   2.181  0.00  0.00    +0.000 A 
ATOM     32  C   UNL     1       5.010  -0.488   1.359  0.00  0.00    +0.000 A 
ATOM     33  C   UNL     1       4.398   0.321   0.420  0.00  0.00    +0.000 A 
ATOM     34  C   UNL     1       3.021   0.320   0.299  0.00  0.00    +0.004 A 
ENDBRANCH  28  29
BRANCH  28  36
ATOM     35  C   UNL     1      -1.237  -1.859   0.380  0.00  0.00    +0.005 C 
ATOM     36  C   UNL     1       0.269  -1.889   0.649  0.00  0.00    +0.014 C 
ENDBRANCH  28  36
ENDBRANCH   1  28
TORSDOF 6
