REMARK  Name = ZINC00649027
REMARK  15 active torsions:
REMARK  status: ('A' for Active; 'I' for Inactive)
REMARK    1  A    between atoms: C_1  and  C_2
REMARK    2  A    between atoms: C_2  and  O_3
REMARK    3  A    between atoms: O_3  and  C_4
REMARK    4  A    between atoms: C_4  and  C_6
REMARK    5  A    between atoms: C_7  and  C_40
REMARK    6  A    between atoms: C_11  and  C_13
REMARK    7  A    between atoms: C_15  and  O_22
REMARK    8  A    between atoms: C_16  and  O_20
REMARK    9  A    between atoms: O_20  and  C_21
REMARK   10  A    between atoms: O_22  and  C_23
REMARK   11  A    between atoms: C_27  and  C_30
REMARK   12  A    between atoms: C_33  and  O_38
REMARK   13  A    between atoms: C_34  and  O_36
REMARK   14  A    between atoms: O_36  and  C_37
REMARK   15  A    between atoms: O_38  and  C_39
REMARK                            x       y       z     vdW  Elec       q    Type
REMARK                         _______ _______ _______ _____ _____    ______ ____
ROOT
ATOM      1  C   UNL     1      -2.797  -2.416   0.161  0.00  0.00    +0.065 C 
ATOM      2  C   UNL     1      -2.943  -3.729  -0.086  0.00  0.00    +0.016 C 
ATOM      3  N   UNL     1      -4.188  -4.272  -0.234  0.00  0.00    -0.321 N 
ATOM      4  C   UNL     1      -5.265  -3.479  -0.528  0.00  0.00    +0.016 C 
ATOM      5  C   UNL     1      -5.218  -2.149  -0.303  0.00  0.00    +0.024 C 
ATOM      6  C   UNL     1      -3.987  -1.512   0.295  0.00  0.00    +0.092 C 
ATOM      7  C   UNL     1      -6.311  -1.322  -0.616  0.00  0.00    +0.162 C 
ATOM      8  O   UNL     1      -6.238  -0.129  -0.394  0.00  0.00    -0.292 OA
ATOM      9  C   UNL     1      -7.568  -1.885  -1.220  0.00  0.00    +0.088 C 
ATOM     10  C   UNL     1      -7.215  -3.139  -2.027  0.00  0.00    +0.032 C 
ATOM     11  C   UNL     1      -6.500  -4.127  -1.103  0.00  0.00    +0.059 C 
ATOM     12  C   UNL     1      -1.724  -4.609  -0.202  0.00  0.00    +0.061 C 
ATOM     13  H   UNL     1      -4.311  -5.229  -0.129  0.00  0.00    +0.152 HD
ENDROOT
BRANCH   6  14
ATOM     14  C   UNL     1      -4.230  -1.229   1.756  0.00  0.00    -0.030 A 
ATOM     15  C   UNL     1      -4.194   0.072   2.221  0.00  0.00    +0.054 A 
ATOM     16  C   UNL     1      -4.418   0.335   3.563  0.00  0.00    +0.163 A 
ATOM     17  C   UNL     1      -4.678  -0.713   4.440  0.00  0.00    +0.175 A 
ATOM     18  C   UNL     1      -4.714  -2.016   3.967  0.00  0.00    +0.063 A 
ATOM     19  C   UNL     1      -4.495  -2.270   2.625  0.00  0.00    +0.023 A 
ATOM     20 BR   UNL     1      -5.068  -3.444   5.155  0.00  0.00    -0.046 Br
BRANCH  17  21
ATOM     21  O   UNL     1      -4.898  -0.460   5.758  0.00  0.00    -0.490 OA
ATOM     22  C   UNL     1      -6.249  -0.222   6.157  0.00  0.00    +0.277 C 
ENDBRANCH  17  21
BRANCH  16  23
ATOM     23  O   UNL     1      -4.382   1.615   4.022  0.00  0.00    -0.491 OA
ATOM     24  C   UNL     1      -4.108   2.640   3.065  0.00  0.00    +0.277 C 
ENDBRANCH  16  23
ENDBRANCH   6  14
BRANCH  10  25
ATOM     25  C   UNL     1      -8.475  -3.765  -2.567  0.00  0.00    -0.040 A 
ATOM     26  C   UNL     1      -9.461  -4.191  -1.697  0.00  0.00    +0.008 A 
ATOM     27  C   UNL     1     -10.619  -4.766  -2.187  0.00  0.00    +0.049 A 
ATOM     28  C   UNL     1     -10.793  -4.915  -3.554  0.00  0.00    +0.161 A 
ATOM     29  C   UNL     1      -9.801  -4.486  -4.430  0.00  0.00    +0.162 A 
ATOM     30  C   UNL     1      -8.645  -3.906  -3.932  0.00  0.00    +0.053 A 
BRANCH  29  31
ATOM     31  O   UNL     1      -9.967  -4.631  -5.772  0.00  0.00    -0.491 OA
ATOM     32  C   UNL     1      -8.907  -4.168  -6.611  0.00  0.00    +0.277 C 
ENDBRANCH  29  31
BRANCH  28  33
ATOM     33  O   UNL     1     -11.931  -5.481  -4.038  0.00  0.00    -0.491 OA
ATOM     34  C   UNL     1     -12.906  -5.898  -3.080  0.00  0.00    +0.277 C 
ENDBRANCH  28  33
ENDBRANCH  10  25
BRANCH   1  35
ATOM     35  C   UNL     1      -1.497  -1.877   0.302  0.00  0.00    +0.338 C 
ATOM     36  O   UNL     1      -1.018  -1.203  -0.590  0.00  0.00    -0.245 OA
BRANCH  35  37
ATOM     37  O   UNL     1      -0.788  -2.111   1.426  0.00  0.00    -0.462 OA
BRANCH  37  39
ATOM     38  C   UNL     1       1.163  -1.906   2.838  0.00  0.00    +0.048 C 
ATOM     39  C   UNL     1       0.518  -1.536   1.501  0.00  0.00    +0.229 C 
ENDBRANCH  37  39
ENDBRANCH  35  37
ENDBRANCH   1  35
TORSDOF 9
