REMARK  Name = ZINC22852540
REMARK  7 active torsions:
REMARK  status: ('A' for Active; 'I' for Inactive)
REMARK    1  A    between atoms: C_1  and  C_2
REMARK    2  A    between atoms: N_5  and  C_11
REMARK    3  A    between atoms: C_7  and  C_10
REMARK    4  A    between atoms: C_11  and  C_13
REMARK    5  A    between atoms: C_11  and  C_21
REMARK    6  A    between atoms: C_22  and  O_34
REMARK    7  A    between atoms: C_27  and  C_29
REMARK                            x       y       z     vdW  Elec       q    Type
REMARK                         _______ _______ _______ _____ _____    ______ ____
ROOT
ATOM      1  C   UNL     1       8.378   0.547  -0.075  0.00  0.00    +0.131 C 
ENDROOT
BRANCH   1   5
ATOM      2  C   UNL     1      12.165  -1.453   2.349  0.00  0.00    +0.039 C 
ATOM      3  C   UNL     1      10.647  -1.464   2.159  0.00  0.00    +0.130 C 
ATOM      4  C   UNL     1      10.257  -0.432   1.098  0.00  0.00    +0.116 C 
ATOM      5  N   UNL     1       8.793  -0.393   0.975  0.00  0.00    -0.286 NA
ATOM      6  C   UNL     1       8.170  -0.053   2.262  0.00  0.00    +0.116 C 
ATOM      7  C   UNL     1       8.581  -1.089   3.311  0.00  0.00    +0.130 C 
ATOM      8  O   UNL     1      10.008  -1.135   3.395  0.00  0.00    -0.371 OA
ATOM      9  C   UNL     1       8.048  -2.466   2.907  0.00  0.00    +0.039 C 
ENDBRANCH   1   5
BRANCH   1  10
ATOM     10  C   UNL     1       8.851   0.045  -1.415  0.00  0.00    -0.007 A 
ATOM     11  C   UNL     1       9.036  -1.310  -1.619  0.00  0.00    +0.008 A 
ATOM     12  C   UNL     1       9.470  -1.772  -2.847  0.00  0.00    +0.020 A 
ATOM     13  C   UNL     1       9.719  -0.878  -3.874  0.00  0.00    +0.042 A 
ATOM     14  C   UNL     1       9.533   0.478  -3.671  0.00  0.00    +0.040 A 
ATOM     15  C   UNL     1       9.094   0.939  -2.442  0.00  0.00    +0.047 A 
ATOM     16 CL   UNL     1       8.855   2.639  -2.188  0.00  0.00    -0.083 Cl
ATOM     17 CL   UNL     1      10.264  -1.458  -5.417  0.00  0.00    -0.083 Cl
ENDBRANCH   1  10
BRANCH   1  18
ATOM     18  C   UNL     1       6.875   0.660  -0.083  0.00  0.00    +0.076 A 
ATOM     19  C   UNL     1       6.111   1.758  -0.068  0.00  0.00    +0.228 A 
ATOM     20  N   UNL     1       4.741   1.660  -0.079  0.00  0.00    -0.173 N 
ATOM     21  C   UNL     1       4.207   0.401  -0.105  0.00  0.00    +0.200 A 
ATOM     22  S   UNL     1       5.648  -0.638  -0.115  0.00  0.00    -0.047 S 
ATOM     23  N   UNL     1       2.905   0.475  -0.113  0.00  0.00    -0.197 NA
ATOM     24  C   UNL     1       2.535   1.763  -0.092  0.00  0.00    +0.218 A 
ATOM     25  N   UNL     1       3.611   2.519  -0.077  0.00  0.00    -0.138 NA
BRANCH  24  26
ATOM     26  C   UNL     1       1.141   2.254  -0.092  0.00  0.00    +0.173 A 
ATOM     27  C   UNL     1       0.023   1.482  -0.113  0.00  0.00    +0.053 A 
ATOM     28  C   UNL     1      -1.078   2.362  -0.111  0.00  0.00    +0.042 A 
ATOM     29  C   UNL     1      -0.583   3.614  -0.081  0.00  0.00    +0.196 A 
ATOM     30  O   UNL     1       0.758   3.546  -0.073  0.00  0.00    -0.460 OA
ENDBRANCH  24  26
BRANCH  19  31
ATOM     31  O   UNL     1       6.697   2.986  -0.043  0.00  0.00    -0.492 OA
ATOM     32  H   UNL     1       6.075   3.892  -0.031  0.00  0.00    +0.294 HD
ENDBRANCH  19  31
ENDBRANCH   1  18
TORSDOF 5
