REMARK  Name = ZINC65623721
REMARK  7 active torsions:
REMARK  status: ('A' for Active; 'I' for Inactive)
REMARK    1  A    between atoms: C_1  and  C_2
REMARK    2  A    between atoms: C_8  and  C_12
REMARK    3  A    between atoms: C_12  and  N_13
REMARK    4  A    between atoms: N_13  and  C_14
REMARK    5  A    between atoms: C_14  and  C_16
REMARK    6  A    between atoms: C_14  and  C_22
REMARK    7  A    between atoms: N_26  and  C_27
REMARK                            x       y       z     vdW  Elec       q    Type
REMARK                         _______ _______ _______ _____ _____    ______ ____
ROOT
ATOM      1  N   UNL     1      -0.728  -6.931   0.567  0.00  0.00    -0.303 NA
ATOM      2  H   UNL     1      -1.708  -6.787   0.378  0.00  0.00    +0.123 HD
ENDROOT
BRANCH   1   3
ATOM      3  C   UNL     1      -0.171  -5.811   1.338  0.00  0.00    +0.088 C 
BRANCH   3  11
ATOM      4  C   UNL     1      -0.018   1.503   0.010  0.00  0.00    +0.065 C 
ATOM      5  C   UNL     1       0.002  -0.004   0.002  0.00  0.00    +0.033 A 
ATOM      6  C   UNL     1       0.008  -0.817  -1.139  0.00  0.00    +0.065 A 
ATOM      7  C   UNL     1       0.028  -2.103  -0.724  0.00  0.00    +0.115 A 
ATOM      8  N   UNL     1       0.032  -2.104   0.635  0.00  0.00    -0.273 N 
ATOM      9  N   UNL     1       0.023  -0.777   1.061  0.00  0.00    -0.300 N 
ATOM     10  C   UNL     1       0.048  -3.323   1.448  0.00  0.00    +0.149 C 
ATOM     11  C   UNL     1      -0.421  -4.501   0.587  0.00  0.00    +0.041 C 
ATOM     12  C   UNL     1       0.352  -4.519  -0.736  0.00  0.00    +0.109 C 
ATOM     13  N   UNL     1       0.044  -3.280  -1.476  0.00  0.00    -0.329 N 
ATOM     14  H   UNL     1      -0.138  -3.282  -2.429  0.00  0.00    +0.147 HD
ATOM     15  H   UNL     1       0.028  -0.476   1.984  0.00  0.00    +0.187 HD
ENDBRANCH   3  11
ENDBRANCH   1   3
BRANCH   1  16
ATOM     16  C   UNL     1      -0.506  -8.207   1.259  0.00  0.00    +0.149 C 
BRANCH  16  17
ATOM     17  C   UNL     1       0.863  -8.735   0.914  0.00  0.00    +0.109 A 
ATOM     18  N   UNL     1       1.461  -8.601  -0.238  0.00  0.00    -0.348 N 
ATOM     19  C   UNL     1       2.663  -9.194  -0.184  0.00  0.00    +0.102 A 
ATOM     20  C   UNL     1       2.816  -9.714   1.049  0.00  0.00    +0.104 A 
ATOM     21  N   UNL     1       1.676  -9.419   1.747  0.00  0.00    -0.337 N 
ATOM     22  C   UNL     1       1.391  -9.780   3.138  0.00  0.00    +0.150 C 
ATOM     23  H   UNL     1       1.094  -8.145  -1.012  0.00  0.00    +0.166 HD
ENDBRANCH  16  17
BRANCH  16  24
ATOM     24  C   UNL     1      -1.552  -9.202   0.825  0.00  0.00    -0.023 A 
ATOM     25  C   UNL     1      -1.941  -9.262  -0.500  0.00  0.00    +0.005 A 
ATOM     26  C   UNL     1      -2.900 -10.175  -0.898  0.00  0.00    +0.000 A 
ATOM     27  C   UNL     1      -3.469 -11.027   0.029  0.00  0.00    +0.000 A 
ATOM     28  C   UNL     1      -3.079 -10.968   1.354  0.00  0.00    +0.000 A 
ATOM     29  C   UNL     1      -2.117 -10.059   1.751  0.00  0.00    +0.005 A 
ENDBRANCH  16  24
ENDBRANCH   1  16
TORSDOF 5
