REMARK  Name = ZINC01291714
REMARK  10 active torsions:
REMARK  status: ('A' for Active; 'I' for Inactive)
REMARK    1  A    between atoms: C_1  and  C_2
REMARK    2  A    between atoms: C_2  and  O_3
REMARK    3  A    between atoms: O_3  and  C_4
REMARK    4  A    between atoms: C_6  and  C_13
REMARK    5  A    between atoms: C_9  and  O_10
REMARK    6  A    between atoms: O_10  and  C_11
REMARK    7  A    between atoms: C_15  and  C_24
REMARK    8  A    between atoms: C_16  and  C_23
REMARK    9  A    between atoms: C_24  and  O_26
REMARK   10  A    between atoms: O_26  and  C_27
REMARK                            x       y       z     vdW  Elec       q    Type
REMARK                         _______ _______ _______ _____ _____    ______ ____
ROOT
ATOM      1  C   UNL     1       0.551  -4.939   0.013  0.00  0.00    +0.179 C 
ATOM      2  C   UNL     1       0.423  -5.818   1.228  0.00  0.00    +0.082 C 
ATOM      3  C   UNL     1       0.250  -7.147   1.155  0.00  0.00    +0.020 C 
ATOM      4  N   UNL     1       0.185  -7.812  -0.044  0.00  0.00    -0.287 N 
ATOM      5  C   UNL     1       0.567  -7.115  -1.182  0.00  0.00    +0.218 A 
ATOM      6  N   UNL     1       0.748  -5.771  -1.171  0.00  0.00    -0.221 N 
ATOM      7  N   UNL     1       1.132  -5.411  -2.462  0.00  0.00    -0.156 NA
ATOM      8  C   UNL     1       1.160  -6.514  -3.169  0.00  0.00    +0.247 A 
ATOM      9  N   UNL     1       0.814  -7.544  -2.389  0.00  0.00    -0.201 NA
ATOM     10  C   UNL     1       0.120  -7.936   2.433  0.00  0.00    +0.061 C 
ATOM     11  H   UNL     1      -0.115  -8.733  -0.094  0.00  0.00    +0.155 HD
ENDROOT
BRANCH   1  14
ATOM     12  C   UNL     1      -1.790  -1.987  -0.279  0.00  0.00    +0.163 A 
ATOM     13  C   UNL     1      -0.636  -2.741  -0.129  0.00  0.00    +0.055 A 
ATOM     14  C   UNL     1      -0.705  -4.121  -0.150  0.00  0.00    -0.014 A 
ATOM     15  C   UNL     1      -1.922  -4.754  -0.322  0.00  0.00    +0.025 A 
ATOM     16  C   UNL     1      -3.077  -4.008  -0.472  0.00  0.00    +0.063 A 
ATOM     17  C   UNL     1      -3.016  -2.623  -0.445  0.00  0.00    +0.175 A 
ATOM     18 BR   UNL     1      -4.740  -4.877  -0.708  0.00  0.00    -0.046 Br
BRANCH  17  19
ATOM     19  O   UNL     1      -4.152  -1.888  -0.588  0.00  0.00    -0.490 OA
ATOM     20  C   UNL     1      -4.528  -1.526  -1.918  0.00  0.00    +0.277 C 
ENDBRANCH  17  19
BRANCH  12  21
ATOM     21  O   UNL     1      -1.724  -0.629  -0.258  0.00  0.00    -0.489 OA
BRANCH  21  23
ATOM     22  C   UNL     1      -0.557   1.480  -0.086  0.00  0.00    +0.048 C 
ATOM     23  C   UNL     1      -0.432  -0.045  -0.084  0.00  0.00    +0.226 C 
ENDBRANCH  21  23
ENDBRANCH  12  21
ENDBRANCH   1  14
BRANCH   2  24
ATOM     24  C   UNL     1       0.489  -5.217   2.504  0.00  0.00    +0.339 C 
ATOM     25  O   UNL     1       1.560  -4.842   2.945  0.00  0.00    -0.245 OA
BRANCH  24  26
ATOM     26  O   UNL     1      -0.635  -5.058   3.234  0.00  0.00    -0.458 OA
BRANCH  26  27
ATOM     27  C   UNL     1      -0.494  -4.442   4.516  0.00  0.00    +0.177 C 
ATOM     28  C   UNL     1      -0.237  -5.518   5.573  0.00  0.00    +0.044 C 
ATOM     29  C   UNL     1      -0.087  -4.859   6.946  0.00  0.00    +0.004 C 
ATOM     30  C   UNL     1      -1.370  -4.100   7.291  0.00  0.00    +0.000 C 
ATOM     31  C   UNL     1      -1.626  -3.024   6.234  0.00  0.00    +0.004 C 
ATOM     32  C   UNL     1      -1.777  -3.683   4.861  0.00  0.00    +0.044 C 
ENDBRANCH  26  27
ENDBRANCH  24  26
ENDBRANCH   2  24
TORSDOF 7
