REMARK  Name = ZINC20080849
REMARK  5 active torsions:
REMARK  status: ('A' for Active; 'I' for Inactive)
REMARK    1  A    between atoms: C_12  and  C_13
REMARK    2  A    between atoms: C_13  and  C_15
REMARK    3  A    between atoms: C_13  and  N_26
REMARK    4  A    between atoms: N_19  and  C_20
REMARK    5  A    between atoms: N_29  and  C_32
REMARK                            x       y       z     vdW  Elec       q    Type
REMARK                         _______ _______ _______ _____ _____    ______ ____
ROOT
ATOM      1  C   UNL     1       0.002  -0.004   0.002  0.00  0.00    +0.162 C 
ENDROOT
BRANCH   1  13
ATOM      2  C   UNL     1      -1.919  -1.468  -0.562  0.00  0.00    +0.021 A 
ATOM      3  C   UNL     1      -3.268  -1.959  -0.283  0.00  0.00    +0.003 A 
ATOM      4  C   UNL     1      -3.863  -2.935  -1.092  0.00  0.00    +0.059 A 
ATOM      5  C   UNL     1      -5.138  -3.372  -0.809  0.00  0.00    +0.167 A 
ATOM      6  C   UNL     1      -5.838  -2.846   0.285  0.00  0.00    +0.168 A 
ATOM      7  C   UNL     1      -5.257  -1.883   1.089  0.00  0.00    +0.075 A 
ATOM      8  C   UNL     1      -3.972  -1.432   0.817  0.00  0.00    +0.053 A 
ATOM      9  N   UNL     1      -3.377  -0.472   1.610  0.00  0.00    -0.322 N 
ATOM     10  H   UNL     1      -3.920  -0.056   2.471  0.00  0.00    +0.169 HD
ATOM     11  C   UNL     1      -2.134  -0.032   1.348  0.00  0.00    +0.254 A 
ATOM     12  O   UNL     1      -1.639   0.817   2.070  0.00  0.00    -0.268 OA
ATOM     13  C   UNL     1      -1.388  -0.527   0.259  0.00  0.00    +0.042 A 
ATOM     14  O   UNL     1      -7.063  -3.443   0.341  0.00  0.00    -0.453 OA
ATOM     15  C   UNL     1      -7.266  -4.033  -0.957  0.00  0.00    +0.466 C 
ATOM     16  O   UNL     1      -5.931  -4.296  -1.428  0.00  0.00    -0.453 OA
ENDBRANCH   1  13
BRANCH   1  17
ATOM     17  N   UNL     1      -0.053   1.448  -0.211  0.00  0.00    -0.292 NA
ATOM     18  C   UNL     1      -0.975   1.786  -1.304  0.00  0.00    +0.067 C 
ATOM     19  C   UNL     1      -1.064   3.308  -1.440  0.00  0.00    -0.063 C 
ATOM     20  N   UNL     1       0.276   3.853  -1.699  0.00  0.00    +0.383 N 
ATOM     21  C   UNL     1       1.198   3.515  -0.607  0.00  0.00    -0.063 C 
ATOM     22  C   UNL     1       1.287   1.994  -0.470  0.00  0.00    +0.067 C 
ATOM     23  H   UNL     1       0.658   3.392  -2.622  0.00  0.00    -0.081 HD
BRANCH  20  24
ATOM     24  C   UNL     1       0.221   5.306  -1.912  0.00  0.00    -0.068 C 
ATOM     25  C   UNL     1      -0.380   5.980  -0.677  0.00  0.00    -0.015 C 
ATOM     26  C   UNL     1      -0.436   7.493  -0.899  0.00  0.00    -0.002 C 
ATOM     27  C   UNL     1      -1.307   7.797  -2.119  0.00  0.00    -0.000 C 
ATOM     28  C   UNL     1      -0.707   7.122  -3.355  0.00  0.00    -0.002 C 
ATOM     29  C   UNL     1      -0.649   5.610  -3.133  0.00  0.00    -0.015 C 
ENDBRANCH  20  24
ENDBRANCH   1  17
BRANCH   1  30
ATOM     30  C   UNL     1       0.570  -0.670  -1.224  0.00  0.00    +0.173 A 
ATOM     31  N   UNL     1       0.251  -0.420  -2.470  0.00  0.00    -0.111 NA
ATOM     32  N   UNL     1       0.953  -1.193  -3.225  0.00  0.00    -0.023 NA
ATOM     33  N   UNL     1       1.712  -1.931  -2.492  0.00  0.00    -0.044 NA
ATOM     34  N   UNL     1       1.509  -1.635  -1.253  0.00  0.00    -0.224 N 
BRANCH  34  35
ATOM     35  C   UNL     1       2.174  -2.237  -0.094  0.00  0.00    +0.111 C 
ATOM     36  C   UNL     1       3.682  -1.998  -0.190  0.00  0.00    +0.027 C 
ATOM     37  C   UNL     1       4.376  -2.627   1.020  0.00  0.00    +0.002 C 
ATOM     38  C   UNL     1       4.098  -4.132   1.042  0.00  0.00    +0.000 C 
ATOM     39  C   UNL     1       2.589  -4.370   1.138  0.00  0.00    +0.002 C 
ATOM     40  C   UNL     1       1.895  -3.741  -0.072  0.00  0.00    +0.027 C 
ENDBRANCH  34  35
ENDBRANCH   1  30
TORSDOF 5
