REMARK  Name = ZINC34762640
REMARK  10 active torsions:
REMARK  status: ('A' for Active; 'I' for Inactive)
REMARK    1  A    between atoms: C_1  and  C_2
REMARK    2  A    between atoms: C_2  and  C_3
REMARK    3  A    between atoms: C_4  and  C_32
REMARK    4  A    between atoms: C_8  and  N_23
REMARK    5  A    between atoms: C_10  and  S_12
REMARK    6  A    between atoms: S_12  and  C_13
REMARK    7  A    between atoms: C_13  and  C_14
REMARK    8  A    between atoms: N_16  and  C_17
REMARK    9  A    between atoms: N_26  and  C_29
REMARK   10  A    between atoms: C_29  and  C_30
REMARK                            x       y       z     vdW  Elec       q    Type
REMARK                         _______ _______ _______ _____ _____    ______ ____
ROOT
ATOM      1  C   UNL     1       0.576  -0.597  -1.264  0.00  0.00    -0.025 A 
ATOM      2  C   UNL     1      -0.199  -0.768  -2.344  0.00  0.00    -0.007 A 
ATOM      3  S   UNL     1       0.944  -1.326  -3.594  0.00  0.00    -0.073 S 
ATOM      4  C   UNL     1       2.433  -1.314  -2.631  0.00  0.00    +0.115 A 
ATOM      5  C   UNL     1       2.001  -0.870  -1.362  0.00  0.00    +0.051 A 
ATOM      6  C   UNL     1       3.016  -0.760  -0.372  0.00  0.00    +0.134 A 
ATOM      7  N   UNL     1       4.264  -1.066  -0.688  0.00  0.00    -0.206 NA
ATOM      8  C   UNL     1       4.604  -1.473  -1.905  0.00  0.00    +0.191 A 
ATOM      9  N   UNL     1       3.698  -1.603  -2.865  0.00  0.00    -0.214 NA
ATOM     10  C   UNL     1      -1.684  -0.543  -2.472  0.00  0.00    +0.052 C 
ENDROOT
BRANCH   6  11
ATOM     11  N   UNL     1       2.703  -0.339   0.907  0.00  0.00    -0.318 N 
ATOM     12  C   UNL     1       2.385  -1.309   1.966  0.00  0.00    +0.088 C 
ATOM     13  C   UNL     1       3.238  -0.982   3.196  0.00  0.00    -0.059 C 
ATOM     14  N   UNL     1       3.030   0.421   3.576  0.00  0.00    +0.384 N 
ATOM     15  C   UNL     1       3.518   1.306   2.511  0.00  0.00    -0.059 C 
ATOM     16  C   UNL     1       2.683   1.092   1.248  0.00  0.00    +0.088 C 
ATOM     17  H   UNL     1       2.045   0.586   3.724  0.00  0.00    -0.081 HD
BRANCH  14  18
ATOM     18  C   UNL     1       3.762   0.704   4.818  0.00  0.00    -0.052 C 
BRANCH  18  19
ATOM     19  C   UNL     1       3.452   2.105   5.276  0.00  0.00    -0.053 C 
ATOM     20  C   UNL     1       2.991   2.313   6.485  0.00  0.00    +0.002 C 
ENDBRANCH  18  19
ENDBRANCH  14  18
ENDBRANCH   6  11
BRANCH   1  22
ATOM     21  C   UNL     1      -0.119   1.406   0.022  0.00  0.00    +0.009 C 
ATOM     22  C   UNL     1      -0.021  -0.121   0.035  0.00  0.00    +0.033 C 
ENDBRANCH   1  22
BRANCH   8  23
ATOM     23  S   UNL     1       6.288  -1.861  -2.247  0.00  0.00    -0.077 S 
BRANCH  23  24
ATOM     24  C   UNL     1       6.278  -2.360  -3.991  0.00  0.00    +0.173 C 
BRANCH  24  25
ATOM     25  C   UNL     1       7.677  -2.723  -4.418  0.00  0.00    +0.224 C 
ATOM     26  O   UNL     1       8.591  -2.653  -3.624  0.00  0.00    -0.275 OA
ATOM     27  N   UNL     1       7.912  -3.127  -5.682  0.00  0.00    -0.312 N 
ATOM     28  H   UNL     1       7.181  -3.183  -6.317  0.00  0.00    +0.149 HD
BRANCH  27  29
ATOM     29  C   UNL     1       9.272  -3.480  -6.097  0.00  0.00    +0.073 C 
ATOM     30  C   UNL     1      10.022  -2.214  -6.517  0.00  0.00    +0.022 C 
ATOM     31  C   UNL     1      11.443  -2.583  -6.950  0.00  0.00    +0.002 C 
ATOM     32  C   UNL     1      11.380  -3.554  -8.131  0.00  0.00    +0.000 C 
ATOM     33  C   UNL     1      10.630  -4.819  -7.711  0.00  0.00    +0.002 C 
ATOM     34  C   UNL     1       9.210  -4.451  -7.278  0.00  0.00    +0.022 C 
ENDBRANCH  27  29
ENDBRANCH  24  25
ENDBRANCH  23  24
ENDBRANCH   8  23
TORSDOF 8
