REMARK  Name = ZINC09812857
REMARK  6 active torsions:
REMARK  status: ('A' for Active; 'I' for Inactive)
REMARK    1  A    between atoms: C_1  and  C_2
REMARK    2  A    between atoms: C_7  and  C_20
REMARK    3  A    between atoms: N_10  and  C_12
REMARK    4  A    between atoms: C_20  and  O_21
REMARK    5  A    between atoms: O_21  and  C_22
REMARK    6  A    between atoms: C_22  and  C_24
REMARK                            x       y       z     vdW  Elec       q    Type
REMARK                         _______ _______ _______ _____ _____    ______ ____
ROOT
ATOM      1  C   UNL     1       9.976   9.629  -0.043  0.00  0.00    +0.068 C 
ATOM      2  C   UNL     1       8.664  10.369  -0.026  0.00  0.00    +0.073 A 
ATOM      3  C   UNL     1       7.407   9.787  -0.017  0.00  0.00    +0.086 A 
ATOM      4  C   UNL     1       6.922   8.401  -0.020  0.00  0.00    +0.193 A 
ATOM      5  O   UNL     1       7.695   7.454  -0.033  0.00  0.00    -0.287 OA
ATOM      6  C   UNL     1       5.524   8.211  -0.008  0.00  0.00    +0.076 A 
ATOM      7  C   UNL     1       4.704   9.297   0.006  0.00  0.00    +0.059 A 
ATOM      8  N   UNL     1       5.159  10.540   0.004  0.00  0.00    -0.340 N 
ATOM      9  C   UNL     1       6.446  10.832  -0.002  0.00  0.00    +0.141 A 
ATOM     10  N   UNL     1       7.150  12.015  -0.002  0.00  0.00    -0.243 N 
ATOM     11  N   UNL     1       8.516  11.704  -0.017  0.00  0.00    -0.174 NA
ATOM     12  H   UNL     1       4.454  11.384   0.006  0.00  0.00    +0.167 HD
ENDROOT
BRANCH  10  13
ATOM     13  C   UNL     1       6.573  13.361   0.012  0.00  0.00    +0.132 C 
ATOM     14  C   UNL     1       7.049  14.143  -1.224  0.00  0.00    +0.051 C 
ATOM     15  C   UNL     1       6.714  15.645  -1.060  0.00  0.00    +0.168 C 
ATOM     16  S   UNL     1       6.732  15.865   0.766  0.00  0.00    -0.029 S 
ATOM     17  O   UNL     1       5.433  16.245   1.199  0.00  0.00    -0.174 OA
ATOM     18  O   UNL     1       7.851  16.665   1.125  0.00  0.00    -0.174 OA
ATOM     19  C   UNL     1       7.051  14.124   1.280  0.00  0.00    +0.192 C 
ENDBRANCH  10  13
BRANCH   7  20
ATOM     20  C   UNL     1       3.214   9.075   0.019  0.00  0.00    +0.285 C 
BRANCH  20  21
ATOM     21  O   UNL     1       2.937   7.650   0.014  0.00  0.00    -0.455 OA
BRANCH  21  22
ATOM     22  C   UNL     1       1.641   7.278   0.024  0.00  0.00    +0.348 C 
ATOM     23  O   UNL     1       0.766   8.122   0.038  0.00  0.00    -0.244 OA
BRANCH  22  24
ATOM     24  C   UNL     1       1.286   5.855   0.020  0.00  0.00    +0.116 A 
ATOM     25  C   UNL     1       0.047   5.289   0.029  0.00  0.00    +0.070 A 
ATOM     26  C   UNL     1      -0.083   3.888   0.023  0.00  0.00    +0.008 A 
ATOM     27  C   UNL     1      -1.274   3.116   0.030  0.00  0.00    +0.010 A 
ATOM     28  C   UNL     1      -1.223   1.760   0.017  0.00  0.00    +0.001 A 
ATOM     29  C   UNL     1      -0.013   1.076   0.008  0.00  0.00    +0.001 A 
ATOM     30  C   UNL     1       1.170   1.787   0.001  0.00  0.00    +0.016 A 
ATOM     31  C   UNL     1       1.134   3.165   0.008  0.00  0.00    +0.022 A 
ATOM     32  S   UNL     1       2.371   4.438   0.003  0.00  0.00    -0.080 S 
ATOM     33 CL   UNL     1      -1.368   6.294   0.046  0.00  0.00    -0.082 Cl
ENDBRANCH  22  24
ENDBRANCH  21  22
ENDBRANCH  20  21
ENDBRANCH   7  20
TORSDOF 5
