REMARK  Name = ZINC64197741
REMARK  11 active torsions:
REMARK  status: ('A' for Active; 'I' for Inactive)
REMARK    1  A    between atoms: C_1  and  C_2
REMARK    2  A    between atoms: C_2  and  O_3
REMARK    3  A    between atoms: O_3  and  C_4
REMARK    4  A    between atoms: C_4  and  C_6
REMARK    5  A    between atoms: C_6  and  C_7
REMARK    6  A    between atoms: N_11  and  C_12
REMARK    7  A    between atoms: C_15  and  O_30
REMARK    8  A    between atoms: N_23  and  C_26
REMARK    9  A    between atoms: C_26  and  C_27
REMARK   10  A    between atoms: C_27  and  C_28
REMARK   11  A    between atoms: C_27  and  C_29
REMARK                            x       y       z     vdW  Elec       q    Type
REMARK                         _______ _______ _______ _____ _____    ______ ____
ROOT
ATOM      1  C   UNL     1      -1.328  -6.576   2.521  0.00  0.00    +0.283 C 
ATOM      2  O   UNL     1      -2.083  -7.623   2.928  0.00  0.00    -0.265 OA
ATOM      3  C   UNL     1      -1.671  -5.287   2.896  0.00  0.00    +0.113 C 
ATOM      4  C   UNL     1      -2.937  -5.013   3.685  0.00  0.00    +0.187 C 
ATOM      5  C   UNL     1      -3.214  -3.570   4.042  0.00  0.00    +0.007 A 
ATOM      6  C   UNL     1      -4.339  -3.225   4.757  0.00  0.00    +0.008 A 
ATOM      7  C   UNL     1      -4.573  -1.897   5.073  0.00  0.00    +0.000 A 
ATOM      8  C   UNL     1      -3.678  -0.923   4.670  0.00  0.00    +0.002 A 
ATOM      9  C   UNL     1      -2.550  -1.267   3.953  0.00  0.00    +0.024 A 
ATOM     10  C   UNL     1      -2.308  -2.599   3.633  0.00  0.00    +0.043 A 
ATOM     11  N   UNL     1      -1.169  -2.945   2.910  0.00  0.00    -0.267 N 
ATOM     12  C   UNL     1      -0.857  -4.200   2.564  0.00  0.00    +0.255 C 
ATOM     13  O   UNL     1       0.169  -4.401   1.934  0.00  0.00    -0.270 OA
ENDROOT
BRANCH   1  18
ATOM     14  C   UNL     1      -0.252 -10.303   0.908  0.00  0.00    +0.035 A 
ATOM     15  C   UNL     1       0.937 -10.257   0.297  0.00  0.00    +0.070 A 
ATOM     16  S   UNL     1       1.382  -8.540   0.479  0.00  0.00    -0.058 S 
ATOM     17  C   UNL     1       0.024  -8.011   1.318  0.00  0.00    +0.174 A 
ATOM     18  N   UNL     1      -0.251  -6.787   1.757  0.00  0.00    -0.184 NA
ATOM     19  N   UNL     1      -0.730  -9.141   1.432  0.00  0.00    -0.337 N 
ATOM     20  H   UNL     1      -1.589  -9.119   1.882  0.00  0.00    +0.168 HD
BRANCH  14  21
ATOM     21  C   UNL     1      -1.033 -11.587   1.006  0.00  0.00    +0.174 C 
BRANCH  21  22
ATOM     22  C   UNL     1      -0.674 -12.297   2.286  0.00  0.00    +0.313 C 
ATOM     23  O   UNL     1       0.135 -11.810   3.040  0.00  0.00    -0.250 OA
BRANCH  22  24
ATOM     24  O   UNL     1      -1.251 -13.471   2.587  0.00  0.00    -0.465 OA
BRANCH  24  26
ATOM     25  C   UNL     1      -1.620 -15.407   3.986  0.00  0.00    +0.048 C 
ATOM     26  C   UNL     1      -0.863 -14.088   3.816  0.00  0.00    +0.229 C 
ENDBRANCH  24  26
ENDBRANCH  22  24
ENDBRANCH  21  22
ENDBRANCH  14  21
ENDBRANCH   1  18
BRANCH   4  27
ATOM     27  O   UNL     1      -2.872  -5.763   4.900  0.00  0.00    -0.382 OA
ATOM     28  H   UNL     1      -2.802  -6.719   4.768  0.00  0.00    +0.211 HD
ENDBRANCH   4  27
BRANCH  11  29
ATOM     29  C   UNL     1      -0.255  -1.873   2.510  0.00  0.00    +0.117 C 
BRANCH  29  30
ATOM     30  C   UNL     1       0.692  -1.550   3.668  0.00  0.00    +0.001 C 
ATOM     31  C   UNL     1       1.540  -2.782   3.991  0.00  0.00    +0.009 C 
ATOM     32  C   UNL     1       1.607  -0.390   3.271  0.00  0.00    +0.009 C 
ENDBRANCH  29  30
ENDBRANCH  11  29
TORSDOF 8
