REMARK  Name = ZINC12880661
REMARK  8 active torsions:
REMARK  status: ('A' for Active; 'I' for Inactive)
REMARK    1  A    between atoms: C_1  and  N_2
REMARK    2  A    between atoms: N_2  and  C_3
REMARK    3  A    between atoms: N_2  and  C_4
REMARK    4  A    between atoms: C_4  and  C_10
REMARK    5  A    between atoms: C_10  and  N_11
REMARK    6  A    between atoms: C_12  and  C_14
REMARK    7  A    between atoms: N_17  and  S_20
REMARK    8  A    between atoms: S_20  and  C_23
REMARK                            x       y       z     vdW  Elec       q    Type
REMARK                         _______ _______ _______ _____ _____    ______ ____
ROOT
ATOM      1  C   UNL     1       4.850  -0.591   1.393  0.00  0.00    +0.077 C 
ATOM      2  C   UNL     1       4.133  -0.099   2.652  0.00  0.00    +0.030 C 
ATOM      3  C   UNL     1       4.856  -0.636   3.891  0.00  0.00    +0.110 C 
ATOM      4  N   UNL     1       6.273  -0.253   3.814  0.00  0.00    -0.176 NA
ATOM      5  C   UNL     1       7.034  -0.598   2.606  0.00  0.00    +0.110 C 
ATOM      6  C   UNL     1       6.286  -0.061   1.382  0.00  0.00    +0.030 C 
ENDROOT
BRANCH   1   8
ATOM      7  N   UNL     1       2.834  -0.433  -0.031  0.00  0.00    -0.316 N 
ATOM      8  C   UNL     1       4.121  -0.092   0.172  0.00  0.00    +0.216 C 
ATOM      9  O   UNL     1       4.694   0.618  -0.628  0.00  0.00    -0.276 OA
ATOM     10  H   UNL     1       2.376  -1.001   0.609  0.00  0.00    +0.149 HD
BRANCH   7  11
ATOM     11  C   UNL     1       2.125   0.052  -1.218  0.00  0.00    +0.092 C 
BRANCH  11  12
ATOM     12  C   UNL     1       0.690  -0.478  -1.207  0.00  0.00    -0.050 C 
ATOM     13  C   UNL     1      -0.050   0.029  -2.446  0.00  0.00    -0.010 C 
ATOM     14  C   UNL     1       0.666  -0.464  -3.705  0.00  0.00    -0.001 C 
ATOM     15  C   UNL     1       0.686  -1.994  -3.713  0.00  0.00    -0.000 C 
ATOM     16  C   UNL     1       1.427  -2.501  -2.474  0.00  0.00    -0.001 C 
ATOM     17  C   UNL     1       0.710  -2.008  -1.215  0.00  0.00    -0.010 C 
BRANCH  12  19
ATOM     18  C   UNL     1      -0.018   1.465   0.010  0.00  0.00    -0.096 C 
ATOM     19  N   UNL     1       0.002  -0.004   0.002  0.00  0.00    +0.381 N 
ATOM     20  C   UNL     1      -1.376  -0.512   0.012  0.00  0.00    -0.096 C 
ATOM     21  H   UNL     1       0.490  -0.338   0.820  0.00  0.00    -0.082 HD
ENDBRANCH  12  19
ENDBRANCH  11  12
ENDBRANCH   7  11
ENDBRANCH   1   8
BRANCH   4  22
ATOM     22  S   UNL     1       6.997   0.553   5.067  0.00  0.00    +0.062 S 
ATOM     23  O   UNL     1       8.105   1.250   4.514  0.00  0.00    -0.153 OA
ATOM     24  O   UNL     1       5.960   1.213   5.779  0.00  0.00    -0.153 OA
BRANCH  22  25
ATOM     25  C   UNL     1       7.660  -0.664   6.155  0.00  0.00    +0.125 A 
ATOM     26  C   UNL     1       9.027  -0.756   6.339  0.00  0.00    +0.050 A 
ATOM     27  C   UNL     1       9.547  -1.711   7.194  0.00  0.00    +0.043 A 
ATOM     28  C   UNL     1       8.700  -2.575   7.864  0.00  0.00    +0.021 A 
ATOM     29  C   UNL     1       7.333  -2.483   7.680  0.00  0.00    +0.023 A 
ATOM     30  C   UNL     1       6.812  -1.524   6.830  0.00  0.00    +0.067 A 
ATOM     31 CL   UNL     1       5.095  -1.404   6.604  0.00  0.00    -0.082 Cl
ATOM     32 CL   UNL     1      11.264  -1.826   7.424  0.00  0.00    -0.083 Cl
ENDBRANCH  22  25
ENDBRANCH   4  22
TORSDOF 6
