REMARK  Name = ZINC16690137
REMARK  7 active torsions:
REMARK  status: ('A' for Active; 'I' for Inactive)
REMARK    1  A    between atoms: C_1  and  C_2
REMARK    2  A    between atoms: C_2  and  C_3
REMARK    3  A    between atoms: C_9  and  C_11
REMARK    4  A    between atoms: C_11  and  C_13
REMARK    5  A    between atoms: C_11  and  N_18
REMARK    6  A    between atoms: C_20  and  C_27
REMARK    7  A    between atoms: C_23  and  C_26
REMARK                            x       y       z     vdW  Elec       q    Type
REMARK                         _______ _______ _______ _____ _____    ______ ____
ROOT
ATOM      1  C   UNL     1       1.308   1.595  -2.570  0.00  0.00    +0.012 C 
ENDROOT
BRANCH   1   8
ATOM      2  C   UNL     1       2.638   2.171   3.214  0.00  0.00    +0.152 A 
ATOM      3  N   UNL     1       3.543   2.582   2.328  0.00  0.00    -0.205 NA
ATOM      4  C   UNL     1       3.087   2.383   1.122  0.00  0.00    +0.199 A 
ATOM      5  N   UNL     1       1.851   1.817   1.188  0.00  0.00    -0.170 N 
ATOM      6  N   UNL     1       1.601   1.695   2.580  0.00  0.00    -0.146 NA
ATOM      7  C   UNL     1       1.224   1.533  -0.001  0.00  0.00    +0.282 A 
ATOM      8  C   UNL     1       1.815   1.817  -1.168  0.00  0.00    +0.051 A 
ATOM      9  S   UNL     1       3.362   2.527  -0.628  0.00  0.00    -0.050 S 
ATOM     10  O   UNL     1      -0.011   0.963   0.007  0.00  0.00    -0.265 OA
BRANCH   2  12
ATOM     11  C   UNL     1       3.448   0.947   5.213  0.00  0.00    +0.012 C 
ATOM     12  C   UNL     1       2.791   2.235   4.712  0.00  0.00    +0.075 C 
ENDBRANCH   2  12
ENDBRANCH   1   8
BRANCH   1  13
ATOM     13  N   UNL     1       1.557   2.797  -3.377  0.00  0.00    +0.388 N 
ATOM     14  C   UNL     1       0.956   3.983  -2.754  0.00  0.00    -0.074 C 
ATOM     15  C   UNL     1       1.357   5.233  -3.540  0.00  0.00    -0.031 C 
ATOM     16  C   UNL     1       0.878   5.095  -4.988  0.00  0.00    +0.003 C 
ATOM     17  C   UNL     1       1.480   3.827  -5.598  0.00  0.00    -0.031 C 
ATOM     18  C   UNL     1       1.075   2.618  -4.752  0.00  0.00    -0.074 C 
ATOM     19  C   UNL     1       3.005   3.946  -5.622  0.00  0.00    +0.005 C 
ATOM     20  C   UNL     1       0.712   6.466  -2.904  0.00  0.00    +0.005 C 
ATOM     21  H   UNL     1       2.645   2.957  -3.421  0.00  0.00    -0.080 HD
ENDBRANCH   1  13
BRANCH   1  22
ATOM     22  C   UNL     1       2.025   0.421  -3.184  0.00  0.00    -0.019 A 
ATOM     23  C   UNL     1       1.603  -0.860  -3.320  0.00  0.00    +0.010 A 
ATOM     24  C   UNL     1       2.440  -1.781  -3.923  0.00  0.00    +0.008 A 
ATOM     25  C   UNL     1       3.657  -1.375  -4.361  0.00  0.00    +0.045 A 
ATOM     26  S   UNL     1       3.647   0.357  -3.927  0.00  0.00    -0.103 S 
ENDBRANCH   1  22
TORSDOF 4
