REMARK  Name = ZINC43478283
REMARK  5 active torsions:
REMARK  status: ('A' for Active; 'I' for Inactive)
REMARK    1  A    between atoms: C_3  and  O_20
REMARK    2  A    between atoms: C_6  and  C_7
REMARK    3  A    between atoms: C_7  and  N_8
REMARK    4  A    between atoms: N_8  and  C_9
REMARK    5  A    between atoms: C_14  and  N_15
REMARK                            x       y       z     vdW  Elec       q    Type
REMARK                         _______ _______ _______ _____ _____    ______ ____
ROOT
ATOM      1  N   UNL     1      -1.495  -1.475  -1.453  0.00  0.00    -0.338 N 
ATOM      2  H   UNL     1      -0.966  -1.169  -2.207  0.00  0.00    +0.146 HD
ENDROOT
BRANCH   1   3
ATOM      3  C   UNL     1      -2.794  -1.945  -1.658  0.00  0.00    +0.059 A 
ATOM      4  C   UNL     1      -3.509  -2.496  -0.602  0.00  0.00    +0.045 A 
ATOM      5  C   UNL     1      -4.795  -2.960  -0.807  0.00  0.00    +0.043 A 
ATOM      6  C   UNL     1      -5.369  -2.876  -2.064  0.00  0.00    +0.022 A 
ATOM      7  C   UNL     1      -4.659  -2.328  -3.116  0.00  0.00    +0.036 A 
ATOM      8  C   UNL     1      -3.376  -1.857  -2.916  0.00  0.00    +0.147 A 
ATOM      9 CL   UNL     1      -5.689  -3.649   0.511  0.00  0.00    -0.083 Cl
BRANCH   8  10
ATOM     10  N   UNL     1      -2.620  -1.265  -4.042  0.00  0.00    +0.058 N 
ATOM     11  O   UNL     1      -1.898  -0.314  -3.851  0.00  0.00    -0.126 OA
ATOM     12  O   UNL     1      -2.725  -1.732  -5.152  0.00  0.00    -0.126 OA
ENDBRANCH   8  10
ENDBRANCH   1   3
BRANCH   1  13
ATOM     13  C   UNL     1      -0.931  -1.445  -0.102  0.00  0.00    +0.137 C 
BRANCH  13  19
ATOM     14  C   UNL     1       0.691   0.459  -0.027  0.00  0.00    +0.009 A 
ATOM     15  C   UNL     1       1.977   0.962  -0.075  0.00  0.00    +0.047 A 
ATOM     16  C   UNL     1       3.050   0.102  -0.252  0.00  0.00    +0.135 A 
ATOM     17  C   UNL     1       2.830  -1.263  -0.380  0.00  0.00    +0.083 A 
ATOM     18  C   UNL     1       1.541  -1.760  -0.331  0.00  0.00    +0.028 A 
ATOM     19  C   UNL     1       0.473  -0.900  -0.155  0.00  0.00    -0.029 A 
ATOM     20 CL   UNL     1       4.170  -2.343  -0.602  0.00  0.00    -0.080 Cl
BRANCH  16  21
ATOM     21  O   UNL     1       4.316   0.595  -0.300  0.00  0.00    -0.505 OA
ATOM     22  H   UNL     1       4.752   0.644   0.562  0.00  0.00    +0.292 HD
ENDBRANCH  16  21
ENDBRANCH  13  19
ENDBRANCH   1  13
TORSDOF 5
