REMARK  Name = ZINC18198284
REMARK  12 active torsions:
REMARK  status: ('A' for Active; 'I' for Inactive)
REMARK    1  A    between atoms: C_1  and  O_2
REMARK    2  A    between atoms: O_2  and  C_3
REMARK    3  A    between atoms: C_5  and  C_13
REMARK    4  A    between atoms: C_7  and  N_10
REMARK    5  A    between atoms: C_8  and  O_9
REMARK    6  A    between atoms: C_18  and  C_23
REMARK    7  A    between atoms: C_25  and  O_33
REMARK    8  A    between atoms: C_26  and  O_31
REMARK    9  A    between atoms: C_27  and  O_29
REMARK   10  A    between atoms: O_29  and  C_30
REMARK   11  A    between atoms: O_31  and  C_32
REMARK   12  A    between atoms: O_33  and  C_34
REMARK                            x       y       z     vdW  Elec       q    Type
REMARK                         _______ _______ _______ _____ _____    ______ ____
ROOT
ATOM      1  C   UNL     1      -4.871   0.257   0.037  0.00  0.00    +0.176 C 
ATOM      2  C   UNL     1      -5.683  -0.073  -1.196  0.00  0.00    +0.041 C 
ATOM      3  C   UNL     1      -6.801  -0.828  -1.139  0.00  0.00    +0.020 C 
ATOM      4  C   UNL     1      -7.591  -1.141  -2.388  0.00  0.00    +0.060 C 
ATOM      5  C   UNL     1      -6.650  -1.198  -3.593  0.00  0.00    +0.032 C 
ATOM      6  C   UNL     1      -5.936   0.153  -3.712  0.00  0.00    +0.088 C 
ATOM      7  C   UNL     1      -5.221   0.442  -2.421  0.00  0.00    +0.164 C 
ATOM      8  O   UNL     1      -4.224   1.136  -2.437  0.00  0.00    -0.292 OA
ATOM      9  N   UNL     1      -7.271  -1.338   0.047  0.00  0.00    -0.287 N 
ATOM     10  C   UNL     1      -6.760  -0.819   1.226  0.00  0.00    +0.218 A 
ATOM     11  N   UNL     1      -5.636  -0.064   1.236  0.00  0.00    -0.221 N 
ATOM     12  N   UNL     1      -5.414   0.293   2.565  0.00  0.00    -0.156 NA
ATOM     13  C   UNL     1      -6.378  -0.250   3.267  0.00  0.00    +0.247 A 
ATOM     14  N   UNL     1      -7.189  -0.922   2.454  0.00  0.00    -0.201 NA
ATOM     15  H   UNL     1      -7.941  -2.039   0.059  0.00  0.00    +0.155 HD
ENDROOT
BRANCH   1  18
ATOM     16  C   UNL     1      -1.201  -0.638   0.010  0.00  0.00    +0.164 A 
ATOM     17  C   UNL     1      -2.374   0.099   0.019  0.00  0.00    +0.055 A 
ATOM     18  C   UNL     1      -3.596  -0.546   0.027  0.00  0.00    -0.013 A 
ATOM     19  C   UNL     1      -3.652  -1.928   0.026  0.00  0.00    +0.042 A 
ATOM     20  C   UNL     1      -2.485  -2.669   0.017  0.00  0.00    +0.171 A 
ATOM     21  C   UNL     1      -1.257  -2.028   0.003  0.00  0.00    +0.189 A 
BRANCH  20  22
ATOM     22  N   UNL     1      -2.548  -4.148   0.016  0.00  0.00    +0.060 N 
ATOM     23  O   UNL     1      -3.620  -4.708   0.023  0.00  0.00    -0.126 OA
ATOM     24  O   UNL     1      -1.528  -4.797   0.007  0.00  0.00    -0.126 OA
ENDBRANCH  20  22
BRANCH  16  26
ATOM     25  C   UNL     1      -0.017   1.425   0.010  0.00  0.00    +0.277 C 
ATOM     26  O   UNL     1       0.002  -0.004   0.002  0.00  0.00    -0.491 OA
ENDBRANCH  16  26
BRANCH  21  27
ATOM     27  O   UNL     1      -0.108  -2.756  -0.012  0.00  0.00    -0.502 OA
ATOM     28  H   UNL     1       0.232  -2.972   0.867  0.00  0.00    +0.292 HD
ENDBRANCH  21  27
ENDBRANCH   1  18
BRANCH   5  29
ATOM     29  C   UNL     1      -7.444  -1.466  -4.845  0.00  0.00    -0.036 A 
ATOM     30  C   UNL     1      -8.427  -0.579  -5.241  0.00  0.00    +0.053 A 
ATOM     31  C   UNL     1      -9.161  -0.822  -6.392  0.00  0.00    +0.165 A 
ATOM     32  C   UNL     1      -8.905  -1.959  -7.150  0.00  0.00    +0.204 A 
ATOM     33  C   UNL     1      -7.914  -2.848  -6.749  0.00  0.00    +0.165 A 
ATOM     34  C   UNL     1      -7.182  -2.595  -5.599  0.00  0.00    +0.053 A 
BRANCH  33  35
ATOM     35  O   UNL     1      -7.660  -3.962  -7.487  0.00  0.00    -0.491 OA
ATOM     36  C   UNL     1      -6.628  -4.831  -7.015  0.00  0.00    +0.277 C 
ENDBRANCH  33  35
BRANCH  32  37
ATOM     37  O   UNL     1      -9.622  -2.202  -8.280  0.00  0.00    -0.488 OA
ATOM     38  C   UNL     1      -9.107  -1.669  -9.502  0.00  0.00    +0.277 C 
ENDBRANCH  32  37
BRANCH  31  39
ATOM     39  O   UNL     1     -10.129   0.051  -6.780  0.00  0.00    -0.491 OA
ATOM     40  C   UNL     1     -10.338   1.197  -5.953  0.00  0.00    +0.277 C 
ENDBRANCH  31  39
ENDBRANCH   5  29
TORSDOF 8
