REMARK  Name = ZINC38733076
REMARK  6 active torsions:
REMARK  status: ('A' for Active; 'I' for Inactive)
REMARK    1  A    between atoms: C_1  and  N_2
REMARK    2  A    between atoms: N_2  and  C_3
REMARK    3  A    between atoms: C_3  and  C_4
REMARK    4  A    between atoms: C_4  and  C_5
REMARK    5  A    between atoms: C_14  and  C_16
REMARK    6  A    between atoms: C_22  and  C_24
REMARK                            x       y       z     vdW  Elec       q    Type
REMARK                         _______ _______ _______ _____ _____    ______ ____
ROOT
ATOM      1  C   UNL     1      -0.098   0.165  -2.461  0.00  0.00    +0.091 C 
ATOM      2  C   UNL     1      -1.240   1.184  -2.452  0.00  0.00    +0.040 C 
ATOM      3  C   UNL     1      -2.563   0.477  -2.489  0.00  0.00    -0.030 C 
ATOM      4  C   UNL     1      -2.715  -0.760  -2.839  0.00  0.00    -0.030 C 
ATOM      5  C   UNL     1      -1.588  -1.663  -3.247  0.00  0.00    +0.040 C 
ATOM      6  C   UNL     1      -0.344  -0.837  -3.596  0.00  0.00    +0.091 C 
ENDROOT
BRANCH   6   7
ATOM      7  C   UNL     1       0.852  -1.743  -3.741  0.00  0.00    +0.220 C 
ATOM      8  O   UNL     1       0.945  -2.738  -3.054  0.00  0.00    -0.275 OA
ATOM      9  N   UNL     1       1.817  -1.447  -4.634  0.00  0.00    -0.298 N 
ATOM     10  C   UNL     1       1.783  -0.182  -5.380  0.00  0.00    +0.126 C 
ATOM     11  C   UNL     1       3.109   0.556  -5.155  0.00  0.00    +0.125 C 
ATOM     12  N   UNL     1       4.215  -0.381  -5.399  0.00  0.00    -0.314 N 
ATOM     13  C   UNL     1       4.249  -1.646  -4.652  0.00  0.00    +0.125 C 
ATOM     14  C   UNL     1       2.926  -2.381  -4.873  0.00  0.00    +0.126 C 
ATOM     15  C   UNL     1       5.211  -0.076  -6.319  0.00  0.00    +0.099 A 
ATOM     16  C   UNL     1       5.229   1.176  -6.926  0.00  0.00    +0.042 A 
ATOM     17  C   UNL     1       6.226   1.466  -7.840  0.00  0.00    +0.005 A 
ATOM     18  C   UNL     1       7.174   0.490  -8.118  0.00  0.00    +0.018 A 
ATOM     19  C   UNL     1       7.095  -0.731  -7.480  0.00  0.00    +0.084 A 
ATOM     20  N   UNL     1       6.136  -0.978  -6.608  0.00  0.00    -0.350 N 
ATOM     21  H   UNL     1       6.106  -1.843  -6.170  0.00  0.00    +0.166 HD
ENDBRANCH   6   7
BRANCH   1  24
ATOM     22  C   UNL     1       2.092   0.488  -0.686  0.00  0.00    +0.132 C 
ATOM     23  N   UNL     1       1.017  -0.446  -0.339  0.00  0.00    -0.304 N 
ATOM     24  C   UNL     1      -0.059  -0.564  -1.143  0.00  0.00    +0.219 C 
ATOM     25  O   UNL     1      -0.995  -1.256  -0.804  0.00  0.00    -0.275 OA
BRANCH  23  26
ATOM     26  C   UNL     1       1.113  -1.252   0.880  0.00  0.00    +0.112 C 
BRANCH  26  27
ATOM     27  C   UNL     1       0.479  -0.489   2.046  0.00  0.00    +0.056 C 
BRANCH  27  28
ATOM     28  C   UNL     1       0.577  -1.318   3.301  0.00  0.00    -0.021 A 
ATOM     29  C   UNL     1       1.718  -1.381   4.217  0.00  0.00    +0.003 A 
ATOM     30  C   UNL     1       2.971  -0.767   4.249  0.00  0.00    +0.010 A 
ATOM     31  C   UNL     1       3.836  -1.043   5.270  0.00  0.00    +0.001 A 
ATOM     32  C   UNL     1       3.478  -1.930   6.276  0.00  0.00    +0.002 A 
ATOM     33  C   UNL     1       2.246  -2.546   6.264  0.00  0.00    +0.026 A 
ATOM     34  C   UNL     1       1.350  -2.280   5.235  0.00  0.00    +0.047 A 
ATOM     35  N   UNL     1       0.079  -2.722   4.946  0.00  0.00    -0.360 N 
ATOM     36  C   UNL     1      -0.368  -2.135   3.794  0.00  0.00    +0.087 A 
ATOM     37  H   UNL     1      -0.427  -3.354   5.482  0.00  0.00    +0.165 HD
ENDBRANCH  27  28
ENDBRANCH  26  27
ENDBRANCH  23  26
ENDBRANCH   1  24
TORSDOF 5
