REMARK  Name = ZINC26299836
REMARK  10 active torsions:
REMARK  status: ('A' for Active; 'I' for Inactive)
REMARK    1  A    between atoms: C_1  and  C_2
REMARK    2  A    between atoms: C_2  and  C_4
REMARK    3  A    between atoms: C_2  and  N_15
REMARK    4  A    between atoms: C_7  and  N_10
REMARK    5  A    between atoms: N_15  and  C_16
REMARK    6  A    between atoms: N_15  and  C_17
REMARK    7  A    between atoms: C_17  and  C_18
REMARK    8  A    between atoms: N_20  and  C_21
REMARK    9  A    between atoms: N_20  and  C_27
REMARK   10  A    between atoms: C_21  and  C_22
REMARK                            x       y       z     vdW  Elec       q    Type
REMARK                         _______ _______ _______ _____ _____    ______ ____
ROOT
ATOM      1  C   UNL     1       4.803  -0.025   0.096  0.00  0.00    +0.204 C 
ATOM      2  O   UNL     1       4.765   1.181  -0.035  0.00  0.00    -0.277 OA
ATOM      3  N   UNL     1       3.676  -0.706   0.382  0.00  0.00    -0.268 N 
ENDROOT
BRANCH   3   4
ATOM      4  C   UNL     1       2.443  -0.041   0.415  0.00  0.00    +0.040 A 
ATOM      5  C   UNL     1       1.746   0.071   1.611  0.00  0.00    +0.027 A 
ATOM      6  C   UNL     1       0.531   0.727   1.644  0.00  0.00    +0.051 A 
ATOM      7  C   UNL     1       0.004   1.276   0.485  0.00  0.00    +0.162 A 
ATOM      8  C   UNL     1       0.700   1.168  -0.713  0.00  0.00    +0.164 A 
ATOM      9  C   UNL     1       1.919   0.509  -0.746  0.00  0.00    +0.073 A 
ATOM     10  O   UNL     1       0.203   1.708  -1.859  0.00  0.00    -0.485 OA
ATOM     11  C   UNL     1      -1.191   2.035  -1.865  0.00  0.00    +0.270 C 
ATOM     12  C   UNL     1      -1.517   2.776  -0.562  0.00  0.00    +0.270 C 
ATOM     13  O   UNL     1      -1.200   1.912   0.536  0.00  0.00    -0.485 OA
ENDBRANCH   3   4
BRANCH   1  14
ATOM     14  C   UNL     1       6.109  -0.760  -0.062  0.00  0.00    +0.020 C 
BRANCH  14  15
ATOM     15  N   UNL     1       7.177   0.200  -0.369  0.00  0.00    +0.388 N 
ATOM     16  C   UNL     1       7.418   1.101   0.766  0.00  0.00    -0.095 C 
ATOM     17  H   UNL     1       6.847   0.812  -1.222  0.00  0.00    -0.081 HD
BRANCH  15  19
ATOM     18  C   UNL     1       9.520   0.534  -1.000  0.00  0.00    -0.008 C 
ATOM     19  C   UNL     1       8.411  -0.493  -0.762  0.00  0.00    -0.041 C 
BRANCH  19  20
ATOM     20  C   UNL     1       8.168  -1.272  -2.028  0.00  0.00    -0.061 A 
ATOM     21  C   UNL     1       7.517  -0.675  -3.092  0.00  0.00    +0.004 A 
ATOM     22  C   UNL     1       7.298  -1.385  -4.256  0.00  0.00    +0.028 A 
ATOM     23  C   UNL     1       7.722  -2.704  -4.354  0.00  0.00    +0.067 A 
ATOM     24  C   UNL     1       8.371  -3.302  -3.282  0.00  0.00    +0.028 A 
ATOM     25  C   UNL     1       8.592  -2.585  -2.123  0.00  0.00    +0.004 A 
BRANCH  23  26
ATOM     26  N   UNL     1       7.496  -3.429  -5.532  0.00  0.00    -0.220 N 
ATOM     27  C   UNL     1       6.879  -2.988  -6.646  0.00  0.00    +0.225 A 
ATOM     28  N   UNL     1       6.872  -3.964  -7.518  0.00  0.00    -0.222 NA
ATOM     29  C   UNL     1       7.463  -5.039  -6.998  0.00  0.00    +0.245 A 
ATOM     30  N   UNL     1       7.862  -4.761  -5.785  0.00  0.00    -0.154 NA
ENDBRANCH  23  26
ENDBRANCH  19  20
ENDBRANCH  15  19
ENDBRANCH  14  15
ENDBRANCH   1  14
BRANCH   3  31
ATOM     31  C   UNL     1       3.739  -2.144   0.658  0.00  0.00    +0.156 C 
BRANCH  31  32
ATOM     32  C   UNL     1       3.576  -2.910  -0.629  0.00  0.00    +0.007 A 
ATOM     33  C   UNL     1       4.526  -3.326  -1.502  0.00  0.00    +0.013 A 
ATOM     34  C   UNL     1       4.140  -4.023  -2.631  0.00  0.00    +0.008 A 
ATOM     35  C   UNL     1       2.823  -4.271  -2.833  0.00  0.00    +0.045 A 
ATOM     36  S   UNL     1       2.081  -3.513  -1.396  0.00  0.00    -0.100 S 
ENDBRANCH  31  32
ENDBRANCH   3  31
TORSDOF 8
