REMARK  Name = ZINC40984032
REMARK  13 active torsions:
REMARK  status: ('A' for Active; 'I' for Inactive)
REMARK    1  A    between atoms: C_1  and  C_2
REMARK    2  A    between atoms: C_2  and  C_3
REMARK    3  A    between atoms: C_3  and  N_4
REMARK    4  A    between atoms: N_4  and  C_5
REMARK    5  A    between atoms: C_5  and  C_6
REMARK    6  A    between atoms: C_6  and  C_7
REMARK    7  A    between atoms: C_8  and  C_10
REMARK    8  A    between atoms: N_13  and  C_16
REMARK    9  A    between atoms: C_16  and  C_17
REMARK   10  A    between atoms: C_18  and  C_31
REMARK   11  A    between atoms: C_20  and  C_22
REMARK   12  A    between atoms: C_27  and  O_28
REMARK   13  A    between atoms: O_28  and  C_29
REMARK                            x       y       z     vdW  Elec       q    Type
REMARK                         _______ _______ _______ _____ _____    ______ ____
ROOT
ATOM      1  C   UNL     1      -1.208  -1.839   2.662  0.00  0.00    +0.072 C 
ATOM      2  C   UNL     1      -0.539  -1.063   3.800  0.00  0.00    -0.006 C 
ATOM      3  C   UNL     1      -1.612  -0.333   4.611  0.00  0.00    -0.078 C 
ATOM      4  N   UNL     1      -2.555  -1.308   5.171  0.00  0.00    +0.383 N 
ATOM      5  C   UNL     1      -3.253  -2.006   4.085  0.00  0.00    -0.078 C 
ATOM      6  C   UNL     1      -2.244  -2.800   3.253  0.00  0.00    -0.006 C 
ATOM      7  H   UNL     1      -2.051  -1.979   5.731  0.00  0.00    -0.081 HD
ENDROOT
BRANCH   1   9
ATOM      8  N   UNL     1       0.608  -2.007   0.991  0.00  0.00    -0.301 N 
ATOM      9  C   UNL     1      -0.167  -2.623   1.906  0.00  0.00    +0.219 C 
ATOM     10  O   UNL     1      -0.025  -3.808   2.121  0.00  0.00    -0.275 OA
BRANCH   8  11
ATOM     11  C   UNL     1       1.543  -2.788   0.178  0.00  0.00    +0.107 C 
BRANCH  11  13
ATOM     12  C   UNL     1       3.833  -3.784   0.092  0.00  0.00    +0.005 C 
ATOM     13  C   UNL     1       2.856  -2.968   0.942  0.00  0.00    +0.016 C 
ENDBRANCH  11  13
ENDBRANCH   8  11
BRANCH   8  14
ATOM     14  C   UNL     1       0.515  -0.556   0.810  0.00  0.00    +0.107 C 
BRANCH  14  15
ATOM     15  C   UNL     1      -0.440  -0.246  -0.344  0.00  0.00    +0.016 C 
ATOM     16  C   UNL     1      -0.537   1.269  -0.533  0.00  0.00    +0.005 C 
ENDBRANCH  14  15
ENDBRANCH   8  14
ENDBRANCH   1   9
BRANCH   4  17
ATOM     17  C   UNL     1      -3.537  -0.610   6.013  0.00  0.00    -0.019 C 
BRANCH  17  18
ATOM     18  C   UNL     1      -4.430  -1.621   6.685  0.00  0.00    +0.066 A 
ATOM     19  C   UNL     1      -5.584  -2.108   6.196  0.00  0.00    +0.124 A 
ATOM     20  O   UNL     1      -6.066  -2.982   7.102  0.00  0.00    -0.440 OA
ATOM     21  C   UNL     1      -5.205  -3.019   8.133  0.00  0.00    +0.231 A 
ATOM     22  N   UNL     1      -4.212  -2.198   7.877  0.00  0.00    -0.216 NA
ATOM     23  C   UNL     1      -6.219  -1.744   4.878  0.00  0.00    +0.088 C 
BRANCH  21  24
ATOM     24  C   UNL     1      -5.348  -3.847   9.347  0.00  0.00    +0.079 A 
ATOM     25  C   UNL     1      -4.382  -3.790  10.353  0.00  0.00    +0.032 A 
ATOM     26  C   UNL     1      -4.521  -4.566  11.486  0.00  0.00    +0.019 A 
ATOM     27  C   UNL     1      -5.616  -5.403  11.628  0.00  0.00    +0.019 A 
ATOM     28  C   UNL     1      -6.579  -5.467  10.638  0.00  0.00    +0.047 A 
ATOM     29  C   UNL     1      -6.456  -4.689   9.498  0.00  0.00    +0.132 A 
ATOM     30 BR   UNL     1      -3.212  -4.489  12.848  0.00  0.00    -0.050 Br
BRANCH  29  31
ATOM     31  O   UNL     1      -7.405  -4.748   8.528  0.00  0.00    -0.494 OA
ATOM     32  C   UNL     1      -8.507  -5.630   8.751  0.00  0.00    +0.277 C 
ENDBRANCH  29  31
ENDBRANCH  21  24
ENDBRANCH  17  18
ENDBRANCH   4  17
TORSDOF 9
