REMARK  Name = ZINC09969423
REMARK  6 active torsions:
REMARK  status: ('A' for Active; 'I' for Inactive)
REMARK    1  A    between atoms: C_1  and  C_2
REMARK    2  A    between atoms: C_5  and  N_9
REMARK    3  A    between atoms: C_6  and  C_8
REMARK    4  A    between atoms: N_12  and  C_15
REMARK    5  A    between atoms: C_23  and  C_24
REMARK    6  A    between atoms: C_24  and  C_26
REMARK                            x       y       z     vdW  Elec       q    Type
REMARK                         _______ _______ _______ _____ _____    ______ ____
ROOT
ATOM      1  C   UNL     1       5.212  -1.626   0.749  0.00  0.00    +0.051 A 
ATOM      2  C   UNL     1       5.030  -3.026   0.825  0.00  0.00    +0.024 A 
ATOM      3  C   UNL     1       3.992  -3.581   1.587  0.00  0.00    +0.061 A 
ATOM      4  C   UNL     1       3.837  -4.938   1.647  0.00  0.00    +0.163 A 
ATOM      5  C   UNL     1       4.708  -5.784   0.947  0.00  0.00    +0.164 A 
ATOM      6  C   UNL     1       5.736  -5.262   0.191  0.00  0.00    +0.075 A 
ATOM      7  C   UNL     1       5.915  -3.874   0.116  0.00  0.00    +0.052 A 
ATOM      8  C   UNL     1       7.104  -2.061  -0.704  0.00  0.00    +0.096 A 
ATOM      9  C   UNL     1       6.271  -1.144  -0.039  0.00  0.00    +0.060 A 
ATOM     10  O   UNL     1       4.552  -7.135   1.002  0.00  0.00    -0.485 OA
ATOM     11  C   UNL     1       3.746  -7.648   2.067  0.00  0.00    +0.270 C 
ATOM     12  C   UNL     1       2.461  -6.813   2.144  0.00  0.00    +0.270 C 
ATOM     13  O   UNL     1       2.825  -5.452   2.400  0.00  0.00    -0.485 OA
ATOM     14  N   UNL     1       6.962  -3.401  -0.656  0.00  0.00    -0.360 N 
ATOM     15  H   UNL     1       7.592  -4.033  -1.163  0.00  0.00    +0.165 HD
ENDROOT
BRANCH   1  19
ATOM     16  N   UNL     1       3.490   1.784   2.336  0.00  0.00    -0.327 N 
ATOM     17  C   UNL     1       2.769   1.079   1.267  0.00  0.00    +0.124 C 
ATOM     18  C   UNL     1       3.748   0.191   0.495  0.00  0.00    +0.124 C 
ATOM     19  N   UNL     1       4.376  -0.762   1.421  0.00  0.00    -0.326 N 
ATOM     20  C   UNL     1       5.096  -0.057   2.490  0.00  0.00    +0.124 C 
ATOM     21  C   UNL     1       4.117   0.831   3.262  0.00  0.00    +0.124 C 
BRANCH  16  26
ATOM     22  C   UNL     1       0.045   5.340   5.102  0.00  0.00    +0.044 C 
ATOM     23  C   UNL     1       0.961   4.395   4.368  0.00  0.00    -0.050 A 
ATOM     24  C   UNL     1       0.721   3.034   4.404  0.00  0.00    +0.005 A 
ATOM     25  C   UNL     1       1.560   2.165   3.736  0.00  0.00    +0.023 A 
ATOM     26  C   UNL     1       2.642   2.660   3.018  0.00  0.00    +0.033 A 
ATOM     27  C   UNL     1       2.878   4.028   2.980  0.00  0.00    -0.029 A 
ATOM     28  C   UNL     1       2.037   4.892   3.655  0.00  0.00    +0.008 A 
ATOM     29  C   UNL     1       4.050   4.570   2.203  0.00  0.00    +0.045 C 
ENDBRANCH  16  26
ENDBRANCH   1  19
BRANCH   9  30
ATOM     30  C   UNL     1       6.508   0.301  -0.163  0.00  0.00    +0.196 C 
ATOM     31  O   UNL     1       7.076   0.903   0.729  0.00  0.00    -0.287 OA
BRANCH  30  32
ATOM     32  C   UNL     1       6.057   1.024  -1.371  0.00  0.00    +0.022 A 
ATOM     33  C   UNL     1       5.524   0.318  -2.452  0.00  0.00    +0.012 A 
ATOM     34  C   UNL     1       5.099   0.999  -3.574  0.00  0.00    +0.001 A 
ATOM     35  C   UNL     1       5.211   2.377  -3.635  0.00  0.00    +0.000 A 
ATOM     36  C   UNL     1       5.743   3.082  -2.570  0.00  0.00    +0.001 A 
ATOM     37  C   UNL     1       6.167   2.414  -1.439  0.00  0.00    +0.012 A 
ENDBRANCH  30  32
ENDBRANCH   9  30
TORSDOF 4
