REMARK  Name = ZINC14954767
REMARK  5 active torsions:
REMARK  status: ('A' for Active; 'I' for Inactive)
REMARK    1  A    between atoms: C_4  and  C_7
REMARK    2  A    between atoms: C_7  and  N_66
REMARK    3  A    between atoms: C_13  and  C_15
REMARK    4  A    between atoms: C_15  and  C_16
REMARK    5  A    between atoms: C_21  and  N_68
REMARK                            x       y       z     vdW  Elec       q    Type
REMARK                         _______ _______ _______ _____ _____    ______ ____
ROOT
ATOM      1  C   UNL     1       1.496   2.451  -0.256  0.00  0.00    -0.059 C 
ATOM      2  C   UNL     1       1.341   0.959  -0.560  0.00  0.00    +0.085 C 
ATOM      3  N   UNL     1      -0.025   0.677  -0.992  0.00  0.00    -0.318 N 
ATOM      4  C   UNL     1      -0.863   1.625  -1.424  0.00  0.00    +0.200 C 
ATOM      5  O   UNL     1      -1.972   1.298  -1.790  0.00  0.00    -0.278 OA
ATOM      6  C   UNL     1      -0.489   3.079  -1.473  0.00  0.00    +0.028 C 
ATOM      7  H   UNL     1      -0.339  -0.241  -0.963  0.00  0.00    +0.149 HD
ATOM      8  N   UNL     1       0.979   3.212  -1.410  0.00  0.00    +0.389 N 
ATOM      9  H   UNL     1       1.387   2.833  -2.272  0.00  0.00    -0.081 HD
ENDROOT
BRANCH   8  10
ATOM     10  C   UNL     1       1.353   4.639  -1.287  0.00  0.00    -0.074 C 
BRANCH  10  14
ATOM     11  C   UNL     1       5.498   5.728  -1.889  0.00  0.00    +0.000 C 
ATOM     12  C   UNL     1       4.425   6.553  -2.602  0.00  0.00    +0.000 C 
ATOM     13  C   UNL     1       3.075   6.338  -1.913  0.00  0.00    +0.002 C 
ATOM     14  C   UNL     1       2.703   4.855  -1.975  0.00  0.00    -0.028 C 
ATOM     15  C   UNL     1       3.776   4.029  -1.262  0.00  0.00    +0.002 C 
ATOM     16  C   UNL     1       5.125   4.245  -1.950  0.00  0.00    +0.000 C 
ENDBRANCH  10  14
ENDBRANCH   8  10
BRANCH   6  17
ATOM     17  C   UNL     1      -0.988   3.688  -2.785  0.00  0.00    +0.090 C 
BRANCH  17  18
ATOM     18  C   UNL     1      -0.284   3.031  -3.944  0.00  0.00    +0.214 C 
ATOM     19  O   UNL     1       0.481   2.111  -3.745  0.00  0.00    -0.276 OA
ATOM     20  N   UNL     1      -0.504   3.466  -5.200  0.00  0.00    -0.302 N 
ATOM     21  C   UNL     1      -1.432   4.575  -5.457  0.00  0.00    +0.106 C 
ATOM     22  C   UNL     1      -2.463   4.131  -6.493  0.00  0.00    +0.004 C 
ATOM     23  C   UNL     1      -1.741   3.615  -7.739  0.00  0.00    -0.066 C 
ATOM     24  C   UNL     1      -0.878   2.407  -7.367  0.00  0.00    +0.004 C 
ATOM     25  C   UNL     1       0.176   2.835  -6.340  0.00  0.00    +0.106 C 
BRANCH  23  31
ATOM     26  C   UNL     1      -3.359   4.389  -9.360  0.00  0.00    -0.068 C 
ATOM     27  C   UNL     1      -4.020   3.993 -10.686  0.00  0.00    +0.050 C 
ATOM     28  S   UNL     1      -5.309   2.757 -10.337  0.00  0.00    -0.164 S 
ATOM     29  C   UNL     1      -4.428   1.537  -9.314  0.00  0.00    +0.050 C 
ATOM     30  C   UNL     1      -3.709   2.283  -8.184  0.00  0.00    -0.068 C 
ATOM     31  N   UNL     1      -2.705   3.199  -8.774  0.00  0.00    +0.383 N 
ATOM     32  H   UNL     1      -2.200   2.701  -9.516  0.00  0.00    -0.081 HD
ENDBRANCH  23  31
ENDBRANCH  17  18
ENDBRANCH   6  17
TORSDOF 5
