REMARK  Name = ZINC39778657
REMARK  5 active torsions:
REMARK  status: ('A' for Active; 'I' for Inactive)
REMARK    1  A    between atoms: C_9  and  C_12
REMARK    2  A    between atoms: C_10  and  O_11
REMARK    3  A    between atoms: N_17  and  C_20
REMARK    4  A    between atoms: C_20  and  C_21
REMARK    5  A    between atoms: C_26  and  C_31
REMARK                            x       y       z     vdW  Elec       q    Type
REMARK                         _______ _______ _______ _____ _____    ______ ____
ROOT
ATOM      1  C   UNL     1       4.969  -2.729  -0.058  0.00  0.00    +0.250 C 
ATOM      2  O   UNL     1       3.910  -2.137   0.027  0.00  0.00    -0.270 OA
ATOM      3  N   UNL     1       4.982  -4.073  -0.166  0.00  0.00    -0.295 N 
ATOM      4  C   UNL     1       3.729  -4.834  -0.276  0.00  0.00    +0.123 C 
ATOM      5  C   UNL     1       3.832  -5.771  -1.484  0.00  0.00    +0.104 C 
ATOM      6  N   UNL     1       5.047  -6.588  -1.363  0.00  0.00    -0.292 NA
ATOM      7  C   UNL     1       6.255  -5.754  -1.389  0.00  0.00    +0.104 C 
ATOM      8  C   UNL     1       6.251  -4.816  -0.183  0.00  0.00    +0.123 C 
ENDROOT
BRANCH   1  17
ATOM      9  C   UNL     1      10.054   1.157  -0.831  0.00  0.00    +0.001 A 
ATOM     10  C   UNL     1       9.066   1.521  -1.742  0.00  0.00    +0.001 A 
ATOM     11  C   UNL     1       7.878   0.855  -1.789  0.00  0.00    +0.012 A 
ATOM     12  C   UNL     1       7.645  -0.214  -0.909  0.00  0.00    +0.024 A 
ATOM     13  C   UNL     1       8.650  -0.585   0.018  0.00  0.00    -0.014 A 
ATOM     14  C   UNL     1       9.862   0.125   0.038  0.00  0.00    +0.008 A 
ATOM     15  C   UNL     1       8.423  -1.656   0.903  0.00  0.00    +0.009 A 
ATOM     16  C   UNL     1       7.247  -2.331   0.870  0.00  0.00    +0.017 A 
ATOM     17  C   UNL     1       6.236  -1.979  -0.043  0.00  0.00    +0.079 A 
ATOM     18  C   UNL     1       6.427  -0.924  -0.932  0.00  0.00    +0.137 A 
BRANCH  18  19
ATOM     19  O   UNL     1       5.453  -0.584  -1.810  0.00  0.00    -0.505 OA
ATOM     20  H   UNL     1       5.509  -1.047  -2.658  0.00  0.00    +0.292 HD
ENDBRANCH  18  19
ENDBRANCH   1  17
BRANCH   6  21
ATOM     21  C   UNL     1       5.095  -7.617  -2.410  0.00  0.00    +0.158 C 
BRANCH  21  22
ATOM     22  C   UNL     1       6.213  -8.584  -2.114  0.00  0.00    +0.138 C 
ATOM     23  N   UNL     1       6.941  -8.398  -1.036  0.00  0.00    -0.160 NA
ATOM     24  C   UNL     1       7.947  -9.216  -0.713  0.00  0.00    +0.272 C 
ATOM     25  O   UNL     1       8.610  -9.024   0.294  0.00  0.00    -0.268 OA
ATOM     26  C   UNL     1       8.240 -10.367  -1.611  0.00  0.00    +0.076 C 
ATOM     27  C   UNL     1       9.233 -11.324  -1.454  0.00  0.00    -0.009 C 
ATOM     28  C   UNL     1       9.314 -12.395  -2.519  0.00  0.00    +0.113 C 
ATOM     29  S   UNL     1       7.939 -11.897  -3.633  0.00  0.00    -0.100 S 
ATOM     30  C   UNL     1       7.386 -10.463  -2.742  0.00  0.00    +0.112 C 
ATOM     31  N   UNL     1       6.422  -9.590  -2.945  0.00  0.00    -0.226 NA
BRANCH  27  32
ATOM     32  C   UNL     1      10.114 -11.299  -0.367  0.00  0.00    +0.017 A 
ATOM     33  C   UNL     1      10.259 -12.225   0.674  0.00  0.00    +0.016 A 
ATOM     34  C   UNL     1      11.217 -11.924   1.601  0.00  0.00    +0.008 A 
ATOM     35  C   UNL     1      11.944 -10.781   1.458  0.00  0.00    +0.046 A 
ATOM     36  S   UNL     1      11.351 -10.084   0.050  0.00  0.00    -0.097 S 
ENDBRANCH  27  32
ENDBRANCH  21  22
ENDBRANCH   6  21
TORSDOF 5
