REMARK  Name = ZINC14092621
REMARK  15 active torsions:
REMARK  status: ('A' for Active; 'I' for Inactive)
REMARK    1  A    between atoms: C_1  and  C_2
REMARK    2  A    between atoms: C_2  and  C_3
REMARK    3  A    between atoms: C_2  and  C_4
REMARK    4  A    between atoms: C_2  and  C_5
REMARK    5  A    between atoms: C_8  and  C_11
REMARK    6  A    between atoms: C_14  and  S_17
REMARK    7  A    between atoms: N_15  and  C_16
REMARK    8  A    between atoms: S_17  and  C_18
REMARK    9  A    between atoms: C_18  and  C_19
REMARK   10  A    between atoms: N_21  and  C_22
REMARK   11  A    between atoms: C_23  and  C_36
REMARK   12  A    between atoms: C_28  and  C_32
REMARK   13  A    between atoms: C_32  and  C_33
REMARK   14  A    between atoms: C_32  and  C_34
REMARK   15  A    between atoms: C_32  and  C_35
REMARK                            x       y       z     vdW  Elec       q    Type
REMARK                         _______ _______ _______ _____ _____    ______ ____
ROOT
ATOM      1  C   UNL     1      -5.105   3.273  -0.144  0.00  0.00    +0.228 C 
ATOM      2  O   UNL     1      -5.583   2.173  -0.325  0.00  0.00    -0.275 OA
ATOM      3  N   UNL     1      -5.910   4.347  -0.031  0.00  0.00    -0.278 N 
ATOM      4  H   UNL     1      -5.528   5.227   0.114  0.00  0.00    +0.155 HD
ENDROOT
BRANCH   3   5
ATOM      5  C   UNL     1      -7.287   4.195  -0.122  0.00  0.00    +0.090 A 
ATOM      6  C   UNL     1      -8.270   5.169  -0.026  0.00  0.00    +0.084 A 
ATOM      7  C   UNL     1      -9.652   4.745  -0.162  0.00  0.00    -0.018 A 
ATOM      8  C   UNL     1      -9.830   3.420  -0.360  0.00  0.00    -0.004 A 
ATOM      9  S   UNL     1      -8.195   2.741  -0.375  0.00  0.00    -0.077 S 
ATOM     10  C   UNL     1     -11.132   2.699  -0.530  0.00  0.00    +0.047 C 
ATOM     11  C   UNL     1     -12.226   3.737  -0.820  0.00  0.00    -0.000 C 
ATOM     12  C   UNL     1     -12.105   4.878   0.195  0.00  0.00    +0.009 C 
ATOM     13  C   UNL     1     -10.842   5.694  -0.086  0.00  0.00    +0.037 C 
BRANCH  11  14
ATOM     14  C   UNL     1     -13.602   3.082  -0.693  0.00  0.00    -0.035 C 
ATOM     15  C   UNL     1     -13.780   2.539   0.726  0.00  0.00    +0.011 C 
ATOM     16  C   UNL     1     -14.690   4.118  -0.983  0.00  0.00    +0.011 C 
ATOM     17  C   UNL     1     -13.713   1.932  -1.697  0.00  0.00    +0.011 C 
ENDBRANCH  11  14
BRANCH   6  18
ATOM     18  C   UNL     1      -7.934   6.543   0.195  0.00  0.00    +0.102 C 
ATOM     19  N   UNL     1      -7.667   7.634   0.370  0.00  0.00    -0.191 NA
ENDBRANCH   6  18
ENDBRANCH   3   5
BRANCH   1  20
ATOM     20  C   UNL     1      -3.610   3.438  -0.045  0.00  0.00    +0.173 C 
BRANCH  20  21
ATOM     21  S   UNL     1      -2.811   1.825  -0.236  0.00  0.00    -0.077 S 
BRANCH  21  25
ATOM     22  C   UNL     1       1.061   2.284   0.018  0.00  0.00    +0.165 A 
ATOM     23  N   UNL     1       0.615   3.509   0.173  0.00  0.00    -0.128 NA
ATOM     24  N   UNL     1      -0.669   3.519   0.117  0.00  0.00    -0.122 NA
ATOM     25  C   UNL     1      -1.121   2.301  -0.083  0.00  0.00    +0.192 A 
ATOM     26  N   UNL     1      -0.038   1.472  -0.147  0.00  0.00    -0.305 N 
ATOM     27  C   UNL     1      -0.043   0.022  -0.354  0.00  0.00    +0.153 C 
BRANCH  22  31
ATOM     28  C   UNL     1       5.128   1.059   0.026  0.00  0.00    -0.042 A 
ATOM     29  C   UNL     1       4.810   2.391  -0.173  0.00  0.00    +0.005 A 
ATOM     30  C   UNL     1       3.491   2.796  -0.177  0.00  0.00    +0.012 A 
ATOM     31  C   UNL     1       2.476   1.858   0.021  0.00  0.00    +0.019 A 
ATOM     32  C   UNL     1       2.804   0.517   0.226  0.00  0.00    +0.012 A 
ATOM     33  C   UNL     1       4.127   0.125   0.222  0.00  0.00    +0.005 A 
BRANCH  28  35
ATOM     34  C   UNL     1       7.321   1.356   1.144  0.00  0.00    +0.015 C 
ATOM     35  C   UNL     1       6.571   0.625   0.029  0.00  0.00    -0.013 C 
ATOM     36  C   UNL     1       6.648  -0.885   0.267  0.00  0.00    +0.015 C 
ATOM     37  C   UNL     1       7.208   0.962  -1.321  0.00  0.00    +0.015 C 
ENDBRANCH  28  35
ENDBRANCH  22  31
ENDBRANCH  21  25
ENDBRANCH  20  21
ENDBRANCH   1  20
TORSDOF 8
