REMARK  Name = ZINC22704462
REMARK  7 active torsions:
REMARK  status: ('A' for Active; 'I' for Inactive)
REMARK    1  A    between atoms: C_1  and  C_2
REMARK    2  A    between atoms: C_7  and  C_27
REMARK    3  A    between atoms: C_17  and  C_19
REMARK    4  A    between atoms: C_24  and  O_25
REMARK    5  A    between atoms: O_25  and  C_26
REMARK    6  A    between atoms: C_30  and  O_33
REMARK    7  A    between atoms: O_33  and  C_34
REMARK                            x       y       z     vdW  Elec       q    Type
REMARK                         _______ _______ _______ _____ _____    ______ ____
ROOT
ATOM      1  C   UNL     1       2.841   0.719   0.014  0.00  0.00    +0.008 C 
ATOM      2  C   UNL     1       2.166  -0.654   0.038  0.00  0.00    -0.001 C 
ATOM      3  C   UNL     1       2.886  -1.601  -0.921  0.00  0.00    +0.055 C 
ATOM      4  C   UNL     1       2.225  -2.970  -0.889  0.00  0.00    +0.017 C 
ATOM      5  C   UNL     1       1.677  -3.433   0.246  0.00  0.00    +0.037 C 
ATOM      6  C   UNL     1       1.011  -4.777   0.424  0.00  0.00    +0.147 C 
ATOM      7  N   UNL     1       0.750  -5.485  -0.811  0.00  0.00    -0.254 N 
ATOM      8  C   UNL     1       1.796  -5.922  -1.625  0.00  0.00    +0.059 A 
ATOM      9  C   UNL     1       2.033  -7.270  -1.837  0.00  0.00    +0.025 A 
ATOM     10  C   UNL     1       3.110  -7.657  -2.615  0.00  0.00    +0.002 A 
ATOM     11  C   UNL     1       3.946  -6.708  -3.176  0.00  0.00    +0.002 A 
ATOM     12  C   UNL     1       3.702  -5.360  -2.979  0.00  0.00    +0.025 A 
ATOM     13  C   UNL     1       2.613  -4.971  -2.218  0.00  0.00    +0.053 A 
ATOM     14  N   UNL     1       2.250  -3.638  -2.070  0.00  0.00    -0.316 N 
ATOM     15  C   UNL     1      -0.523  -5.726  -1.181  0.00  0.00    +0.255 C 
ATOM     16  O   UNL     1      -1.442  -5.244  -0.548  0.00  0.00    -0.269 OA
ATOM     17  C   UNL     1       1.680  -2.637   1.416  0.00  0.00    +0.163 C 
ATOM     18  O   UNL     1       1.194  -3.091   2.434  0.00  0.00    -0.292 OA
ATOM     19  C   UNL     1       2.258  -1.254   1.446  0.00  0.00    +0.083 C 
ATOM     20  H   UNL     1       1.995  -3.150  -2.869  0.00  0.00    +0.152 HD
ENDROOT
BRANCH  15  21
ATOM     21  C   UNL     1      -0.802  -6.576  -2.355  0.00  0.00    +0.079 A 
ATOM     22  C   UNL     1       0.131  -6.670  -3.391  0.00  0.00    +0.017 A 
ATOM     23  C   UNL     1      -0.135  -7.466  -4.484  0.00  0.00    +0.001 A 
ATOM     24  C   UNL     1      -1.324  -8.173  -4.561  0.00  0.00    +0.004 A 
ATOM     25  C   UNL     1      -2.255  -8.088  -3.545  0.00  0.00    +0.046 A 
ATOM     26  C   UNL     1      -2.001  -7.297  -2.434  0.00  0.00    +0.132 A 
BRANCH  26  27
ATOM     27  O   UNL     1      -2.911  -7.217  -1.432  0.00  0.00    -0.494 OA
ATOM     28  C   UNL     1      -4.110  -7.980  -1.582  0.00  0.00    +0.277 C 
ENDBRANCH  26  27
ENDBRANCH  15  21
BRANCH   6  29
ATOM     29  C   UNL     1       1.896  -5.638   1.288  0.00  0.00    -0.022 A 
ATOM     30  C   UNL     1       1.444  -6.075   2.519  0.00  0.00    +0.009 A 
ATOM     31  C   UNL     1       2.254  -6.864   3.313  0.00  0.00    +0.046 A 
ATOM     32  C   UNL     1       3.521  -7.219   2.873  0.00  0.00    +0.120 A 
ATOM     33  C   UNL     1       3.971  -6.780   1.637  0.00  0.00    +0.046 A 
ATOM     34  C   UNL     1       3.156  -5.995   0.845  0.00  0.00    +0.009 A 
BRANCH  32  35
ATOM     35  O   UNL     1       4.319  -7.995   3.652  0.00  0.00    -0.495 OA
ATOM     36  C   UNL     1       5.611  -8.322   3.135  0.00  0.00    +0.277 C 
ENDBRANCH  32  35
ENDBRANCH   6  29
TORSDOF 4
