REMARK  Name = ZINC09311219
REMARK  7 active torsions:
REMARK  status: ('A' for Active; 'I' for Inactive)
REMARK    1  A    between atoms: C_1  and  C_2
REMARK    2  A    between atoms: C_2  and  C_3
REMARK    3  A    between atoms: C_6  and  N_9
REMARK    4  A    between atoms: C_10  and  C_12
REMARK    5  A    between atoms: C_12  and  C_24
REMARK    6  A    between atoms: C_13  and  C_14
REMARK    7  A    between atoms: C_16  and  N_21
REMARK                            x       y       z     vdW  Elec       q    Type
REMARK                         _______ _______ _______ _____ _____    ______ ____
ROOT
ATOM      1  C   UNL     1      -0.269   0.726   0.115  0.00  0.00    +0.114 C 
ATOM      2  C   UNL     1       1.058   1.068   0.259  0.00  0.00    +0.032 C 
ENDROOT
BRANCH   2   3
ATOM      3  C   UNL     1       2.072   0.022   0.405  0.00  0.00    -0.020 A 
ATOM      4  C   UNL     1       3.390   0.255  -0.015  0.00  0.00    +0.044 A 
ATOM      5  C   UNL     1       4.335  -0.721   0.128  0.00  0.00    +0.174 A 
ATOM      6  C   UNL     1       3.994  -1.951   0.680  0.00  0.00    +0.222 A 
ATOM      7  C   UNL     1       2.689  -2.196   1.096  0.00  0.00    +0.063 A 
ATOM      8  C   UNL     1       1.729  -1.219   0.962  0.00  0.00    +0.026 A 
ATOM      9  I   UNL     1       2.185  -4.052   1.926  0.00  0.00    -0.040 I 
ATOM     10  O   UNL     1       4.938  -2.916   0.814  0.00  0.00    -0.284 OA
BRANCH   5  11
ATOM     11  N   UNL     1       5.726  -0.469  -0.311  0.00  0.00    +0.060 N 
ATOM     12  O   UNL     1       6.027   0.607  -0.794  0.00  0.00    -0.126 OA
ATOM     13  O   UNL     1       6.569  -1.339  -0.189  0.00  0.00    -0.126 OA
ENDBRANCH   5  11
ENDBRANCH   2   3
BRANCH   1  15
ATOM     14  N   UNL     1      -2.603   1.435  -0.001  0.00  0.00    -0.281 N 
ATOM     15  C   UNL     1      -1.305   1.770   0.145  0.00  0.00    +0.259 C 
ATOM     16  O   UNL     1      -0.991   2.934   0.302  0.00  0.00    -0.269 OA
ATOM     17  H   UNL     1      -2.860   0.501  -0.049  0.00  0.00    +0.155 HD
BRANCH  14  21
ATOM     18  C   UNL     1      -5.505   4.413  -0.244  0.00  0.00    -0.048 A 
ATOM     19  C   UNL     1      -4.210   4.678  -0.648  0.00  0.00    +0.005 A 
ATOM     20  C   UNL     1      -3.245   3.693  -0.569  0.00  0.00    +0.023 A 
ATOM     21  C   UNL     1      -3.577   2.435  -0.082  0.00  0.00    +0.034 A 
ATOM     22  C   UNL     1      -4.880   2.171   0.318  0.00  0.00    +0.023 A 
ATOM     23  C   UNL     1      -5.840   3.161   0.241  0.00  0.00    +0.005 A 
BRANCH  18  25
ATOM     24  C   UNL     1      -7.240   5.425  -1.699  0.00  0.00    +0.009 C 
ATOM     25  C   UNL     1      -6.556   5.490  -0.332  0.00  0.00    +0.032 C 
ENDBRANCH  18  25
ENDBRANCH  14  21
ENDBRANCH   1  15
BRANCH   1  26
ATOM     26  C   UNL     1      -0.639  -0.645  -0.069  0.00  0.00    +0.104 C 
ATOM     27  N   UNL     1      -0.932  -1.733  -0.215  0.00  0.00    -0.191 NA
ENDBRANCH   1  26
TORSDOF 6
