REMARK  Name = ZINC40110418
REMARK  14 active torsions:
REMARK  status: ('A' for Active; 'I' for Inactive)
REMARK    1  A    between atoms: C_1  and  C_2
REMARK    2  A    between atoms: C_5  and  C_8
REMARK    3  A    between atoms: C_10  and  C_22
REMARK    4  A    between atoms: N_14  and  C_15
REMARK    5  A    between atoms: C_15  and  C_16
REMARK    6  A    between atoms: C_16  and  O_17
REMARK    7  A    between atoms: O_17  and  C_18
REMARK    8  A    between atoms: C_18  and  C_19
REMARK    9  A    between atoms: C_19  and  O_20
REMARK   10  A    between atoms: C_22  and  C_24
REMARK   11  A    between atoms: C_27  and  S_30
REMARK   12  A    between atoms: S_30  and  N_33
REMARK   13  A    between atoms: N_33  and  C_34
REMARK   14  A    between atoms: N_33  and  C_35
REMARK                            x       y       z     vdW  Elec       q    Type
REMARK                         _______ _______ _______ _____ _____    ______ ____
ROOT
ATOM      1  C   UNL     1       0.054  -4.237  -0.019  0.00  0.00    +0.145 C 
ATOM      2  C   UNL     1      -1.282  -4.804   0.400  0.00  0.00    +0.076 C 
ATOM      3  C   UNL     1      -1.060  -5.550   1.508  0.00  0.00    +0.249 C 
ATOM      4  C   UNL     1       0.379  -5.501   1.846  0.00  0.00    +0.288 C 
ATOM      5  O   UNL     1       0.893  -6.070   2.788  0.00  0.00    -0.266 OA
ATOM      6  N   UNL     1       1.034  -4.734   0.954  0.00  0.00    -0.281 N 
ATOM      7  O   UNL     1      -2.004  -6.230   2.197  0.00  0.00    -0.282 OA
ENDROOT
BRANCH   1  12
ATOM      8  C   UNL     1      -0.117   1.538   0.104  0.00  0.00    +0.044 C 
ATOM      9  C   UNL     1      -0.072   0.032   0.072  0.00  0.00    -0.050 A 
ATOM     10  C   UNL     1       0.042  -0.631  -1.136  0.00  0.00    +0.004 A 
ATOM     11  C   UNL     1       0.083  -2.012  -1.165  0.00  0.00    +0.006 A 
ATOM     12  C   UNL     1       0.011  -2.731   0.013  0.00  0.00    -0.022 A 
ATOM     13  C   UNL     1      -0.102  -2.068   1.221  0.00  0.00    +0.006 A 
ATOM     14  C   UNL     1      -0.139  -0.687   1.251  0.00  0.00    +0.004 A 
ENDBRANCH   1  12
BRANCH   2  15
ATOM     15  C   UNL     1      -2.570  -4.589  -0.265  0.00  0.00    +0.195 C 
ATOM     16  O   UNL     1      -3.453  -3.974   0.303  0.00  0.00    -0.287 OA
BRANCH  15  17
ATOM     17  C   UNL     1      -2.797  -5.119  -1.627  0.00  0.00    +0.022 A 
ATOM     18  C   UNL     1      -1.834  -5.927  -2.235  0.00  0.00    +0.013 A 
ATOM     19  C   UNL     1      -2.052  -6.418  -3.505  0.00  0.00    +0.029 A 
ATOM     20  C   UNL     1      -3.222  -6.111  -4.177  0.00  0.00    +0.105 A 
ATOM     21  C   UNL     1      -4.181  -5.311  -3.581  0.00  0.00    +0.029 A 
ATOM     22  C   UNL     1      -3.978  -4.818  -2.309  0.00  0.00    +0.013 A 
BRANCH  20  23
ATOM     23  S   UNL     1      -3.492  -6.742  -5.800  0.00  0.00    +0.060 S 
ATOM     24  O   UNL     1      -4.418  -5.866  -6.427  0.00  0.00    -0.153 OA
ATOM     25  O   UNL     1      -2.210  -7.014  -6.348  0.00  0.00    -0.153 OA
BRANCH  23  26
ATOM     26  N   UNL     1      -4.257  -8.202  -5.637  0.00  0.00    -0.183 NA
ATOM     27  C   UNL     1      -5.720  -8.262  -5.605  0.00  0.00    +0.131 C 
ATOM     28  C   UNL     1      -3.470  -9.432  -5.525  0.00  0.00    +0.131 C 
ENDBRANCH  23  26
ENDBRANCH  20  23
ENDBRANCH  15  17
ENDBRANCH   2  15
BRANCH   6  29
ATOM     29  C   UNL     1       2.471  -4.446   0.954  0.00  0.00    +0.137 C 
BRANCH  29  30
ATOM     30  C   UNL     1       2.738  -3.187   1.781  0.00  0.00    +0.179 C 
BRANCH  30  31
ATOM     31  O   UNL     1       2.402  -3.434   3.148  0.00  0.00    -0.376 OA
BRANCH  31  32
ATOM     32  C   UNL     1       2.616  -2.315   4.011  0.00  0.00    +0.187 C 
BRANCH  32  33
ATOM     33  C   UNL     1       2.224  -2.692   5.441  0.00  0.00    +0.184 C 
BRANCH  33  34
ATOM     34  O   UNL     1       3.101  -3.713   5.921  0.00  0.00    -0.393 OA
ATOM     35  H   UNL     1       2.911  -4.002   6.825  0.00  0.00    +0.209 HD
ENDBRANCH  33  34
ENDBRANCH  32  33
ENDBRANCH  31  32
ENDBRANCH  30  31
ENDBRANCH  29  30
ENDBRANCH   6  29
TORSDOF 11
