REMARK  Name = ZINC16913998
REMARK  10 active torsions:
REMARK  status: ('A' for Active; 'I' for Inactive)
REMARK    1  A    between atoms: C_1  and  C_2
REMARK    2  A    between atoms: C_2  and  C_4
REMARK    3  A    between atoms: C_2  and  O_6
REMARK    4  A    between atoms: O_6  and  C_7
REMARK    5  A    between atoms: C_10  and  C_15
REMARK    6  A    between atoms: C_12  and  O_13
REMARK    7  A    between atoms: O_13  and  C_14
REMARK    8  A    between atoms: N_19  and  N_23
REMARK    9  A    between atoms: C_24  and  C_26
REMARK   10  A    between atoms: C_29  and  N_32
REMARK                            x       y       z     vdW  Elec       q    Type
REMARK                         _______ _______ _______ _____ _____    ______ ____
ROOT
ATOM      1  C   UNL     1      -9.248   7.534   2.410  0.00  0.00    +0.028 C 
ATOM      2  C   UNL     1      -8.617   6.947   1.361  0.00  0.00    +0.079 C 
ATOM      3  C   UNL     1      -7.212   6.512   1.230  0.00  0.00    +0.275 C 
ATOM      4  O   UNL     1      -6.413   6.652   2.137  0.00  0.00    -0.267 OA
ATOM      5  N   UNL     1      -6.867   5.963   0.078  0.00  0.00    -0.169 N 
ATOM      6  C   UNL     1      -7.755   5.815  -0.927  0.00  0.00    +0.138 C 
ATOM      7  S   UNL     1      -7.501   5.141  -2.480  0.00  0.00    -0.026 S 
ATOM      8  S   UNL     1      -9.260   6.489  -0.243  0.00  0.00    -0.059 S 
ENDROOT
BRANCH   1  12
ATOM      9  C   UNL     1      -7.272   7.862   6.152  0.00  0.00    +0.163 A 
ATOM     10  C   UNL     1      -7.093   6.729   5.370  0.00  0.00    +0.050 A 
ATOM     11  C   UNL     1      -7.737   6.615   4.157  0.00  0.00    +0.012 A 
ATOM     12  C   UNL     1      -8.565   7.649   3.705  0.00  0.00    -0.020 A 
ATOM     13  C   UNL     1      -8.745   8.792   4.494  0.00  0.00    +0.057 A 
ATOM     14  C   UNL     1      -8.100   8.895   5.711  0.00  0.00    +0.162 A 
BRANCH  14  15
ATOM     15  O   UNL     1      -8.271  10.003   6.480  0.00  0.00    -0.491 OA
ATOM     16  C   UNL     1      -9.133  11.021   5.967  0.00  0.00    +0.277 C 
ENDBRANCH  14  15
BRANCH   9  17
ATOM     17  O   UNL     1      -6.639   7.966   7.349  0.00  0.00    -0.474 OA
BRANCH  17  19
ATOM     18  C   UNL     1      -6.481   5.768   8.341  0.00  0.00    +0.064 C 
ATOM     19  C   UNL     1      -5.721   6.925   7.690  0.00  0.00    +0.283 C 
BRANCH  19  20
ATOM     20  C   UNL     1      -4.694   7.458   8.655  0.00  0.00    +0.395 C 
ATOM     21  O   UNL     1      -4.794   8.583   9.084  0.00  0.00    -0.242 OA
ATOM     22  O   UNL     1      -3.667   6.682   9.038  0.00  0.00    -0.242 OA
ENDBRANCH  19  20
ENDBRANCH  17  19
ENDBRANCH   9  17
ENDBRANCH   1  12
BRANCH   5  23
ATOM     23  N   UNL     1      -5.547   5.530  -0.106  0.00  0.00    -0.222 N 
ATOM     24  C   UNL     1      -5.258   4.214  -0.073  0.00  0.00    +0.261 C 
ATOM     25  O   UNL     1      -6.143   3.403   0.117  0.00  0.00    -0.269 OA
ATOM     26  H   UNL     1      -4.841   6.178  -0.257  0.00  0.00    +0.174 HD
BRANCH  24  27
ATOM     27  C   UNL     1      -3.866   3.758  -0.267  0.00  0.00    +0.038 A 
ATOM     28  C   UNL     1      -3.563   2.396  -0.233  0.00  0.00    +0.015 A 
ATOM     29  C   UNL     1      -2.262   1.976  -0.414  0.00  0.00    +0.033 A 
ATOM     30  C   UNL     1      -1.257   2.903  -0.629  0.00  0.00    +0.126 A 
ATOM     31  C   UNL     1      -1.549   4.255  -0.658  0.00  0.00    +0.033 A 
ATOM     32  C   UNL     1      -2.847   4.687  -0.484  0.00  0.00    +0.015 A 
BRANCH  30  33
ATOM     33  N   UNL     1       0.138   2.446  -0.822  0.00  0.00    +0.056 N 
ATOM     34  O   UNL     1       0.399   1.257  -0.792  0.00  0.00    -0.126 OA
ATOM     35  O   UNL     1       1.024   3.259  -1.017  0.00  0.00    -0.126 OA
ENDBRANCH  30  33
ENDBRANCH  24  27
ENDBRANCH   5  23
TORSDOF 8
