REMARK  Name = ZINC09793539
REMARK  9 active torsions:
REMARK  status: ('A' for Active; 'I' for Inactive)
REMARK    1  A    between atoms: C_1  and  C_2
REMARK    2  A    between atoms: C_2  and  C_4
REMARK    3  A    between atoms: C_2  and  N_68
REMARK    4  A    between atoms: C_7  and  S_17
REMARK    5  A    between atoms: N_8  and  C_9
REMARK    6  A    between atoms: C_12  and  O_15
REMARK    7  A    between atoms: O_15  and  C_16
REMARK    8  A    between atoms: S_17  and  C_18
REMARK    9  A    between atoms: C_18  and  C_19
REMARK                            x       y       z     vdW  Elec       q    Type
REMARK                         _______ _______ _______ _____ _____    ______ ____
ROOT
ATOM      1  C   UNL     1       4.785   8.129  -2.164  0.00  0.00    +0.125 A 
ATOM      2  N   UNL     1       3.553   7.821  -1.873  0.00  0.00    -0.135 NA
ATOM      3  N   UNL     1       3.478   6.590  -1.510  0.00  0.00    -0.122 NA
ATOM      4  C   UNL     1       4.670   6.040  -1.548  0.00  0.00    +0.197 A 
ATOM      5  N   UNL     1       5.544   7.007  -1.962  0.00  0.00    -0.275 N 
ENDROOT
BRANCH   5   6
ATOM      6  C   UNL     1       6.930   6.875  -2.144  0.00  0.00    +0.050 A 
ATOM      7  C   UNL     1       7.806   7.596  -1.345  0.00  0.00    +0.030 A 
ATOM      8  C   UNL     1       9.169   7.462  -1.521  0.00  0.00    +0.047 A 
ATOM      9  C   UNL     1       9.662   6.617  -2.504  0.00  0.00    +0.120 A 
ATOM     10  C   UNL     1       8.786   5.901  -3.307  0.00  0.00    +0.047 A 
ATOM     11  C   UNL     1       7.423   6.030  -3.128  0.00  0.00    +0.030 A 
BRANCH   9  12
ATOM     12  O   UNL     1      11.004   6.490  -2.681  0.00  0.00    -0.495 OA
ATOM     13  C   UNL     1      11.848   7.256  -1.819  0.00  0.00    +0.277 C 
ENDBRANCH   9  12
ENDBRANCH   5   6
BRANCH   1  15
ATOM     14  C   UNL     1       5.323  10.440  -1.444  0.00  0.00    -0.005 C 
ATOM     15  C   UNL     1       5.284   9.473  -2.628  0.00  0.00    -0.002 C 
BRANCH  15  21
ATOM     16  C   UNL     1       4.242   9.049  -4.772  0.00  0.00    -0.078 C 
ATOM     17  C   UNL     1       3.188   9.563  -5.755  0.00  0.00    -0.019 C 
ATOM     18  C   UNL     1       3.616  10.935  -6.284  0.00  0.00    -0.004 C 
ATOM     19  C   UNL     1       3.802  11.893  -5.103  0.00  0.00    -0.019 C 
ATOM     20  C   UNL     1       4.838  11.311  -4.139  0.00  0.00    -0.078 C 
ATOM     21  N   UNL     1       4.356  10.003  -3.648  0.00  0.00    +0.386 N 
ATOM     22  H   UNL     1       3.429  10.128  -3.223  0.00  0.00    -0.081 HD
ENDBRANCH  15  21
ENDBRANCH   1  15
BRANCH   4  23
ATOM     23  S   UNL     1       5.068   4.373  -1.138  0.00  0.00    -0.076 S 
BRANCH  23  24
ATOM     24  C   UNL     1       3.425   3.758  -0.693  0.00  0.00    +0.173 C 
BRANCH  24  25
ATOM     25  C   UNL     1       3.522   2.308  -0.296  0.00  0.00    +0.230 C 
ATOM     26  O   UNL     1       4.607   1.773  -0.214  0.00  0.00    -0.274 OA
ATOM     27  N   UNL     1       2.403   1.605  -0.030  0.00  0.00    -0.270 N 
ATOM     28  C   UNL     1       1.093   2.271   0.005  0.00  0.00    +0.114 C 
ATOM     29  C   UNL     1       0.342   1.760   1.241  0.00  0.00    +0.024 C 
ATOM     30  C   UNL     1       0.100   0.259   1.087  0.00  0.00    +0.038 C 
ATOM     31  C   UNL     1       1.385  -0.451   0.754  0.00  0.00    -0.026 A 
ATOM     32  C   UNL     1       2.468   0.226   0.215  0.00  0.00    +0.039 A 
ATOM     33  C   UNL     1       3.639  -0.460  -0.086  0.00  0.00    +0.024 A 
ATOM     34  C   UNL     1       3.725  -1.817   0.154  0.00  0.00    +0.002 A 
ATOM     35  C   UNL     1       2.646  -2.492   0.694  0.00  0.00    +0.000 A 
ATOM     36  C   UNL     1       1.479  -1.813   0.988  0.00  0.00    +0.005 A 
ENDBRANCH  24  25
ENDBRANCH  23  24
ENDBRANCH   4  23
TORSDOF 7
