REMARK  Name = ZINC34829718
REMARK  7 active torsions:
REMARK  status: ('A' for Active; 'I' for Inactive)
REMARK    1  A    between atoms: C_1  and  C_2
REMARK    2  A    between atoms: C_5  and  C_8
REMARK    3  A    between atoms: N_17  and  C_18
REMARK    4  A    between atoms: C_18  and  C_19
REMARK    5  A    between atoms: C_25  and  C_28
REMARK    6  A    between atoms: C_29  and  C_31
REMARK    7  A    between atoms: C_34  and  N_37
REMARK                            x       y       z     vdW  Elec       q    Type
REMARK                         _______ _______ _______ _____ _____    ______ ____
ROOT
ATOM      1  C   UNL     1       3.421  -3.384   2.049  0.00  0.00    +0.199 C 
ATOM      2  O   UNL     1       2.925  -3.656   3.122  0.00  0.00    -0.278 OA
ATOM      3  N   UNL     1       4.759  -3.420   1.897  0.00  0.00    -0.300 N 
ATOM      4  C   UNL     1       5.375  -3.087   0.605  0.00  0.00    +0.126 C 
ATOM      5  C   UNL     1       6.264  -4.258   0.169  0.00  0.00    +0.127 C 
ATOM      6  N   UNL     1       7.135  -4.630   1.293  0.00  0.00    -0.292 N 
ATOM      7  C   UNL     1       6.519  -4.963   2.586  0.00  0.00    +0.091 C 
ATOM      8  C   UNL     1       5.630  -3.787   3.023  0.00  0.00    +0.130 C 
ATOM      9  C   UNL     1       5.672  -6.229   2.440  0.00  0.00    +0.029 C 
ATOM     10  C   UNL     1       8.473  -4.666   1.141  0.00  0.00    +0.247 C 
ATOM     11  O   UNL     1       8.967  -4.462   0.050  0.00  0.00    -0.270 OA
ENDROOT
BRANCH  10  12
ATOM     12  C   UNL     1       9.342  -4.953   2.303  0.00  0.00    +0.037 A 
ATOM     13  C   UNL     1       9.107  -6.080   3.092  0.00  0.00    +0.015 A 
ATOM     14  C   UNL     1       9.921  -6.343   4.174  0.00  0.00    +0.033 A 
ATOM     15  C   UNL     1      10.968  -5.491   4.479  0.00  0.00    +0.126 A 
ATOM     16  C   UNL     1      11.206  -4.371   3.701  0.00  0.00    +0.033 A 
ATOM     17  C   UNL     1      10.403  -4.101   2.612  0.00  0.00    +0.015 A 
BRANCH  15  18
ATOM     18  N   UNL     1      11.838  -5.778   5.642  0.00  0.00    +0.056 N 
ATOM     19  O   UNL     1      11.632  -6.756   6.323  0.00  0.00    -0.126 OA
ATOM     20  O   UNL     1      12.753  -5.036   5.910  0.00  0.00    -0.126 OA
ENDBRANCH  15  18
ENDBRANCH  10  12
BRANCH   1  21
ATOM     21  C   UNL     1       2.540  -3.006   0.886  0.00  0.00    +0.020 C 
BRANCH  21  30
ATOM     22  C   UNL     1       0.289  -2.558   0.206  0.00  0.00    -0.005 C 
ATOM     23  C   UNL     1      -1.175  -2.695   0.611  0.00  0.00    -0.047 A 
ATOM     24  C   UNL     1      -2.219  -1.999   0.008  0.00  0.00    +0.010 A 
ATOM     25  C   UNL     1      -3.491  -2.181   0.435  0.00  0.00    +0.045 A 
ATOM     26  S   UNL     1      -3.272  -3.377   1.745  0.00  0.00    -0.101 S 
ATOM     27  C   UNL     1      -1.514  -3.543   1.623  0.00  0.00    -0.010 A 
ATOM     28  C   UNL     1      -0.579  -4.397   2.415  0.00  0.00    +0.024 C 
ATOM     29  C   UNL     1       0.770  -4.417   1.676  0.00  0.00    -0.072 C 
ATOM     30  N   UNL     1       1.133  -3.042   1.306  0.00  0.00    +0.393 N 
ATOM     31  H   UNL     1       1.011  -2.441   2.107  0.00  0.00    -0.080 HD
BRANCH  22  36
ATOM     32  C   UNL     1       1.490   2.992  -0.863  0.00  0.00    +0.044 C 
ATOM     33  C   UNL     1       1.177   1.545  -0.584  0.00  0.00    -0.050 A 
ATOM     34  C   UNL     1       0.938   0.675  -1.632  0.00  0.00    +0.003 A 
ATOM     35  C   UNL     1       0.651  -0.653  -1.376  0.00  0.00    +0.002 A 
ATOM     36  C   UNL     1       0.603  -1.111  -0.073  0.00  0.00    -0.057 A 
ATOM     37  C   UNL     1       0.842  -0.241   0.975  0.00  0.00    +0.002 A 
ATOM     38  C   UNL     1       1.134   1.086   0.719  0.00  0.00    +0.003 A 
ENDBRANCH  22  36
ENDBRANCH  21  30
ENDBRANCH   1  21
TORSDOF 5
