REMARK  Name = ZINC51090910
REMARK  3 active torsions:
REMARK  status: ('A' for Active; 'I' for Inactive)
REMARK    1  A    between atoms: C_4  and  N_21
REMARK    2  A    between atoms: C_6  and  C_7
REMARK    3  A    between atoms: N_21  and  N_22
REMARK                            x       y       z     vdW  Elec       q    Type
REMARK                         _______ _______ _______ _____ _____    ______ ____
ROOT
ATOM      1  C   UNL     1      -1.259  -0.782   0.010  0.00  0.00    +0.247 C 
ATOM      2  O   UNL     1      -1.226  -1.994  -0.067  0.00  0.00    -0.270 OA
ATOM      3  N   UNL     1      -2.442  -0.146   0.127  0.00  0.00    -0.294 N 
ATOM      4  C   UNL     1      -2.510   1.321   0.132  0.00  0.00    +0.108 C 
ATOM      5  C   UNL     1      -3.265   1.781   1.382  0.00  0.00    +0.019 C 
ATOM      6  C   UNL     1      -4.628   1.085   1.439  0.00  0.00    +0.007 C 
ATOM      7  C   UNL     1      -4.422  -0.429   1.513  0.00  0.00    +0.010 C 
ATOM      8  C   UNL     1      -3.697  -0.906   0.247  0.00  0.00    +0.079 C 
ATOM      9  C   UNL     1      -4.562  -0.619  -0.983  0.00  0.00    +0.023 C 
ATOM     10  C   UNL     1      -5.901  -1.345  -0.851  0.00  0.00    +0.002 C 
ATOM     11  C   UNL     1      -6.628  -0.844   0.399  0.00  0.00    +0.000 C 
ATOM     12  C   UNL     1      -5.771  -1.136   1.624  0.00  0.00    +0.005 C 
ENDROOT
BRANCH   1  18
ATOM     13  C   UNL     1       1.074  -0.334   0.810  0.00  0.00    +0.033 A 
ATOM     14  C   UNL     1       2.231   0.415   0.748  0.00  0.00    +0.113 A 
ATOM     15  N   UNL     1       2.336   1.435  -0.082  0.00  0.00    -0.239 NA
ATOM     16  C   UNL     1       1.348   1.785  -0.890  0.00  0.00    +0.133 A 
ATOM     17  C   UNL     1       0.148   1.082  -0.890  0.00  0.00    +0.057 A 
ATOM     18  C   UNL     1       0.001  -0.002  -0.024  0.00  0.00    +0.042 A 
BRANCH  16  19
ATOM     19  N   UNL     1       1.510   2.869  -1.746  0.00  0.00    -0.268 N 
ATOM     20  H   UNL     1       0.789   3.130  -2.340  0.00  0.00    +0.167 HD
BRANCH  19  21
ATOM     21  N   UNL     1       2.686   3.564  -1.751  0.00  0.00    -0.255 NA
ATOM     22  H   UNL     1       3.468   2.953  -1.930  0.00  0.00    +0.140 HD
ATOM     23  H   UNL     1       2.656   4.319  -2.420  0.00  0.00    +0.140 HD
ENDBRANCH  19  21
ENDBRANCH  16  19
ENDBRANCH   1  18
TORSDOF 3
