REMARK  Name = ZINC44491445
REMARK  9 active torsions:
REMARK  status: ('A' for Active; 'I' for Inactive)
REMARK    1  A    between atoms: C_1  and  C_2
REMARK    2  A    between atoms: C_17  and  C_39
REMARK    3  A    between atoms: C_19  and  O_37
REMARK    4  A    between atoms: C_22  and  C_36
REMARK    5  A    between atoms: C_23  and  C_24
REMARK    6  A    between atoms: C_23  and  O_28
REMARK    7  A    between atoms: C_24  and  C_26
REMARK    8  A    between atoms: O_28  and  C_29
REMARK    9  A    between atoms: C_29  and  C_31
REMARK                            x       y       z     vdW  Elec       q    Type
REMARK                         _______ _______ _______ _____ _____    ______ ____
ROOT
ATOM      1  C   UNL     1      -0.260   1.909   0.656  0.00  0.00    +0.012 C 
ATOM      2  C   UNL     1      -0.390   0.426   0.306  0.00  0.00    +0.038 C 
ATOM      3  C   UNL     1      -1.791  -0.092   0.706  0.00  0.00    +0.012 C 
ATOM      4  C   UNL     1      -1.557  -0.725   2.090  0.00  0.00    +0.005 C 
ATOM      5  C   UNL     1      -2.666  -1.668   2.491  0.00  0.00    +0.018 C 
ATOM      6  C   UNL     1      -4.010  -0.935   2.458  0.00  0.00    +0.010 C 
ATOM      7  C   UNL     1      -5.107  -1.841   3.026  0.00  0.00    +0.032 C 
ATOM      8  C   UNL     1      -5.096  -3.140   2.241  0.00  0.00    -0.055 C 
ATOM      9  C   UNL     1      -6.228  -3.582   1.713  0.00  0.00    +0.051 C 
ATOM     10  C   UNL     1      -6.250  -4.827   0.929  0.00  0.00    +0.179 C 
ATOM     11  O   UNL     1      -7.295  -5.259   0.478  0.00  0.00    -0.288 OA
ATOM     12  C   UNL     1      -4.981  -5.538   0.704  0.00  0.00    +0.047 C 
ATOM     13  C   UNL     1      -3.863  -5.081   1.246  0.00  0.00    -0.011 C 
ATOM     14  C   UNL     1      -3.790  -3.865   2.106  0.00  0.00    +0.029 C 
ATOM     15  C   UNL     1      -2.736  -2.887   1.573  0.00  0.00    +0.086 C 
ATOM     16  C   UNL     1      -1.378  -3.598   1.601  0.00  0.00    +0.137 C 
ATOM     17  C   UNL     1      -0.316  -2.654   1.043  0.00  0.00    +0.044 C 
ATOM     18  C   UNL     1      -0.193  -1.420   1.942  0.00  0.00    +0.021 C 
ATOM     19  C   UNL     1       0.631  -0.398   1.112  0.00  0.00    +0.180 C 
ATOM     20  C   UNL     1       0.445  -1.723   3.299  0.00  0.00    +0.016 C 
ATOM     21 CL   UNL     1      -3.138  -2.368  -0.107  0.00  0.00    -0.114 Cl
ATOM     22  C   UNL     1      -3.354  -4.307   3.504  0.00  0.00    +0.022 C 
ENDROOT
BRANCH  19  23
ATOM     23  C   UNL     1       1.565  -1.123   0.177  0.00  0.00    +0.192 C 
ATOM     24  O   UNL     1       1.209  -1.388  -0.946  0.00  0.00    -0.292 OA
BRANCH  23  25
ATOM     25  C   UNL     1       2.943  -1.517   0.644  0.00  0.00    +0.187 C 
ATOM     26 CL   UNL     1       3.755  -2.493  -0.637  0.00  0.00    -0.117 Cl
ENDBRANCH  23  25
ENDBRANCH  19  23
BRANCH  16  27
ATOM     27  O   UNL     1      -1.439  -4.779   0.800  0.00  0.00    -0.390 OA
ATOM     28  H   UNL     1      -0.612  -5.280   0.773  0.00  0.00    +0.210 HD
ENDBRANCH  16  27
BRANCH  19  29
ATOM     29  O   UNL     1       1.374   0.457   1.983  0.00  0.00    -0.444 OA
BRANCH  29  30
ATOM     30  C   UNL     1       2.188   1.364   1.403  0.00  0.00    +0.376 C 
ATOM     31  O   UNL     1       2.339   1.362   0.197  0.00  0.00    -0.241 OA
BRANCH  30  32
ATOM     32  C   UNL     1       2.888   2.352   2.228  0.00  0.00    +0.211 A 
ATOM     33  C   UNL     1       3.732   3.325   1.772  0.00  0.00    +0.056 A 
ATOM     34  C   UNL     1       4.171   4.038   2.897  0.00  0.00    +0.042 A 
ATOM     35  C   UNL     1       3.584   3.477   3.978  0.00  0.00    +0.196 A 
ATOM     36  O   UNL     1       2.808   2.465   3.570  0.00  0.00    -0.456 OA
ENDBRANCH  30  32
ENDBRANCH  29  30
ENDBRANCH  19  29
TORSDOF 6
