REMARK  Name = ZINC35455570
REMARK  10 active torsions:
REMARK  status: ('A' for Active; 'I' for Inactive)
REMARK    1  A    between atoms: C_1  and  C_2
REMARK    2  A    between atoms: C_5  and  C_36
REMARK    3  A    between atoms: C_6  and  C_8
REMARK    4  A    between atoms: C_8  and  N_9
REMARK    5  A    between atoms: C_12  and  C_15
REMARK    6  A    between atoms: C_15  and  N_16
REMARK    7  A    between atoms: C_17  and  C_19
REMARK    8  A    between atoms: N_24  and  C_26
REMARK    9  A    between atoms: N_30  and  C_35
REMARK   10  A    between atoms: N_33  and  C_34
REMARK                            x       y       z     vdW  Elec       q    Type
REMARK                         _______ _______ _______ _____ _____    ______ ____
ROOT
ATOM      1  N   UNL     1       5.697  -4.754   5.548  0.00  0.00    -0.315 N 
ATOM      2  C   UNL     1       6.789  -5.396   6.009  0.00  0.00    +0.218 C 
ATOM      3  O   UNL     1       7.799  -5.433   5.338  0.00  0.00    -0.275 OA
ATOM      4  H   UNL     1       4.890  -4.725   6.085  0.00  0.00    +0.149 HD
ENDROOT
BRANCH   2   5
ATOM      5  C   UNL     1       6.755  -6.069   7.357  0.00  0.00    +0.092 C 
ATOM      6  C   UNL     1       5.666  -7.144   7.364  0.00  0.00    +0.016 C 
ATOM      7  C   UNL     1       5.608  -7.805   8.743  0.00  0.00    +0.020 C 
ATOM      8  C   UNL     1       6.952  -8.477   9.039  0.00  0.00    +0.106 C 
ATOM      9  N   UNL     1       8.022  -7.481   8.892  0.00  0.00    -0.316 N 
ATOM     10  C   UNL     1       8.113  -6.721   7.637  0.00  0.00    +0.119 C 
BRANCH   9  11
ATOM     11  C   UNL     1       8.919  -7.263   9.906  0.00  0.00    +0.110 A 
ATOM     12  C   UNL     1       8.629  -6.376  10.905  0.00  0.00    +0.112 A 
ATOM     13  C   UNL     1       9.566  -6.173  11.930  0.00  0.00    +0.258 A 
ATOM     14  O   UNL     1       9.329  -5.387  12.831  0.00  0.00    -0.267 OA
ATOM     15  N   UNL     1      10.729  -6.854  11.913  0.00  0.00    -0.264 N 
ATOM     16  C   UNL     1      10.998  -7.724  10.922  0.00  0.00    +0.333 A 
ATOM     17  O   UNL     1      12.054  -8.328  10.926  0.00  0.00    -0.246 OA
ATOM     18  N   UNL     1      10.114  -7.940   9.931  0.00  0.00    -0.285 N 
ATOM     19  C   UNL     1      10.431  -8.898   8.869  0.00  0.00    +0.155 C 
ATOM     20  C   UNL     1      11.709  -6.644  12.981  0.00  0.00    +0.157 C 
ENDBRANCH   9  11
ENDBRANCH   2   5
BRANCH   1  21
ATOM     21  C   UNL     1       5.731  -4.100   4.238  0.00  0.00    +0.107 C 
BRANCH  21  25
ATOM     22  N   UNL     1       2.090  -3.171   2.197  0.00  0.00    +0.382 N 
ATOM     23  C   UNL     1       3.064  -2.081   2.332  0.00  0.00    -0.078 C 
ATOM     24  C   UNL     1       4.445  -2.662   2.647  0.00  0.00    -0.014 C 
ATOM     25  C   UNL     1       4.374  -3.450   3.958  0.00  0.00    +0.003 C 
ATOM     26  C   UNL     1       3.302  -4.537   3.831  0.00  0.00    -0.014 C 
ATOM     27  C   UNL     1       1.964  -3.887   3.472  0.00  0.00    -0.078 C 
ATOM     28  H   UNL     1       2.402  -3.811   1.482  0.00  0.00    -0.081 HD
BRANCH  22  29
ATOM     29  C   UNL     1       0.785  -2.614   1.818  0.00  0.00    -0.043 C 
BRANCH  29  35
ATOM     30  C   UNL     1       1.262   1.456  -1.054  0.00  0.00    +0.044 C 
ATOM     31  C   UNL     1       1.112  -0.038  -0.921  0.00  0.00    -0.050 A 
ATOM     32  C   UNL     1       1.064  -0.831  -2.053  0.00  0.00    +0.003 A 
ATOM     33  C   UNL     1       0.926  -2.200  -1.932  0.00  0.00    +0.004 A 
ATOM     34  C   UNL     1       0.835  -2.778  -0.679  0.00  0.00    -0.049 A 
ATOM     35  C   UNL     1       0.884  -1.985   0.453  0.00  0.00    -0.061 A 
ATOM     36  C   UNL     1       1.026  -0.615   0.331  0.00  0.00    +0.005 A 
ATOM     37  C   UNL     1       0.683  -4.271  -0.546  0.00  0.00    +0.044 C 
ENDBRANCH  29  35
ENDBRANCH  22  29
ENDBRANCH  21  25
ENDBRANCH   1  21
TORSDOF 6
