REMARK  Name = ZINC00265466
REMARK  9 active torsions:
REMARK  status: ('A' for Active; 'I' for Inactive)
REMARK    1  A    between atoms: C_1  and  C_2
REMARK    2  A    between atoms: C_2  and  C_18
REMARK    3  A    between atoms: C_3  and  C_11
REMARK    4  A    between atoms: C_7  and  C_8
REMARK    5  A    between atoms: C_7  and  C_9
REMARK    6  A    between atoms: N_13  and  C_14
REMARK    7  A    between atoms: C_14  and  C_15
REMARK    8  A    between atoms: C_14  and  C_16
REMARK    9  A    between atoms: C_14  and  C_17
REMARK                            x       y       z     vdW  Elec       q    Type
REMARK                         _______ _______ _______ _____ _____    ______ ____
ROOT
ATOM      1  C   UNL     1       0.641   0.865   0.603  0.00  0.00    +0.013 C 
ATOM      2  C   UNL     1      -0.382   1.489   1.554  0.00  0.00    -0.008 C 
ATOM      3  C   UNL     1       0.223   1.623   2.967  0.00  0.00    +0.082 C 
ATOM      4  C   UNL     1      -0.343   2.963   3.498  0.00  0.00    +0.014 C 
ATOM      5  C   UNL     1      -0.329   3.863   2.237  0.00  0.00    +0.019 C 
ATOM      6  C   UNL     1      -0.733   2.914   1.090  0.00  0.00    +0.075 C 
ATOM      7  C   UNL     1      -2.236   3.023   0.824  0.00  0.00    +0.023 C 
ATOM      8  C   UNL     1      -1.645   0.627   1.604  0.00  0.00    +0.013 C 
ENDROOT
BRANCH   3   9
ATOM      9  C   UNL     1      -0.220   0.477   3.841  0.00  0.00    +0.217 C 
ATOM     10  O   UNL     1      -1.196   0.598   4.550  0.00  0.00    -0.275 OA
ATOM     11  N   UNL     1       0.469  -0.681   3.834  0.00  0.00    -0.310 N 
ATOM     12  H   UNL     1       1.250  -0.777   3.266  0.00  0.00    +0.149 HD
BRANCH  11  13
ATOM     13  C   UNL     1       0.039  -1.794   4.683  0.00  0.00    +0.026 C 
ATOM     14  C   UNL     1      -1.383  -2.208   4.300  0.00  0.00    +0.031 C 
ATOM     15  C   UNL     1       0.985  -2.981   4.487  0.00  0.00    +0.031 C 
ATOM     16  C   UNL     1       0.066  -1.357   6.149  0.00  0.00    +0.031 C 
ENDBRANCH  11  13
ENDBRANCH   3   9
BRANCH   6  17
ATOM     17  C   UNL     1       0.039   3.255  -0.158  0.00  0.00    +0.362 C 
ATOM     18  O   UNL     1       0.893   4.109  -0.126  0.00  0.00    -0.246 OA
ATOM     19  O   UNL     1      -0.222   2.609  -1.306  0.00  0.00    -0.246 OA
ENDBRANCH   6  17
TORSDOF 3
