REMARK  Name = ZINC03864419
REMARK  4 active torsions:
REMARK  status: ('A' for Active; 'I' for Inactive)
REMARK    1  A    between atoms: C_4  and  C_15
REMARK    2  A    between atoms: C_8  and  C_11
REMARK    3  A    between atoms: C_11  and  C_12
REMARK    4  A    between atoms: C_15  and  C_16
REMARK                            x       y       z     vdW  Elec       q    Type
REMARK                         _______ _______ _______ _____ _____    ______ ____
ROOT
ATOM      1  C   UNL     1      -0.019   1.526   0.010  0.00  0.00    +0.007 C 
ATOM      2  C   UNL     1       1.417   2.055  -0.000  0.00  0.00    -0.010 C 
ATOM      3  C   UNL     1       2.133   1.562  -1.259  0.00  0.00    +0.011 C 
ATOM      4  C   UNL     1       2.154   0.032  -1.268  0.00  0.00    -0.018 C 
ATOM      5  C   UNL     1       0.718  -0.497  -1.257  0.00  0.00    +0.011 C 
ATOM      6  C   UNL     1       0.002  -0.004   0.002  0.00  0.00    -0.010 C 
ATOM      7  C   UNL     1       0.742  -0.511   1.242  0.00  0.00    +0.011 C 
ATOM      8  C   UNL     1       2.178   0.019   1.231  0.00  0.00    -0.018 C 
ATOM      9  C   UNL     1       2.157   1.548   1.239  0.00  0.00    +0.011 C 
ATOM     10  C   UNL     1       2.894  -0.475  -0.028  0.00  0.00    +0.015 C 
ENDROOT
BRANCH   8  11
ATOM     11  C   UNL     1       2.917  -0.488   2.470  0.00  0.00    +0.132 C 
BRANCH  11  12
ATOM     12  C   UNL     1       2.212  -0.002   3.710  0.00  0.00    +0.357 C 
ATOM     13  O   UNL     1       1.210   0.686   3.611  0.00  0.00    -0.246 OA
ATOM     14  O   UNL     1       2.643  -0.297   4.812  0.00  0.00    -0.246 OA
ENDBRANCH  11  12
ENDBRANCH   8  11
BRANCH   4  15
ATOM     15  C   UNL     1       2.870  -0.461  -2.526  0.00  0.00    +0.132 C 
BRANCH  15  16
ATOM     16  C   UNL     1       2.141   0.038  -3.747  0.00  0.00    +0.357 C 
ATOM     17  O   UNL     1       1.141   0.725  -3.622  0.00  0.00    -0.246 OA
ATOM     18  O   UNL     1       2.551  -0.245  -4.860  0.00  0.00    -0.246 OA
ENDBRANCH  15  16
ENDBRANCH   4  15
TORSDOF 4
