REMARK  Name = ZINC36610053
REMARK  11 active torsions:
REMARK  status: ('A' for Active; 'I' for Inactive)
REMARK    1  A    between atoms: C_1  and  C_2
REMARK    2  A    between atoms: C_2  and  C_3
REMARK    3  A    between atoms: C_3  and  C_4
REMARK    4  A    between atoms: C_4  and  N_5
REMARK    5  A    between atoms: C_6  and  C_8
REMARK    6  A    between atoms: C_8  and  C_10
REMARK    7  A    between atoms: C_8  and  N_24
REMARK    8  A    between atoms: N_24  and  C_25
REMARK    9  A    between atoms: C_31  and  C_33
REMARK   10  A    between atoms: C_34  and  O_40
REMARK   11  A    between atoms: C_38  and  O_39
REMARK                            x       y       z     vdW  Elec       q    Type
REMARK                         _______ _______ _______ _____ _____    ______ ____
ROOT
ATOM      1  C   UNL     1      -4.219  -4.451  -0.174  0.00  0.00    +0.198 C 
ENDROOT
BRANCH   1   2
ATOM      2  C   UNL     1      -4.671  -4.202   1.242  0.00  0.00    -0.010 A 
ATOM      3  C   UNL     1      -4.594  -5.202   2.144  0.00  0.00    +0.015 A 
ATOM      4  C   UNL     1      -5.006  -5.019   3.484  0.00  0.00    -0.017 A 
ATOM      5  C   UNL     1      -4.922  -6.064   4.415  0.00  0.00    +0.008 A 
ATOM      6  C   UNL     1      -5.325  -5.859   5.702  0.00  0.00    +0.001 A 
ATOM      7  C   UNL     1      -5.821  -4.626   6.107  0.00  0.00    +0.001 A 
ATOM      8  C   UNL     1      -5.915  -3.587   5.225  0.00  0.00    +0.009 A 
ATOM      9  C   UNL     1      -5.510  -3.766   3.901  0.00  0.00    -0.010 A 
ATOM     10  C   UNL     1      -5.593  -2.680   2.920  0.00  0.00    -0.010 A 
ATOM     11  C   UNL     1      -5.161  -2.924   1.597  0.00  0.00    -0.012 A 
ATOM     12  C   UNL     1      -5.231  -1.890   0.653  0.00  0.00    +0.009 A 
ATOM     13  C   UNL     1      -5.708  -0.667   1.024  0.00  0.00    +0.001 A 
ATOM     14  C   UNL     1      -6.127  -0.429   2.327  0.00  0.00    +0.001 A 
ATOM     15  C   UNL     1      -6.082  -1.419   3.267  0.00  0.00    +0.009 A 
ENDBRANCH   1   2
BRANCH   1  17
ATOM     16  N   UNL     1      -2.467  -2.713  -0.343  0.00  0.00    -0.313 N 
ATOM     17  C   UNL     1      -2.782  -4.024  -0.325  0.00  0.00    +0.238 C 
ATOM     18  O   UNL     1      -1.909  -4.859  -0.431  0.00  0.00    -0.273 OA
ATOM     19  H   UNL     1      -3.165  -2.046  -0.258  0.00  0.00    +0.149 HD
BRANCH  16  20
ATOM     20  C   UNL     1      -1.069  -2.298  -0.489  0.00  0.00    +0.104 C 
BRANCH  20  21
ATOM     21  C   UNL     1      -0.988  -0.770  -0.479  0.00  0.00    +0.018 C 
BRANCH  21  23
ATOM     22  C   UNL     1       0.553   1.191  -0.621  0.00  0.00    +0.004 C 
ATOM     23  C   UNL     1       0.471  -0.336  -0.632  0.00  0.00    -0.002 C 
ENDBRANCH  21  23
ENDBRANCH  20  21
ENDBRANCH  16  20
ENDBRANCH   1  17
BRANCH   1  24
ATOM     24  N   UNL     1      -4.339  -5.878  -0.481  0.00  0.00    -0.251 N 
ATOM     25  C   UNL     1      -5.274  -6.304  -1.354  0.00  0.00    +0.259 C 
ATOM     26  O   UNL     1      -5.453  -7.495  -1.520  0.00  0.00    -0.269 OA
BRANCH  24  27
ATOM     27  C   UNL     1      -3.483  -6.800   0.131  0.00  0.00    +0.038 A 
ATOM     28  C   UNL     1      -2.609  -6.383   1.126  0.00  0.00    +0.023 A 
ATOM     29  C   UNL     1      -1.765  -7.295   1.729  0.00  0.00    +0.002 A 
ATOM     30  C   UNL     1      -1.791  -8.623   1.343  0.00  0.00    +0.000 A 
ATOM     31  C   UNL     1      -2.660  -9.041   0.352  0.00  0.00    +0.002 A 
ATOM     32  C   UNL     1      -3.510  -8.135  -0.251  0.00  0.00    +0.023 A 
ENDBRANCH  24  27
BRANCH  25  33
ATOM     33  C   UNL     1      -6.077  -5.326  -2.106  0.00  0.00    +0.120 A 
ATOM     34  C   UNL     1      -5.677  -4.919  -3.387  0.00  0.00    +0.133 A 
ATOM     35  C   UNL     1      -6.441  -3.999  -4.086  0.00  0.00    +0.046 A 
ATOM     36  C   UNL     1      -7.594  -3.482  -3.526  0.00  0.00    +0.007 A 
ATOM     37  C   UNL     1      -7.998  -3.877  -2.264  0.00  0.00    +0.046 A 
ATOM     38  C   UNL     1      -7.252  -4.800  -1.549  0.00  0.00    +0.133 A 
BRANCH  38  39
ATOM     39  O   UNL     1      -7.654  -5.189  -0.313  0.00  0.00    -0.506 OA
ATOM     40  H   UNL     1      -7.369  -4.598   0.397  0.00  0.00    +0.292 HD
ENDBRANCH  38  39
BRANCH  34  41
ATOM     41  O   UNL     1      -4.545  -5.424  -3.939  0.00  0.00    -0.506 OA
ATOM     42  H   UNL     1      -4.695  -6.185  -4.517  0.00  0.00    +0.292 HD
ENDBRANCH  34  41
ENDBRANCH  25  33
ENDBRANCH   1  24
TORSDOF 10
