REMARK  Name = ZINC25473057
REMARK  7 active torsions:
REMARK  status: ('A' for Active; 'I' for Inactive)
REMARK    1  A    between atoms: C_3  and  C_6
REMARK    2  A    between atoms: N_8  and  C_9
REMARK    3  A    between atoms: C_9  and  C_10
REMARK    4  A    between atoms: C_10  and  C_11
REMARK    5  A    between atoms: C_11  and  C_12
REMARK    6  A    between atoms: N_14  and  C_15
REMARK    7  A    between atoms: C_15  and  C_16
REMARK                            x       y       z     vdW  Elec       q    Type
REMARK                         _______ _______ _______ _____ _____    ______ ____
ROOT
ATOM      1  C   UNL     1       7.675  -2.091  -0.084  0.00  0.00    +0.097 C 
ENDROOT
BRANCH   1   2
ATOM      2  C   UNL     1       8.143  -3.523  -0.096  0.00  0.00    +0.213 C 
ATOM      3  O   UNL     1       7.333  -4.426  -0.092  0.00  0.00    -0.276 OA
ATOM      4  N   UNL     1       9.461  -3.801  -0.110  0.00  0.00    -0.311 N 
ATOM      5  H   UNL     1      10.110  -3.080  -0.113  0.00  0.00    +0.149 HD
BRANCH   4   6
ATOM      6  C   UNL     1       9.916  -5.194  -0.122  0.00  0.00    +0.146 C 
BRANCH   6   7
ATOM      7  C   UNL     1      11.423  -5.231  -0.137  0.00  0.00    +0.008 A 
ATOM      8  C   UNL     1      12.286  -5.262   0.908  0.00  0.00    +0.014 A 
ATOM      9  C   UNL     1      13.645  -5.293   0.654  0.00  0.00    +0.023 A 
ATOM     10  C   UNL     1      14.073  -5.290  -0.633  0.00  0.00    +0.055 A 
ATOM     11  S   UNL     1      12.533  -5.251  -1.535  0.00  0.00    -0.085 S 
ATOM     12 BR   UNL     1      15.842  -5.325  -1.299  0.00  0.00    -0.043 Br
ENDBRANCH   6   7
ENDBRANCH   4   6
ENDBRANCH   1   2
BRANCH   1  13
ATOM     13  C   UNL     1       6.146  -2.054  -0.068  0.00  0.00    +0.028 C 
BRANCH  13  14
ATOM     14  C   UNL     1       5.671  -0.599  -0.056  0.00  0.00    +0.105 C 
BRANCH  14  17
ATOM     15  C   UNL     1       3.561   0.619  -0.029  0.00  0.00    +0.279 C 
ATOM     16  O   UNL     1       4.195   1.658  -0.030  0.00  0.00    -0.267 OA
ATOM     17  N   UNL     1       4.206  -0.564  -0.042  0.00  0.00    -0.309 N 
ATOM     18  H   UNL     1       3.701  -1.392  -0.041  0.00  0.00    +0.149 HD
BRANCH  15  21
ATOM     19  C   UNL     1      -0.016   1.347   0.009  0.00  0.00    +0.042 A 
ATOM     20  C   UNL     1       1.319   1.778  -0.001  0.00  0.00    +0.054 A 
ATOM     21  C   UNL     1       2.095   0.654  -0.014  0.00  0.00    +0.189 A 
ATOM     22  O   UNL     1       1.276  -0.418  -0.012  0.00  0.00    -0.458 OA
ATOM     23  C   UNL     1       0.002  -0.004   0.002  0.00  0.00    +0.196 A 
ENDBRANCH  15  21
ENDBRANCH  14  17
ENDBRANCH  13  14
ENDBRANCH   1  13
TORSDOF 7
