REMARK  Name = ZINC24672986
REMARK  10 active torsions:
REMARK  status: ('A' for Active; 'I' for Inactive)
REMARK    1  A    between atoms: C_1  and  C_2
REMARK    2  A    between atoms: C_5  and  N_9
REMARK    3  A    between atoms: C_7  and  C_8
REMARK    4  A    between atoms: C_10  and  C_26
REMARK    5  A    between atoms: C_13  and  S_14
REMARK    6  A    between atoms: S_14  and  C_15
REMARK    7  A    between atoms: C_15  and  C_16
REMARK    8  A    between atoms: C_16  and  C_18
REMARK    9  A    between atoms: C_21  and  O_25
REMARK   10  A    between atoms: C_23  and  O_24
REMARK                            x       y       z     vdW  Elec       q    Type
REMARK                         _______ _______ _______ _____ _____    ______ ____
ROOT
ATOM      1  N   UNL     1       2.315   4.346  -0.278  0.00  0.00    -0.270 N 
ATOM      2  C   UNL     1       1.229   3.547   0.009  0.00  0.00    +0.169 A 
ATOM      3  N   UNL     1       0.228   4.347   0.297  0.00  0.00    -0.128 NA
ATOM      4  N   UNL     1       0.604   5.572   0.206  0.00  0.00    -0.122 NA
ATOM      5  C   UNL     1       1.870   5.632  -0.146  0.00  0.00    +0.197 A 
ENDROOT
BRANCH   1  10
ATOM      6  C   UNL     1       7.536   2.653  -1.722  0.00  0.00    +0.044 C 
ATOM      7  C   UNL     1       6.149   3.102  -1.338  0.00  0.00    -0.047 A 
ATOM      8  C   UNL     1       5.082   2.836  -2.175  0.00  0.00    +0.005 A 
ATOM      9  C   UNL     1       3.810   3.246  -1.827  0.00  0.00    +0.026 A 
ATOM     10  C   UNL     1       3.604   3.928  -0.634  0.00  0.00    +0.051 A 
ATOM     11  C   UNL     1       4.679   4.198   0.201  0.00  0.00    +0.030 A 
ATOM     12  C   UNL     1       5.948   3.780  -0.150  0.00  0.00    -0.046 A 
ATOM     13  C   UNL     1       7.114   4.069   0.759  0.00  0.00    +0.044 C 
ENDBRANCH   1  10
BRANCH   2  14
ATOM     14  C   UNL     1       1.199   2.070   0.002  0.00  0.00    +0.022 A 
ATOM     15  C   UNL     1      -0.017   1.375   0.010  0.00  0.00    +0.031 A 
ATOM     16  C   UNL     1       0.002  -0.004   0.002  0.00  0.00    +0.111 A 
ATOM     17  N   UNL     1       1.143  -0.666  -0.012  0.00  0.00    -0.263 NA
ATOM     18  C   UNL     1       2.311  -0.051  -0.020  0.00  0.00    +0.111 A 
ATOM     19  C   UNL     1       2.385   1.326  -0.013  0.00  0.00    +0.031 A 
ENDBRANCH   2  14
BRANCH   5  20
ATOM     20  S   UNL     1       2.818   7.096  -0.393  0.00  0.00    -0.078 S 
BRANCH  20  21
ATOM     21  C   UNL     1       1.563   8.349  -0.031  0.00  0.00    +0.157 C 
BRANCH  21  22
ATOM     22  C   UNL     1       2.164   9.722  -0.183  0.00  0.00    +0.177 C 
ATOM     23  O   UNL     1       3.328   9.842  -0.505  0.00  0.00    -0.291 OA
BRANCH  22  24
ATOM     24  C   UNL     1       1.344  10.912   0.058  0.00  0.00    +0.060 A 
ATOM     25  C   UNL     1      -0.000  10.777   0.430  0.00  0.00    +0.018 A 
ATOM     26  C   UNL     1      -0.762  11.886   0.655  0.00  0.00    +0.046 A 
ATOM     27  C   UNL     1      -0.212  13.158   0.517  0.00  0.00    +0.120 A 
ATOM     28  C   UNL     1       1.117  13.311   0.149  0.00  0.00    +0.091 A 
ATOM     29  C   UNL     1       1.904  12.195  -0.077  0.00  0.00    +0.131 A 
BRANCH  29  30
ATOM     30  O   UNL     1       3.205  12.338  -0.432  0.00  0.00    -0.506 OA
ATOM     31  H   UNL     1       3.639  13.343  -0.537  0.00  0.00    +0.292 HD
ENDBRANCH  29  30
BRANCH  27  32
ATOM     32  O   UNL     1      -0.980  14.254   0.744  0.00  0.00    -0.507 OA
ATOM     33  H   UNL     1      -0.548  15.260   0.636  0.00  0.00    +0.292 HD
ENDBRANCH  27  32
ENDBRANCH  22  24
ENDBRANCH  21  22
ENDBRANCH  20  21
ENDBRANCH   5  20
TORSDOF 8
