REMARK  Name = ZINC35636923
REMARK  12 active torsions:
REMARK  status: ('A' for Active; 'I' for Inactive)
REMARK    1  A    between atoms: C_1  and  C_2
REMARK    2  A    between atoms: C_5  and  C_9
REMARK    3  A    between atoms: C_6  and  C_8
REMARK    4  A    between atoms: N_14  and  C_17
REMARK    5  A    between atoms: C_17  and  C_19
REMARK    6  A    between atoms: C_17  and  C_23
REMARK    7  A    between atoms: C_19  and  C_20
REMARK    8  A    between atoms: C_20  and  C_21
REMARK    9  A    between atoms: C_20  and  C_22
REMARK   10  A    between atoms: N_25  and  C_26
REMARK   11  A    between atoms: N_33  and  C_37
REMARK   12  A    between atoms: C_37  and  C_38
REMARK                            x       y       z     vdW  Elec       q    Type
REMARK                         _______ _______ _______ _____ _____    ______ ____
ROOT
ATOM      1  C   UNL     1      -0.530  -3.710   0.198  0.00  0.00    +0.142 C 
ATOM      2  C   UNL     1      -1.825  -4.420   0.540  0.00  0.00    +0.058 C 
ATOM      3  C   UNL     1      -2.169  -5.490  -0.205  0.00  0.00    +0.043 C 
ATOM      4  C   UNL     1      -3.483  -5.991   0.352  0.00  0.00    +0.160 C 
ATOM      5  N   UNL     1      -3.795  -5.080   1.463  0.00  0.00    -0.281 N 
ATOM      6  C   UNL     1      -2.797  -4.181   1.533  0.00  0.00    +0.247 C 
ATOM      7  O   UNL     1      -2.740  -3.277   2.348  0.00  0.00    -0.270 OA
ATOM      8  N   UNL     1      -1.380  -5.919  -1.234  0.00  0.00    -0.253 N 
ATOM      9  C   UNL     1      -0.228  -5.330  -1.580  0.00  0.00    +0.307 C 
ATOM     10  O   UNL     1       0.408  -5.784  -2.511  0.00  0.00    -0.252 OA
ATOM     11  N   UNL     1       0.248  -4.251  -0.929  0.00  0.00    -0.288 N 
ATOM     12  H   UNL     1       1.085  -3.840  -1.197  0.00  0.00    +0.151 HD
ENDROOT
BRANCH   1  17
ATOM     13  C   UNL     1      -1.784   1.806  -0.984  0.00  0.00    +0.044 C 
ATOM     14  C   UNL     1      -1.457   0.367  -0.676  0.00  0.00    -0.050 A 
ATOM     15  C   UNL     1      -2.423  -0.610  -0.832  0.00  0.00    +0.004 A 
ATOM     16  C   UNL     1      -2.123  -1.929  -0.549  0.00  0.00    +0.006 A 
ATOM     17  C   UNL     1      -0.857  -2.272  -0.111  0.00  0.00    -0.020 A 
ATOM     18  C   UNL     1       0.109  -1.295   0.044  0.00  0.00    -0.045 A 
ATOM     19  C   UNL     1      -0.190   0.024  -0.243  0.00  0.00    +0.007 A 
ATOM     20  C   UNL     1       1.488  -1.669   0.522  0.00  0.00    +0.044 C 
ENDBRANCH   1  17
BRANCH   5  21
ATOM     21  C   UNL     1      -4.973  -5.140   2.332  0.00  0.00    +0.163 C 
BRANCH  21  22
ATOM     22  C   UNL     1      -4.545  -5.489   3.734  0.00  0.00    +0.238 C 
ATOM     23  O   UNL     1      -3.372  -5.669   3.984  0.00  0.00    -0.273 OA
ATOM     24  N   UNL     1      -5.466  -5.600   4.712  0.00  0.00    -0.284 N 
ATOM     25  H   UNL     1      -6.409  -5.511   4.502  0.00  0.00    +0.155 HD
BRANCH  24  26
ATOM     26  C   UNL     1      -5.062  -5.844   6.030  0.00  0.00    +0.034 A 
ATOM     27  C   UNL     1      -5.776  -5.298   7.088  0.00  0.00    +0.026 A 
ATOM     28  C   UNL     1      -5.376  -5.539   8.388  0.00  0.00    +0.040 A 
ATOM     29  C   UNL     1      -4.264  -6.326   8.636  0.00  0.00    +0.124 A 
ATOM     30  C   UNL     1      -3.550  -6.872   7.582  0.00  0.00    +0.040 A 
ATOM     31  C   UNL     1      -3.951  -6.637   6.281  0.00  0.00    +0.026 A 
ATOM     32  F   UNL     1      -3.873  -6.560   9.908  0.00  0.00    -0.205 F 
ENDBRANCH  24  26
ENDBRANCH  21  22
BRANCH  21  33
ATOM     33  C   UNL     1      -5.674  -3.781   2.336  0.00  0.00    +0.035 C 
BRANCH  33  34
ATOM     34  C   UNL     1      -6.284  -3.518   0.957  0.00  0.00    -0.015 C 
ATOM     35  C   UNL     1      -7.175  -2.276   1.022  0.00  0.00    +0.007 C 
ATOM     36  C   UNL     1      -5.164  -3.290  -0.061  0.00  0.00    +0.007 C 
ENDBRANCH  33  34
ENDBRANCH  21  33
ENDBRANCH   5  21
BRANCH   8  37
ATOM     37  C   UNL     1      -1.818  -7.088  -2.001  0.00  0.00    +0.141 C 
BRANCH  37  38
ATOM     38  C   UNL     1      -2.672  -6.638  -3.158  0.00  0.00    -0.015 C 
ATOM     39  C   UNL     1      -2.361  -6.996  -4.379  0.00  0.00    +0.005 C 
ENDBRANCH  37  38
ENDBRANCH   8  37
TORSDOF 8
