REMARK  Name = ZINC36773102
REMARK  6 active torsions:
REMARK  status: ('A' for Active; 'I' for Inactive)
REMARK    1  A    between atoms: C_3  and  C_9
REMARK    2  A    between atoms: C_4  and  O_8
REMARK    3  A    between atoms: C_6  and  O_7
REMARK    4  A    between atoms: C_9  and  C_11
REMARK    5  A    between atoms: C_11  and  S_12
REMARK    6  A    between atoms: S_12  and  C_13
REMARK                            x       y       z     vdW  Elec       q    Type
REMARK                         _______ _______ _______ _____ _____    ______ ____
ROOT
ATOM      1  C   UNL     1       3.605   3.684  -0.015  0.00  0.00    +0.157 C 
ENDROOT
BRANCH   1   2
ATOM      2  C   UNL     1       3.634   2.177  -0.022  0.00  0.00    +0.177 C 
ATOM      3  O   UNL     1       4.696   1.590  -0.036  0.00  0.00    -0.291 OA
BRANCH   2   6
ATOM      4  C   UNL     1      -0.017   1.388   0.010  0.00  0.00    +0.046 A 
ATOM      5  C   UNL     1       1.151   2.095   0.002  0.00  0.00    +0.018 A 
ATOM      6  C   UNL     1       2.379   1.421  -0.013  0.00  0.00    +0.060 A 
ATOM      7  C   UNL     1       2.401   0.014  -0.021  0.00  0.00    +0.131 A 
ATOM      8  C   UNL     1       1.209  -0.689  -0.013  0.00  0.00    +0.091 A 
ATOM      9  C   UNL     1       0.002  -0.004   0.002  0.00  0.00    +0.120 A 
BRANCH   9  10
ATOM     10  O   UNL     1      -1.165  -0.695   0.010  0.00  0.00    -0.507 OA
ATOM     11  H   UNL     1      -1.513  -0.890  -0.871  0.00  0.00    +0.292 HD
ENDBRANCH   9  10
BRANCH   7  12
ATOM     12  O   UNL     1       3.584  -0.649  -0.037  0.00  0.00    -0.506 OA
ATOM     13  H   UNL     1       3.936  -0.846   0.842  0.00  0.00    +0.292 HD
ENDBRANCH   7  12
ENDBRANCH   2   6
ENDBRANCH   1   2
BRANCH   1  14
ATOM     14  S   UNL     1       5.304   4.320  -0.029  0.00  0.00    -0.078 S 
BRANCH  14  15
ATOM     15  C   UNL     1       5.103   6.071  -0.018  0.00  0.00    +0.196 A 
ATOM     16  N   UNL     1       3.962   6.724   0.003  0.00  0.00    -0.122 NA
ATOM     17  N   UNL     1       4.175   7.993   0.006  0.00  0.00    -0.127 NA
ATOM     18  C   UNL     1       5.474   8.226  -0.013  0.00  0.00    +0.180 A 
ATOM     19  N   UNL     1       6.102   6.999  -0.023  0.00  0.00    -0.275 N 
ATOM     20  C   UNL     1       7.468   6.919  -0.038  0.00  0.00    +0.115 A 
ATOM     21  C   UNL     1       8.218   8.040  -0.040  0.00  0.00    +0.059 A 
ATOM     22  C   UNL     1       7.606   9.308  -0.026  0.00  0.00    +0.045 A 
ATOM     23  C   UNL     1       6.249   9.405  -0.018  0.00  0.00    +0.087 A 
ATOM     24 CL   UNL     1       5.480  10.961   0.000  0.00  0.00    -0.080 Cl
ATOM     25 CL   UNL     1       9.950   7.919  -0.058  0.00  0.00    -0.082 Cl
ENDBRANCH  14  15
ENDBRANCH   1  14
TORSDOF 6
