REMARK  Name = ZINC13787740
REMARK  7 active torsions:
REMARK  status: ('A' for Active; 'I' for Inactive)
REMARK    1  A    between atoms: C_1  and  C_2
REMARK    2  A    between atoms: C_2  and  O_3
REMARK    3  A    between atoms: O_3  and  C_4
REMARK    4  A    between atoms: C_9  and  N_10
REMARK    5  A    between atoms: C_15  and  C_29
REMARK    6  A    between atoms: N_17  and  C_23
REMARK    7  A    between atoms: C_34  and  O_35
REMARK                            x       y       z     vdW  Elec       q    Type
REMARK                         _______ _______ _______ _____ _____    ______ ____
ROOT
ATOM      1  N   UNL     1       2.152  -1.507  -3.311  0.00  0.00    -0.204 N 
ATOM      2  C   UNL     1       3.362  -0.935  -3.334  0.00  0.00    +0.235 C 
ATOM      3  O   UNL     1       4.226  -1.090  -2.498  0.00  0.00    -0.274 OA
ATOM      4  C   UNL     1       3.482  -0.066  -4.564  0.00  0.00    +0.146 C 
ATOM      5  C   UNL     1       3.544   1.419  -4.138  0.00  0.00    +0.161 C 
ATOM      6  N   UNL     1       2.550   2.058  -5.035  0.00  0.00    -0.244 N 
ATOM      7  O   UNL     1       1.484   1.111  -5.122  0.00  0.00    -0.257 OA
ATOM      8  C   UNL     1       2.093  -0.208  -5.244  0.00  0.00    +0.249 C 
ATOM      9  C   UNL     1       1.364  -1.180  -4.341  0.00  0.00    +0.259 C 
ATOM     10  O   UNL     1       0.239  -1.595  -4.522  0.00  0.00    -0.272 OA
ENDROOT
BRANCH   5  11
ATOM     11  C   UNL     1       3.145   1.578  -2.694  0.00  0.00    +0.022 A 
ATOM     12  C   UNL     1       1.826   1.823  -2.364  0.00  0.00    +0.029 A 
ATOM     13  C   UNL     1       1.459   1.969  -1.038  0.00  0.00    +0.043 A 
ATOM     14  C   UNL     1       2.411   1.870  -0.039  0.00  0.00    +0.043 A 
ATOM     15  C   UNL     1       3.732   1.626  -0.365  0.00  0.00    +0.084 A 
ATOM     16  C   UNL     1       4.101   1.472  -1.695  0.00  0.00    +0.140 A 
ATOM     17 CL   UNL     1       4.927   1.503   0.888  0.00  0.00    -0.080 Cl
ATOM     18 CL   UNL     1      -0.200   2.277  -0.627  0.00  0.00    -0.083 Cl
BRANCH  16  19
ATOM     19  O   UNL     1       5.398   1.226  -2.017  0.00  0.00    -0.505 OA
ATOM     20  H   UNL     1       5.925   2.023  -2.164  0.00  0.00    +0.292 HD
ENDBRANCH  16  19
ENDBRANCH   5  11
BRANCH   1  26
ATOM     21  C   UNL     1       1.881  -3.758  -2.459  0.00  0.00    +0.142 A 
ATOM     22  C   UNL     1       1.483  -4.618  -1.448  0.00  0.00    +0.047 A 
ATOM     23  C   UNL     1       0.949  -4.110  -0.279  0.00  0.00    +0.004 A 
ATOM     24  C   UNL     1       0.808  -2.744  -0.115  0.00  0.00    +0.002 A 
ATOM     25  C   UNL     1       1.203  -1.880  -1.119  0.00  0.00    +0.027 A 
ATOM     26  C   UNL     1       1.745  -2.382  -2.292  0.00  0.00    +0.086 A 
BRANCH  21  27
ATOM     27  O   UNL     1       2.408  -4.257  -3.609  0.00  0.00    -0.490 OA
BRANCH  27  29
ATOM     28  C   UNL     1       3.150  -6.053  -5.046  0.00  0.00    +0.048 C 
ATOM     29  C   UNL     1       2.420  -5.678  -3.755  0.00  0.00    +0.226 C 
ENDBRANCH  27  29
ENDBRANCH  21  27
ENDBRANCH   1  26
BRANCH   6  30
ATOM     30  C   UNL     1       2.638   3.306  -5.656  0.00  0.00    +0.065 A 
ATOM     31  C   UNL     1       3.760   4.102  -5.464  0.00  0.00    +0.028 A 
ATOM     32  C   UNL     1       3.843   5.336  -6.080  0.00  0.00    +0.002 A 
ATOM     33  C   UNL     1       2.810   5.779  -6.886  0.00  0.00    +0.000 A 
ATOM     34  C   UNL     1       1.692   4.989  -7.079  0.00  0.00    +0.002 A 
ATOM     35  C   UNL     1       1.605   3.752  -6.471  0.00  0.00    +0.028 A 
ENDBRANCH   6  30
TORSDOF 6
