REMARK  Name = ZINC63743868
REMARK  3 active torsions:
REMARK  status: ('A' for Active; 'I' for Inactive)
REMARK    1  A    between atoms: C_3  and  N_18
REMARK    2  A    between atoms: C_6  and  C_7
REMARK    3  A    between atoms: N_21  and  C_22
REMARK                            x       y       z     vdW  Elec       q    Type
REMARK                         _______ _______ _______ _____ _____    ______ ____
ROOT
ATOM      1  C   UNL     1      -0.063   1.653  -0.746  0.00  0.00    +0.008 A 
ATOM      2  C   UNL     1       1.156   2.288  -0.607  0.00  0.00    +0.024 A 
ATOM      3  C   UNL     1       2.290   1.550  -0.294  0.00  0.00    +0.035 A 
ATOM      4  C   UNL     1       2.195   0.176  -0.122  0.00  0.00    +0.024 A 
ATOM      5  C   UNL     1       0.974  -0.454  -0.263  0.00  0.00    +0.008 A 
ATOM      6  C   UNL     1      -0.154   0.284  -0.575  0.00  0.00    -0.021 A 
ENDROOT
BRANCH   6   7
ATOM      7  C   UNL     1      -1.485  -0.406  -0.728  0.00  0.00    +0.133 C 
ATOM      8  C   UNL     1      -2.065  -0.727   0.632  0.00  0.00    +0.012 C 
ATOM      9  C   UNL     1      -2.191  -2.073   0.677  0.00  0.00    -0.002 A 
ATOM     10  C   UNL     1      -2.685  -2.991   1.710  0.00  0.00    +0.029 A 
ATOM     11  C   UNL     1      -2.689  -4.321   1.459  0.00  0.00    +0.042 A 
ATOM     12  C   UNL     1      -2.233  -4.842   0.239  0.00  0.00    +0.022 A 
ATOM     13  C   UNL     1      -1.764  -4.062  -0.757  0.00  0.00    +0.027 A 
ATOM     14  C   UNL     1      -1.715  -2.649  -0.601  0.00  0.00    +0.043 A 
ATOM     15  N   UNL     1      -1.311  -1.695  -1.407  0.00  0.00    -0.374 N 
ATOM     16 CL   UNL     1      -3.272  -5.410   2.679  0.00  0.00    -0.084 Cl
ATOM     17  H   UNL     1      -0.957  -1.820  -2.302  0.00  0.00    +0.161 HD
ENDBRANCH   6   7
BRANCH   3  18
ATOM     18  N   UNL     1       3.526   2.191  -0.152  0.00  0.00    -0.269 N 
ATOM     19  C   UNL     1       3.583   3.444   0.340  0.00  0.00    +0.308 C 
ATOM     20  O   UNL     1       2.572   3.983   0.749  0.00  0.00    -0.252 OA
ATOM     21  N   UNL     1       4.760   4.100   0.379  0.00  0.00    -0.269 N 
ATOM     22  H   UNL     1       4.342   1.733  -0.408  0.00  0.00    +0.156 HD
ATOM     23  H   UNL     1       5.551   3.701  -0.015  0.00  0.00    +0.156 HD
BRANCH  21  24
ATOM     24  C   UNL     1       4.840   5.359   0.989  0.00  0.00    +0.038 A 
ATOM     25  C   UNL     1       4.040   5.652   2.085  0.00  0.00    +0.027 A 
ATOM     26  C   UNL     1       4.118   6.894   2.686  0.00  0.00    +0.051 A 
ATOM     27  C   UNL     1       4.996   7.850   2.198  0.00  0.00    +0.162 A 
ATOM     28  C   UNL     1       5.800   7.559   1.102  0.00  0.00    +0.164 A 
ATOM     29  C   UNL     1       5.723   6.311   0.502  0.00  0.00    +0.072 A 
ATOM     30  O   UNL     1       6.672   8.482   0.613  0.00  0.00    -0.485 OA
ATOM     31  C   UNL     1       6.459   9.842   1.008  0.00  0.00    +0.270 C 
ATOM     32  C   UNL     1       6.210   9.870   2.522  0.00  0.00    +0.270 C 
ATOM     33  O   UNL     1       5.056   9.070   2.801  0.00  0.00    -0.485 OA
ENDBRANCH  21  24
ENDBRANCH   3  18
TORSDOF 3
