REMARK  Name = ZINC13471594
REMARK  10 active torsions:
REMARK  status: ('A' for Active; 'I' for Inactive)
REMARK    1  A    between atoms: C_1  and  C_2
REMARK    2  A    between atoms: C_2  and  C_3
REMARK    3  A    between atoms: C_3  and  N_4
REMARK    4  A    between atoms: C_11  and  C_23
REMARK    5  A    between atoms: C_13  and  C_19
REMARK    6  A    between atoms: C_13  and  C_21
REMARK    7  A    between atoms: C_14  and  N_18
REMARK    8  A    between atoms: C_15  and  C_16
REMARK    9  A    between atoms: C_23  and  C_24
REMARK   10  A    between atoms: C_23  and  C_25
REMARK                            x       y       z     vdW  Elec       q    Type
REMARK                         _______ _______ _______ _____ _____    ______ ____
ROOT
ATOM      1  N   UNL     1       1.177   0.773   1.580  0.00  0.00    -0.298 NA
ATOM      2  C   UNL     1      -0.004   0.122   2.171  0.00  0.00    +0.112 C 
ATOM      3  C   UNL     1      -1.228   0.829   1.644  0.00  0.00    -0.007 C 
ATOM      4  C   UNL     1      -1.224   1.342   0.427  0.00  0.00    -0.027 C 
ATOM      5  C   UNL     1      -0.058   1.215  -0.511  0.00  0.00    +0.040 C 
ATOM      6  C   UNL     1       1.172   0.605   0.124  0.00  0.00    +0.093 C 
ATOM      7  C   UNL     1       0.231   2.597  -1.100  0.00  0.00    +0.040 C 
ATOM      8  C   UNL     1      -0.980   3.052  -1.915  0.00  0.00    +0.184 C 
ATOM      9  C   UNL     1      -2.253   2.931  -1.133  0.00  0.00    +0.054 C 
ATOM     10  C   UNL     1      -2.390   2.130  -0.045  0.00  0.00    +0.074 C 
ENDROOT
BRANCH   9  11
ATOM     11  N   UNL     1      -3.333   3.665  -1.536  0.00  0.00    -0.358 N 
ATOM     12  H   UNL     1      -4.281   3.598  -0.983  0.00  0.00    +0.142 HD
ATOM     13  H   UNL     1      -3.253   4.323  -2.414  0.00  0.00    +0.142 HD
ENDBRANCH   9  11
BRANCH   7  14
ATOM     14  C   UNL     1       1.462   2.521  -2.007  0.00  0.00    -0.011 C 
ATOM     15  C   UNL     1       1.263   1.414  -3.044  0.00  0.00    +0.007 C 
ATOM     16  C   UNL     1       1.653   3.860  -2.720  0.00  0.00    +0.007 C 
ENDBRANCH   7  14
BRANCH  10  17
ATOM     17  C   UNL     1      -3.645   2.048   0.640  0.00  0.00    +0.101 C 
ATOM     18  N   UNL     1      -4.640   1.982   1.183  0.00  0.00    -0.191 NA
ENDBRANCH  10  17
BRANCH   8  19
ATOM     19  C   UNL     1      -0.792   4.457  -2.311  0.00  0.00    +0.091 C 
ATOM     20  N   UNL     1      -0.647   5.542  -2.616  0.00  0.00    -0.195 NA
ENDBRANCH   8  19
BRANCH   8  21
ATOM     21  C   UNL     1      -1.082   2.222  -3.127  0.00  0.00    +0.091 C 
ATOM     22  N   UNL     1      -1.161   1.582  -4.062  0.00  0.00    -0.195 NA
ENDBRANCH   8  21
BRANCH   1  23
ATOM     23  C   UNL     1       2.415   0.243   2.167  0.00  0.00    +0.084 C 
BRANCH  23  25
ATOM     24  C   UNL     1       3.788   0.103   4.249  0.00  0.00    +0.005 C 
ATOM     25  C   UNL     1       2.498   0.654   3.638  0.00  0.00    +0.012 C 
ENDBRANCH  23  25
ENDBRANCH   1  23
TORSDOF 7
