REMARK  Name = ZINC35544527
REMARK  8 active torsions:
REMARK  status: ('A' for Active; 'I' for Inactive)
REMARK    1  A    between atoms: C_1  and  C_2
REMARK    2  A    between atoms: C_2  and  O_3
REMARK    3  A    between atoms: O_3  and  C_4
REMARK    4  A    between atoms: C_4  and  C_6
REMARK    5  A    between atoms: C_13  and  C_15
REMARK    6  A    between atoms: C_20  and  N_38
REMARK    7  A    between atoms: N_28  and  C_31
REMARK    8  A    between atoms: C_31  and  C_32
REMARK                            x       y       z     vdW  Elec       q    Type
REMARK                         _______ _______ _______ _____ _____    ______ ____
ROOT
ATOM      1  C   UNL     1       2.491  -5.760  -5.668  0.00  0.00    +0.098 C 
ATOM      2  C   UNL     1       2.901  -4.538  -6.489  0.00  0.00    +0.051 C 
ATOM      3  C   UNL     1       1.669  -3.874  -7.048  0.00  0.00    -0.023 A 
ATOM      4  C   UNL     1       1.707  -2.524  -7.351  0.00  0.00    +0.038 A 
ATOM      5  C   UNL     1       0.587  -1.895  -7.859  0.00  0.00    +0.127 A 
ATOM      6  C   UNL     1      -0.577  -2.613  -8.067  0.00  0.00    +0.034 A 
ATOM      7  C   UNL     1      -0.620  -3.960  -7.770  0.00  0.00    +0.025 A 
ATOM      8  C   UNL     1       0.508  -4.596  -7.260  0.00  0.00    +0.033 A 
ATOM      9  N   UNL     1       0.436  -5.970  -6.978  0.00  0.00    -0.329 N 
ATOM     10  C   UNL     1       1.620  -6.684  -6.526  0.00  0.00    +0.069 C 
ATOM     11  C   UNL     1       1.303  -7.940  -5.731  0.00  0.00    -0.055 C 
ATOM     12  N   UNL     1       0.150  -8.655  -6.277  0.00  0.00    +0.385 N 
ATOM     13  C   UNL     1      -1.032  -7.783  -6.200  0.00  0.00    -0.059 C 
ATOM     14  C   UNL     1      -0.851  -6.636  -7.191  0.00  0.00    +0.087 C 
ATOM     15  H   UNL     1       0.328  -8.899  -7.240  0.00  0.00    -0.081 HD
ENDROOT
BRANCH   1  22
ATOM     16  C   UNL     1       4.232  -5.676  -2.015  0.00  0.00    +0.115 C 
ATOM     17  C   UNL     1       3.566  -5.016  -0.806  0.00  0.00    +0.018 C 
ATOM     18  C   UNL     1       2.044  -5.099  -0.951  0.00  0.00    +0.020 C 
ATOM     19  C   UNL     1       1.614  -4.344  -2.212  0.00  0.00    +0.108 C 
ATOM     20  N   UNL     1       2.360  -4.878  -3.360  0.00  0.00    -0.300 N 
ATOM     21  C   UNL     1       3.826  -4.929  -3.289  0.00  0.00    +0.122 C 
ATOM     22  C   UNL     1       1.711  -5.313  -4.459  0.00  0.00    +0.221 C 
ATOM     23  O   UNL     1       0.498  -5.345  -4.474  0.00  0.00    -0.275 OA
BRANCH  16  24
ATOM     24  C   UNL     1       5.730  -5.623  -1.855  0.00  0.00    +0.312 C 
ATOM     25  O   UNL     1       6.404  -5.048  -2.676  0.00  0.00    -0.250 OA
BRANCH  24  26
ATOM     26  O   UNL     1       6.314  -6.214  -0.801  0.00  0.00    -0.465 OA
BRANCH  26  28
ATOM     27  C   UNL     1       8.218  -6.851   0.544  0.00  0.00    +0.048 C 
ATOM     28  C   UNL     1       7.737  -6.124  -0.714  0.00  0.00    +0.229 C 
ENDBRANCH  26  28
ENDBRANCH  24  26
ENDBRANCH  16  24
ENDBRANCH   1  22
BRANCH   5  29
ATOM     29  N   UNL     1       0.632  -0.451  -8.181  0.00  0.00    +0.056 N 
ATOM     30  O   UNL     1       1.649   0.177  -8.000  0.00  0.00    -0.126 OA
ATOM     31  O   UNL     1      -0.348   0.100  -8.626  0.00  0.00    -0.126 OA
ENDBRANCH   5  29
BRANCH  12  32
ATOM     32  C   UNL     1      -0.088  -9.876  -5.494  0.00  0.00    -0.043 C 
BRANCH  32  33
ATOM     33  C   UNL     1      -1.197 -10.673  -6.131  0.00  0.00    -0.064 A 
ATOM     34  C   UNL     1      -2.510 -10.450  -5.760  0.00  0.00    +0.002 A 
ATOM     35  C   UNL     1      -3.527 -11.181  -6.344  0.00  0.00    +0.000 A 
ATOM     36  C   UNL     1      -3.232 -12.135  -7.300  0.00  0.00    +0.000 A 
ATOM     37  C   UNL     1      -1.919 -12.357  -7.672  0.00  0.00    +0.000 A 
ATOM     38  C   UNL     1      -0.902 -11.623  -7.091  0.00  0.00    +0.002 A 
ENDBRANCH  32  33
ENDBRANCH  12  32
TORSDOF 7
