REMARK  Name = ZINC44605576
REMARK  4 active torsions:
REMARK  status: ('A' for Active; 'I' for Inactive)
REMARK    1  A    between atoms: C_4  and  C_7
REMARK    2  A    between atoms: N_11  and  O_12
REMARK    3  A    between atoms: O_12  and  S_13
REMARK    4  A    between atoms: S_13  and  C_16
REMARK                            x       y       z     vdW  Elec       q    Type
REMARK                         _______ _______ _______ _____ _____    ______ ____
ROOT
ATOM      1  C   UNL     1       3.711  -0.707  -0.038  0.00  0.00    +0.209 C 
ATOM      2  C   UNL     1       4.081  -1.061  -1.486  0.00  0.00    +0.109 C 
ATOM      3  C   UNL     1       5.393  -1.825  -1.438  0.00  0.00    +0.097 C 
ATOM      4  N   UNL     1       6.325  -1.633  -2.314  0.00  0.00    -0.056 NA
ATOM      5  C   UNL     1       5.548  -2.801  -0.336  0.00  0.00    +0.043 A 
ATOM      6  C   UNL     1       6.595  -3.720  -0.342  0.00  0.00    +0.033 A 
ATOM      7  C   UNL     1       6.721  -4.619   0.699  0.00  0.00    +0.042 A 
ATOM      8  C   UNL     1       5.811  -4.603   1.744  0.00  0.00    +0.023 A 
ATOM      9  C   UNL     1       4.770  -3.696   1.757  0.00  0.00    +0.048 A 
ATOM     10  C   UNL     1       4.625  -2.788   0.718  0.00  0.00    +0.130 A 
ATOM     11  O   UNL     1       3.596  -1.906   0.729  0.00  0.00    -0.483 OA
ATOM     12 CL   UNL     1       8.022  -5.768   0.700  0.00  0.00    -0.084 Cl
ENDROOT
BRANCH   1  16
ATOM     13  C   UNL     1      -0.017   1.378   0.010  0.00  0.00    +0.000 A 
ATOM     14  C   UNL     1       1.171   2.086   0.002  0.00  0.00    +0.000 A 
ATOM     15  C   UNL     1       2.377   1.411  -0.013  0.00  0.00    +0.007 A 
ATOM     16  C   UNL     1       2.396   0.029  -0.020  0.00  0.00    -0.007 A 
ATOM     17  C   UNL     1       1.208  -0.679  -0.012  0.00  0.00    +0.007 A 
ATOM     18  C   UNL     1       0.002  -0.004   0.002  0.00  0.00    +0.000 A 
ENDBRANCH   1  16
BRANCH   4  19
ATOM     19  O   UNL     1       6.137  -0.689  -3.353  0.00  0.00    -0.225 OA
BRANCH  19  20
ATOM     20  S   UNL     1       7.318  -0.573  -4.306  0.00  0.00    +0.170 S 
ATOM     21  O   UNL     1       7.056   0.544  -5.144  0.00  0.00    -0.130 OA
ATOM     22  O   UNL     1       8.492  -0.669  -3.510  0.00  0.00    -0.130 OA
BRANCH  20  23
ATOM     23  C   UNL     1       7.294  -1.997  -5.342  0.00  0.00    +0.130 A 
ATOM     24  C   UNL     1       7.971  -3.141  -4.960  0.00  0.00    +0.030 A 
ATOM     25  C   UNL     1       7.952  -4.259  -5.774  0.00  0.00    +0.002 A 
ATOM     26  C   UNL     1       7.256  -4.233  -6.968  0.00  0.00    +0.000 A 
ATOM     27  C   UNL     1       6.579  -3.090  -7.349  0.00  0.00    +0.002 A 
ATOM     28  C   UNL     1       6.594  -1.973  -6.534  0.00  0.00    +0.030 A 
ENDBRANCH  20  23
ENDBRANCH  19  20
ENDBRANCH   4  19
TORSDOF 4
