REMARK  Name = ZINC15003686
REMARK  14 active torsions:
REMARK  status: ('A' for Active; 'I' for Inactive)
REMARK    1  A    between atoms: C_1  and  C_2
REMARK    2  A    between atoms: C_3  and  C_8
REMARK    3  A    between atoms: N_5  and  C_7
REMARK    4  A    between atoms: C_8  and  N_9
REMARK    5  A    between atoms: N_9  and  C_10
REMARK    6  A    between atoms: N_9  and  C_11
REMARK    7  A    between atoms: C_11  and  C_13
REMARK    8  A    between atoms: C_11  and  C_21
REMARK    9  A    between atoms: C_13  and  C_14
REMARK   10  A    between atoms: N_24  and  C_27
REMARK   11  A    between atoms: C_27  and  C_28
REMARK   12  A    between atoms: C_29  and  O_36
REMARK   13  A    between atoms: C_33  and  O_34
REMARK   14  A    between atoms: O_34  and  C_35
REMARK                            x       y       z     vdW  Elec       q    Type
REMARK                         _______ _______ _______ _____ _____    ______ ____
ROOT
ATOM      1  C   UNL     1      -2.906   3.683   1.071  0.00  0.00    +0.064 C 
ENDROOT
BRANCH   1   2
ATOM      2  C   UNL     1      -3.667   3.923   2.376  0.00  0.00    +0.003 C 
ATOM      3  C   UNL     1      -4.190   2.589   2.917  0.00  0.00    -0.014 C 
ATOM      4  C   UNL     1      -5.002   2.843   4.189  0.00  0.00    -0.078 C 
ATOM      5  N   UNL     1      -6.123   3.741   3.884  0.00  0.00    +0.383 N 
ATOM      6  C   UNL     1      -5.645   5.045   3.408  0.00  0.00    -0.078 C 
ATOM      7  C   UNL     1      -4.852   4.857   2.112  0.00  0.00    -0.014 C 
ATOM      8  H   UNL     1      -6.709   3.282   3.074  0.00  0.00    -0.081 HD
BRANCH   5   9
ATOM      9  C   UNL     1      -7.004   3.896   5.049  0.00  0.00    -0.036 C 
BRANCH   9  10
ATOM     10  C   UNL     1      -7.276   2.545   5.658  0.00  0.00    +0.019 A 
ATOM     11  C   UNL     1      -6.441   2.048   6.647  0.00  0.00    +0.122 A 
ATOM     12  C   UNL     1      -6.694   0.803   7.206  0.00  0.00    +0.046 A 
ATOM     13  C   UNL     1      -7.776   0.059   6.777  0.00  0.00    +0.007 A 
ATOM     14  C   UNL     1      -8.609   0.551   5.791  0.00  0.00    +0.046 A 
ATOM     15  C   UNL     1      -8.364   1.799   5.233  0.00  0.00    +0.125 A 
BRANCH  15  16
ATOM     16  O   UNL     1      -9.188   2.285   4.268  0.00  0.00    -0.495 OA
ATOM     17  C   UNL     1     -10.289   1.462   3.879  0.00  0.00    +0.277 C 
ENDBRANCH  15  16
BRANCH  11  18
ATOM     18  O   UNL     1      -5.377   2.779   7.069  0.00  0.00    -0.506 OA
ATOM     19  H   UNL     1      -4.715   2.385   7.854  0.00  0.00    +0.292 HD
ENDBRANCH  11  18
ENDBRANCH   9  10
ENDBRANCH   5   9
ENDBRANCH   1   2
BRANCH   1  20
ATOM     20  N   UNL     1      -1.690   2.906   1.349  0.00  0.00    -0.298 NA
ATOM     21  C   UNL     1      -0.674   3.129   0.311  0.00  0.00    +0.105 C 
BRANCH  20  22
ATOM     22  C   UNL     1      -1.159   3.220   2.682  0.00  0.00    +0.123 C 
BRANCH  22  25
ATOM     23  C   UNL     1       1.913   3.481   1.950  0.00  0.00    +0.068 C 
ATOM     24  C   UNL     1       1.280   2.349   2.716  0.00  0.00    +0.064 A 
ATOM     25  C   UNL     1      -0.077   2.233   3.036  0.00  0.00    +0.007 A 
ATOM     26  C   UNL     1      -0.245   1.081   3.726  0.00  0.00    +0.113 A 
ATOM     27  N   UNL     1       0.962   0.488   3.838  0.00  0.00    -0.274 N 
ATOM     28  N   UNL     1       1.904   1.303   3.196  0.00  0.00    -0.176 NA
ATOM     29  C   UNL     1       1.240  -0.783   4.511  0.00  0.00    +0.172 C 
ENDBRANCH  22  25
ENDBRANCH  20  22
ENDBRANCH   1  20
BRANCH   1  30
ATOM     30  C   UNL     1      -3.795   2.907   0.097  0.00  0.00    +0.057 C 
BRANCH  30  31
ATOM     31  C   UNL     1      -3.103   2.797  -1.237  0.00  0.00    -0.011 A 
ATOM     32  C   UNL     1      -3.147   3.853  -2.128  0.00  0.00    +0.006 A 
ATOM     33  C   UNL     1      -2.507   3.755  -3.349  0.00  0.00    +0.000 A 
ATOM     34  C   UNL     1      -1.831   2.596  -3.686  0.00  0.00    +0.003 A 
ATOM     35  C   UNL     1      -1.790   1.538  -2.799  0.00  0.00    +0.038 A 
ATOM     36  C   UNL     1      -2.426   1.637  -1.573  0.00  0.00    +0.127 A 
ATOM     37  F   UNL     1      -2.387   0.602  -0.705  0.00  0.00    -0.205 F 
ENDBRANCH  30  31
ENDBRANCH   1  30
TORSDOF 10
