REMARK  Name = ZINC18007920
REMARK  9 active torsions:
REMARK  status: ('A' for Active; 'I' for Inactive)
REMARK    1  A    between atoms: C_1  and  C_2
REMARK    2  A    between atoms: C_4  and  C_9
REMARK    3  A    between atoms: C_5  and  O_8
REMARK    4  A    between atoms: C_9  and  C_22
REMARK    5  A    between atoms: N_10  and  N_11
REMARK    6  A    between atoms: C_12  and  C_13
REMARK    7  A    between atoms: C_12  and  C_21
REMARK    8  A    between atoms: C_14  and  O_20
REMARK    9  A    between atoms: C_17  and  C_19
REMARK                            x       y       z     vdW  Elec       q    Type
REMARK                         _______ _______ _______ _____ _____    ______ ____
ROOT
ATOM      1  C   UNL     1       0.028  -2.814  -2.479  0.00  0.00    +0.071 C 
ATOM      2  N   UNL     1       0.046  -4.122  -2.482  0.00  0.00    -0.154 NA
ATOM      3  C   UNL     1       0.011  -2.057  -3.783  0.00  0.00    +0.068 C 
ENDROOT
BRANCH   1   7
ATOM      4  C   UNL     1      -0.018   1.503   0.010  0.00  0.00    +0.044 C 
ATOM      5  C   UNL     1       0.002  -0.004   0.002  0.00  0.00    -0.050 A 
ATOM      6  C   UNL     1       0.006  -0.683  -1.197  0.00  0.00    +0.016 A 
ATOM      7  C   UNL     1       0.025  -2.082  -1.206  0.00  0.00    +0.039 A 
ATOM      8  C   UNL     1       0.040  -2.783   0.012  0.00  0.00    +0.126 A 
ATOM      9  C   UNL     1       0.036  -2.082   1.206  0.00  0.00    +0.046 A 
ATOM     10  C   UNL     1       0.023  -0.700   1.200  0.00  0.00    +0.007 A 
BRANCH   8  11
ATOM     11  O   UNL     1       0.058  -4.140   0.017  0.00  0.00    -0.506 OA
ATOM     12  H   UNL     1       0.946  -4.521   0.015  0.00  0.00    +0.292 HD
ENDBRANCH   8  11
ENDBRANCH   1   7
BRANCH   2  13
ATOM     13  N   UNL     1       0.049  -4.764  -3.601  0.00  0.00    -0.154 NA
ATOM     14  C   UNL     1       0.067  -6.072  -3.604  0.00  0.00    +0.071 C 
ATOM     15  C   UNL     1       0.084  -6.828  -2.301  0.00  0.00    +0.068 C 
BRANCH  14  16
ATOM     16  C   UNL     1       0.070  -6.803  -4.878  0.00  0.00    +0.039 A 
ATOM     17  C   UNL     1       0.060  -6.103  -6.095  0.00  0.00    +0.126 A 
ATOM     18  C   UNL     1       0.063  -6.803  -7.290  0.00  0.00    +0.046 A 
ATOM     19  C   UNL     1       0.076  -8.186  -7.283  0.00  0.00    +0.007 A 
ATOM     20  C   UNL     1       0.086  -8.881  -6.085  0.00  0.00    -0.050 A 
ATOM     21  C   UNL     1       0.089  -8.202  -4.886  0.00  0.00    +0.016 A 
ATOM     22  C   UNL     1       0.099 -10.388  -6.094  0.00  0.00    +0.044 C 
BRANCH  17  23
ATOM     23  O   UNL     1       0.047  -4.745  -6.101  0.00  0.00    -0.506 OA
ATOM     24  H   UNL     1       0.926  -4.344  -6.104  0.00  0.00    +0.292 HD
ENDBRANCH  17  23
ENDBRANCH  14  16
ENDBRANCH   2  13
TORSDOF 5
