REMARK  Name = ZINC02030294
REMARK  5 active torsions:
REMARK  status: ('A' for Active; 'I' for Inactive)
REMARK    1  A    between atoms: CB_1  and  CA_2
REMARK    2  A    between atoms: CB_1  and  CG_11
REMARK    3  A    between atoms: CA_2  and  C_4
REMARK    4  A    between atoms: CA_2  and  N_6
REMARK    5  A    between atoms: C_7  and  C_9
REMARK                            x       y       z     vdW  Elec       q    Type
REMARK                         _______ _______ _______ _____ _____    ______ ____
ROOT
ATOM      1  CA  ASP A   1      -0.013   1.086   0.008  0.00  0.00    +0.197 C 
ENDROOT
BRANCH   1   2
ATOM      2  N   ASP A   1       1.362   1.593  -0.002  0.00  0.00    -0.301 N 
ATOM      3  C   UNK A   0       2.331   0.926   0.654  0.00  0.00    +0.228 C 
ATOM      4  O   UNK A   0       2.066  -0.095   1.254  0.00  0.00    -0.275 OA
ATOM      5  H   ASP A   1       1.574   2.409  -0.482  0.00  0.00    +0.150 HD
BRANCH   3   6
ATOM      6  C   UNK A   0       3.745   1.447   0.644  0.00  0.00    +0.204 C 
ATOM      7 CL   UNK A   0       4.800   0.344   1.603  0.00  0.00    -0.116 Cl
ENDBRANCH   3   6
ENDBRANCH   1   2
BRANCH   1   8
ATOM      8  C   ASP A   1      -0.718   1.572   1.248  0.00  0.00    +0.376 C 
ATOM      9  O   ASP A   1      -0.133   2.270   2.041  0.00  0.00    -0.244 OA
ATOM     10  OXT ASP A   1      -1.997   1.229   1.471  0.00  0.00    -0.244 OA
ENDBRANCH   1   8
BRANCH   1  11
ATOM     11  CB  ASP A   1      -0.753   1.593  -1.232  0.00  0.00    +0.159 C 
BRANCH  11  12
ATOM     12  CG  ASP A   1      -0.121   1.007  -2.468  0.00  0.00    +0.358 C 
ATOM     13  OD1 ASP A   1       0.824   0.261  -2.368  0.00  0.00    -0.246 OA
ATOM     14  OD2 ASP A   1      -0.608   1.314  -3.680  0.00  0.00    -0.246 OA
ENDBRANCH  11  12
ENDBRANCH   1  11
TORSDOF 5
