REMARK  Name = ZINC15155572
REMARK  16 active torsions:
REMARK  status: ('A' for Active; 'I' for Inactive)
REMARK    1  A    between atoms: C_1  and  C_2
REMARK    2  A    between atoms: C_2  and  O_3
REMARK    3  A    between atoms: O_3  and  C_4
REMARK    4  A    between atoms: C_4  and  C_6
REMARK    5  A    between atoms: C_10  and  N_11
REMARK    6  A    between atoms: C_12  and  C_14
REMARK    7  A    between atoms: C_14  and  C_16
REMARK    8  A    between atoms: C_14  and  O_17
REMARK    9  A    between atoms: O_17  and  C_18
REMARK   10  A    between atoms: C_18  and  C_20
REMARK   11  A    between atoms: C_23  and  O_30
REMARK   12  A    between atoms: C_24  and  O_28
REMARK   13  A    between atoms: C_25  and  O_26
REMARK   14  A    between atoms: O_26  and  C_27
REMARK   15  A    between atoms: O_28  and  C_29
REMARK   16  A    between atoms: O_30  and  C_31
REMARK                            x       y       z     vdW  Elec       q    Type
REMARK                         _______ _______ _______ _____ _____    ______ ____
ROOT
ATOM      1  N   UNL     1       1.777  -0.137   7.007  0.00  0.00    -0.276 N 
ATOM      2  C   UNL     1       1.499  -0.670   5.801  0.00  0.00    +0.258 C 
ATOM      3  O   UNL     1       1.925  -1.768   5.510  0.00  0.00    -0.271 OA
ATOM      4  H   UNL     1       1.436   0.741   7.240  0.00  0.00    +0.155 HD
ENDROOT
BRANCH   1   9
ATOM      5  C   UNL     1       2.945  -0.463   9.191  0.00  0.00    +0.091 A 
ATOM      6  C   UNL     1       3.760  -1.399   9.948  0.00  0.00    -0.021 A 
ATOM      7  C   UNL     1       4.056  -2.551   9.309  0.00  0.00    -0.004 A 
ATOM      8  S   UNL     1       3.266  -2.410   7.731  0.00  0.00    -0.077 S 
ATOM      9  C   UNL     1       2.550  -0.843   7.915  0.00  0.00    +0.086 A 
ATOM     10  C   UNL     1       4.877  -3.689   9.832  0.00  0.00    +0.043 C 
ATOM     11  C   UNL     1       5.649  -3.201  11.067  0.00  0.00    +0.005 C 
ATOM     12  C   UNL     1       4.680  -2.461  11.994  0.00  0.00    +0.005 C 
ATOM     13  C   UNL     1       4.266  -1.132  11.360  0.00  0.00    +0.037 C 
BRANCH   5  14
ATOM     14  C   UNL     1       2.552   0.830   9.755  0.00  0.00    +0.342 C 
ATOM     15  O   UNL     1       1.519   0.929  10.389  0.00  0.00    -0.245 OA
BRANCH  14  16
ATOM     16  O   UNL     1       3.336   1.912   9.570  0.00  0.00    -0.461 OA
BRANCH  16  18
ATOM     17  C   UNL     1       3.895   4.267   9.845  0.00  0.00    +0.048 C 
ATOM     18  C   UNL     1       2.885   3.161  10.157  0.00  0.00    +0.229 C 
ENDBRANCH  16  18
ENDBRANCH  14  16
ENDBRANCH   5  14
ENDBRANCH   1   9
BRANCH   2  19
ATOM     19  C   UNL     1       0.658   0.097   4.814  0.00  0.00    +0.259 C 
ATOM     20  C   UNL     1      -0.719   0.373   5.422  0.00  0.00    +0.062 C 
BRANCH  19  21
ATOM     21  O   UNL     1       0.502  -0.684   3.600  0.00  0.00    -0.449 OA
BRANCH  21  22
ATOM     22  C   UNL     1       0.356  -0.001   2.447  0.00  0.00    +0.344 C 
ATOM     23  O   UNL     1       0.359   1.214   2.456  0.00  0.00    -0.245 OA
BRANCH  22  24
ATOM     24  C   UNL     1       0.194  -0.727   1.177  0.00  0.00    +0.104 A 
ATOM     25  C   UNL     1       0.192  -2.127   1.163  0.00  0.00    +0.022 A 
ATOM     26  C   UNL     1       0.040  -2.803  -0.025  0.00  0.00    +0.050 A 
ATOM     27  C   UNL     1      -0.111  -2.103  -1.217  0.00  0.00    +0.165 A 
ATOM     28  C   UNL     1      -0.115  -0.713  -1.216  0.00  0.00    +0.204 A 
ATOM     29  C   UNL     1       0.042  -0.019  -0.024  0.00  0.00    +0.179 A 
BRANCH  29  30
ATOM     30  O   UNL     1       0.043   1.338  -0.020  0.00  0.00    -0.491 OA
ATOM     31  C   UNL     1       1.284   1.987  -0.305  0.00  0.00    +0.277 C 
ENDBRANCH  29  30
BRANCH  28  32
ATOM     32  O   UNL     1      -0.269  -0.032  -2.385  0.00  0.00    -0.488 OA
ATOM     33  C   UNL     1      -1.597   0.360  -2.738  0.00  0.00    +0.277 C 
ENDBRANCH  28  32
BRANCH  27  34
ATOM     34  O   UNL     1      -0.260  -2.779  -2.385  0.00  0.00    -0.491 OA
ATOM     35  C   UNL     1      -0.252  -4.207  -2.313  0.00  0.00    +0.277 C 
ENDBRANCH  27  34
ENDBRANCH  22  24
ENDBRANCH  21  22
ENDBRANCH  19  21
ENDBRANCH   2  19
TORSDOF 11
