REMARK  Name = ZINC12181526
REMARK  8 active torsions:
REMARK  status: ('A' for Active; 'I' for Inactive)
REMARK    1  A    between atoms: C_1  and  C_2
REMARK    2  A    between atoms: C_2  and  C_16
REMARK    3  A    between atoms: N_5  and  C_9
REMARK    4  A    between atoms: C_9  and  C_10
REMARK    5  A    between atoms: C_10  and  N_76
REMARK    6  A    between atoms: C_22  and  C_24
REMARK    7  A    between atoms: C_24  and  C_26
REMARK    8  A    between atoms: C_24  and  C_32
REMARK                            x       y       z     vdW  Elec       q    Type
REMARK                         _______ _______ _______ _____ _____    ______ ____
ROOT
ATOM      1  C   UNL     1       0.686  -2.578   1.012  0.00  0.00    +0.024 C 
ATOM      2  C   UNL     1      -0.665  -1.901   1.253  0.00  0.00    +0.025 C 
ATOM      3  C   UNL     1      -0.952  -0.922   0.111  0.00  0.00    +0.108 C 
ATOM      4  N   UNL     1       0.177   0.011  -0.008  0.00  0.00    -0.301 N 
ATOM      5  C   UNL     1       1.532  -0.537  -0.158  0.00  0.00    +0.108 C 
ATOM      6  C   UNL     1       1.792  -1.521   0.993  0.00  0.00    +0.025 C 
ATOM      7  C   UNL     1      -0.027   1.343   0.015  0.00  0.00    +0.223 C 
ATOM      8  O   UNL     1      -1.157   1.783   0.030  0.00  0.00    -0.275 OA
ENDROOT
BRANCH   1  10
ATOM      9  C   UNL     1      -0.168  -4.613   2.218  0.00  0.00    +0.042 C 
ATOM     10  C   UNL     1       0.960  -3.583   2.132  0.00  0.00    +0.113 C 
ATOM     11  C   UNL     1       2.295  -4.269   1.919  0.00  0.00    +0.246 C 
ATOM     12  O   UNL     1       2.619  -4.964   0.979  0.00  0.00    -0.273 OA
ATOM     13  N   UNL     1       3.046  -3.947   2.990  0.00  0.00    -0.226 N 
ATOM     14  C   UNL     1       2.379  -3.161   3.842  0.00  0.00    +0.309 C 
ATOM     15  O   UNL     1       2.848  -2.739   4.881  0.00  0.00    -0.252 OA
ATOM     16  N   UNL     1       1.131  -2.888   3.421  0.00  0.00    -0.285 N 
ATOM     17  H   UNL     1       0.472  -2.341   3.876  0.00  0.00    +0.151 HD
BRANCH  13  18
ATOM     18  C   UNL     1       4.424  -4.401   3.196  0.00  0.00    +0.099 C 
BRANCH  18  19
ATOM     19  C   UNL     1       5.391  -3.392   2.574  0.00  0.00    -0.059 C 
BRANCH  19  25
ATOM     20  C   UNL     1       7.127  -3.828   4.207  0.00  0.00    -0.050 C 
ATOM     21  C   UNL     1       8.550  -4.365   4.382  0.00  0.00    +0.141 C 
ATOM     22  O   UNL     1       9.449  -3.584   3.591  0.00  0.00    -0.383 OA
ATOM     23  C   UNL     1       9.134  -3.581   2.196  0.00  0.00    +0.141 C 
ATOM     24  C   UNL     1       7.717  -3.037   1.998  0.00  0.00    -0.050 C 
ATOM     25  N   UNL     1       6.776  -3.873   2.772  0.00  0.00    +0.384 N 
ATOM     26  H   UNL     1       6.843  -4.843   2.442  0.00  0.00    -0.082 HD
ENDBRANCH  19  25
ENDBRANCH  18  19
ENDBRANCH  13  18
ENDBRANCH   1  10
BRANCH   7  27
ATOM     27  C   UNL     1       1.149   2.285   0.017  0.00  0.00    +0.108 C 
BRANCH  27  28
ATOM     28  C   UNL     1       1.460   2.702  -1.397  0.00  0.00    -0.035 A 
ATOM     29  C   UNL     1       0.503   3.356  -2.151  0.00  0.00    +0.004 A 
ATOM     30  C   UNL     1       0.790   3.743  -3.447  0.00  0.00    +0.000 A 
ATOM     31  C   UNL     1       2.031   3.468  -3.992  0.00  0.00    +0.000 A 
ATOM     32  C   UNL     1       2.986   2.810  -3.240  0.00  0.00    +0.000 A 
ATOM     33  C   UNL     1       2.700   2.427  -1.942  0.00  0.00    +0.004 A 
ENDBRANCH  27  28
BRANCH  27  34
ATOM     34  C   UNL     1       0.810   3.522   0.851  0.00  0.00    +0.005 C 
ATOM     35  C   UNL     1       1.985   4.521   0.817  0.00  0.00    +0.004 C 
ATOM     36  C   UNL     1       2.017   5.119   2.246  0.00  0.00    +0.000 C 
ATOM     37  C   UNL     1       1.673   3.898   3.135  0.00  0.00    +0.000 C 
ATOM     38  C   UNL     1       0.611   3.126   2.325  0.00  0.00    +0.004 C 
ENDBRANCH  27  34
ENDBRANCH   7  27
TORSDOF 7
