REMARK  Name = ZINC22568031
REMARK  4 active torsions:
REMARK  status: ('A' for Active; 'I' for Inactive)
REMARK    1  A    between atoms: C_1  and  O_2
REMARK    2  A    between atoms: O_2  and  C_3
REMARK    3  A    between atoms: C_8  and  C_9
REMARK    4  A    between atoms: C_14  and  C_26
REMARK                            x       y       z     vdW  Elec       q    Type
REMARK                         _______ _______ _______ _____ _____    ______ ____
ROOT
ATOM      1  C   UNL     1       4.113   3.205  -3.677  0.00  0.00    +0.035 C 
ATOM      2  C   UNL     1       4.848   3.818  -2.483  0.00  0.00    +0.060 C 
ATOM      3  C   UNL     1       4.059   3.571  -1.219  0.00  0.00    +0.020 C 
ATOM      4  C   UNL     1       2.715   3.485  -1.245  0.00  0.00    +0.039 C 
ATOM      5  C   UNL     1       1.893   3.245   0.001  0.00  0.00    +0.158 C 
ATOM      6  N   UNL     1       2.710   3.465   1.191  0.00  0.00    -0.301 N 
ATOM      7  C   UNL     1       2.337   3.619   2.495  0.00  0.00    +0.069 A 
ATOM      8  C   UNL     1       1.101   3.628   3.130  0.00  0.00    +0.028 A 
ATOM      9  C   UNL     1       1.097   3.814   4.503  0.00  0.00    +0.002 A 
ATOM     10  C   UNL     1       2.267   3.986   5.223  0.00  0.00    +0.002 A 
ATOM     11  C   UNL     1       3.510   3.981   4.616  0.00  0.00    +0.028 A 
ATOM     12  C   UNL     1       3.538   3.795   3.229  0.00  0.00    +0.066 A 
ATOM     13  N   UNL     1       4.557   3.740   2.349  0.00  0.00    -0.327 N 
ATOM     14  C   UNL     1       4.084   3.550   1.148  0.00  0.00    +0.179 A 
ATOM     15  N   UNL     1       4.769   3.444  -0.049  0.00  0.00    -0.290 N 
ATOM     16  C   UNL     1       2.006   3.621  -2.457  0.00  0.00    +0.164 C 
ATOM     17  O   UNL     1       0.793   3.560  -2.447  0.00  0.00    -0.292 OA
ATOM     18  C   UNL     1       2.720   3.838  -3.762  0.00  0.00    +0.088 C 
ATOM     19  H   UNL     1       5.854   3.262  -0.082  0.00  0.00    +0.155 HD
ATOM     20  H   UNL     1       5.594   3.851   2.701  0.00  0.00    +0.169 HD
ENDROOT
BRANCH   5  21
ATOM     21  C   UNL     1       1.385   1.827  -0.001  0.00  0.00    +0.005 A 
ATOM     22  C   UNL     1       2.132   0.711  -0.015  0.00  0.00    +0.089 A 
ATOM     23  N   UNL     1       1.323  -0.392  -0.013  0.00  0.00    -0.360 N 
ATOM     24  H   UNL     1       1.766  -1.399  -0.022  0.00  0.00    +0.165 HD
ATOM     25  C   UNL     1       0.002  -0.004   0.002  0.00  0.00    +0.047 A 
ATOM     26  C   UNL     1      -0.017   1.403   0.010  0.00  0.00    +0.005 A 
ATOM     27  C   UNL     1      -1.236   2.083   0.030  0.00  0.00    +0.010 A 
ATOM     28  C   UNL     1      -2.406   1.377   0.034  0.00  0.00    +0.001 A 
ATOM     29  C   UNL     1      -2.393  -0.011   0.026  0.00  0.00    +0.002 A 
ATOM     30  C   UNL     1      -1.201  -0.702   0.010  0.00  0.00    +0.026 A 
ENDBRANCH   5  21
BRANCH   1  36
ATOM     31  C   UNL     1       5.350   2.439  -5.719  0.00  0.00    +0.124 A 
ATOM     32  C   UNL     1       6.053   2.703  -6.886  0.00  0.00    +0.046 A 
ATOM     33  C   UNL     1       6.283   4.009  -7.272  0.00  0.00    +0.004 A 
ATOM     34  C   UNL     1       5.812   5.053  -6.497  0.00  0.00    +0.001 A 
ATOM     35  C   UNL     1       5.106   4.793  -5.337  0.00  0.00    +0.007 A 
ATOM     36  C   UNL     1       4.878   3.488  -4.944  0.00  0.00    -0.002 A 
BRANCH  31  38
ATOM     37  C   UNL     1       5.638   0.125  -6.184  0.00  0.00    +0.277 C 
ATOM     38  O   UNL     1       5.123   1.154  -5.337  0.00  0.00    -0.495 OA
ENDBRANCH  31  38
ENDBRANCH   1  36
TORSDOF 3
