REMARK  Name = ZINC14746029
REMARK  6 active torsions:
REMARK  status: ('A' for Active; 'I' for Inactive)
REMARK    1  A    between atoms: C_1  and  N_2
REMARK    2  A    between atoms: N_5  and  C_24
REMARK    3  A    between atoms: C_13  and  C_14
REMARK    4  A    between atoms: C_13  and  N_59
REMARK    5  A    between atoms: C_24  and  C_25
REMARK    6  A    between atoms: C_25  and  C_26
REMARK                            x       y       z     vdW  Elec       q    Type
REMARK                         _______ _______ _______ _____ _____    ______ ____
ROOT
ATOM      1  C   UNL     1      -0.013   1.086   0.008  0.00  0.00    +0.134 C 
ATOM      2  N   UNL     1      -0.698   1.558   1.213  0.00  0.00    -0.274 N 
ATOM      3  C   UNL     1      -1.320   0.801   2.137  0.00  0.00    +0.312 C 
ATOM      4  O   UNL     1      -1.391  -0.411   2.082  0.00  0.00    -0.252 OA
ATOM      5  N   UNL     1      -1.852   1.533   3.124  0.00  0.00    -0.224 N 
ATOM      6  C   UNL     1      -1.629   2.851   2.941  0.00  0.00    +0.247 C 
ATOM      7  O   UNL     1      -1.983   3.762   3.657  0.00  0.00    -0.273 OA
ATOM      8  C   UNL     1      -0.839   2.951   1.656  0.00  0.00    +0.112 C 
ATOM      9  C   UNL     1      -1.607   3.767   0.622  0.00  0.00    +0.017 C 
ATOM     10  C   UNL     1      -0.775   3.875  -0.659  0.00  0.00    -0.076 C 
ATOM     11  C   UNL     1       1.294   3.685   0.592  0.00  0.00    -0.076 C 
ATOM     12  C   UNL     1       0.531   3.571   1.915  0.00  0.00    +0.017 C 
ATOM     13  N   UNL     1       0.512   4.528  -0.338  0.00  0.00    +0.383 N 
ATOM     14  H   UNL     1       0.324   5.433   0.110  0.00  0.00    -0.081 HD
ENDROOT
BRANCH  13  15
ATOM     15  C   UNL     1       1.283   4.759  -1.578  0.00  0.00    -0.041 C 
BRANCH  15  16
ATOM     16  C   UNL     1       0.380   5.379  -2.612  0.00  0.00    -0.039 A 
ATOM     17  C   UNL     1      -0.202   4.750  -3.645  0.00  0.00    +0.085 A 
ATOM     18  N   UNL     1      -0.953   5.636  -4.369  0.00  0.00    -0.360 N 
ATOM     19  H   UNL     1      -1.468   5.414  -5.160  0.00  0.00    +0.165 HD
ATOM     20  C   UNL     1      -0.862   6.891  -3.810  0.00  0.00    +0.047 A 
ATOM     21  C   UNL     1      -0.024   6.785  -2.685  0.00  0.00    +0.001 A 
ATOM     22  C   UNL     1       0.251   7.915  -1.913  0.00  0.00    +0.010 A 
ATOM     23  C   UNL     1      -0.296   9.120  -2.254  0.00  0.00    +0.001 A 
ATOM     24  C   UNL     1      -1.124   9.229  -3.363  0.00  0.00    +0.002 A 
ATOM     25  C   UNL     1      -1.409   8.127  -4.139  0.00  0.00    +0.026 A 
ENDBRANCH  15  16
ENDBRANCH  13  15
BRANCH   5  26
ATOM     26  C   UNL     1      -2.584   0.972   4.262  0.00  0.00    +0.122 C 
BRANCH  26  27
ATOM     27  C   UNL     1      -1.607   0.672   5.400  0.00  0.00    +0.054 C 
BRANCH  27  28
ATOM     28  C   UNL     1      -2.360   0.095   6.571  0.00  0.00    -0.046 A 
ATOM     29  C   UNL     1      -2.869   0.933   7.546  0.00  0.00    +0.004 A 
ATOM     30  C   UNL     1      -3.565   0.405   8.617  0.00  0.00    +0.000 A 
ATOM     31  C   UNL     1      -3.743  -0.962   8.719  0.00  0.00    +0.000 A 
ATOM     32  C   UNL     1      -3.229  -1.800   7.747  0.00  0.00    +0.000 A 
ATOM     33  C   UNL     1      -2.538  -1.272   6.673  0.00  0.00    +0.004 A 
ENDBRANCH  27  28
ENDBRANCH  26  27
ENDBRANCH   5  26
TORSDOF 5
