REMARK  Name = ZINC43263911
REMARK  6 active torsions:
REMARK  status: ('A' for Active; 'I' for Inactive)
REMARK    1  A    between atoms: C_1  and  C_2
REMARK    2  A    between atoms: C_2  and  C_4
REMARK    3  A    between atoms: C_2  and  N_20
REMARK    4  A    between atoms: C_4  and  C_6
REMARK    5  A    between atoms: C_4  and  O_12
REMARK    6  A    between atoms: O_12  and  C_13
REMARK                            x       y       z     vdW  Elec       q    Type
REMARK                         _______ _______ _______ _____ _____    ______ ____
ROOT
ATOM      1  C   UNL     1       0.751  -0.518   1.249  0.00  0.00    +0.196 C 
ENDROOT
BRANCH   1   2
ATOM      2  C   UNL     1       0.859  -2.021   1.300  0.00  0.00    +0.029 A 
ATOM      3  C   UNL     1       1.900  -2.813   0.947  0.00  0.00    +0.016 A 
ATOM      4  C   UNL     1       1.775  -4.184   1.080  0.00  0.00    +0.023 A 
ATOM      5  C   UNL     1       0.614  -4.694   1.559  0.00  0.00    +0.055 A 
ATOM      6  S   UNL     1      -0.347  -3.217   1.847  0.00  0.00    -0.083 S 
ATOM      7 BR   UNL     1       0.138  -6.500   1.853  0.00  0.00    -0.043 Br
ENDBRANCH   1   2
BRANCH   1   9
ATOM      8  C   UNL     1      -0.146   1.420  -0.048  0.00  0.00    -0.010 C 
ATOM      9  C   UNL     1      -0.036  -0.105   0.004  0.00  0.00    -0.032 C 
BRANCH   9  10
ATOM     10  N   UNL     1      -1.382  -0.692   0.058  0.00  0.00    +0.382 N 
ATOM     11  H   UNL     1      -1.860  -0.362   0.882  0.00  0.00    -0.089 HD
ATOM     12  H   UNL     1      -1.900  -0.420  -0.764  0.00  0.00    -0.089 HD
ATOM     13  H   UNL     1      -1.309  -1.698   0.091  0.00  0.00    -0.089 HD
ENDBRANCH   9  10
ENDBRANCH   1   9
BRANCH   1  14
ATOM     14  O   UNL     1       0.073  -0.050   2.417  0.00  0.00    -0.485 OA
BRANCH  14  15
ATOM     15  C   UNL     1       0.539   1.094   2.984  0.00  0.00    +0.121 A 
ATOM     16  C   UNL     1       0.009   1.540   4.186  0.00  0.00    +0.047 A 
ATOM     17  C   UNL     1       0.484   2.703   4.760  0.00  0.00    +0.019 A 
ATOM     18  C   UNL     1       1.487   3.424   4.137  0.00  0.00    +0.018 A 
ATOM     19  C   UNL     1       2.017   2.981   2.938  0.00  0.00    +0.019 A 
ATOM     20  C   UNL     1       1.549   1.815   2.363  0.00  0.00    +0.047 A 
ATOM     21 BR   UNL     1       2.135   5.016   4.925  0.00  0.00    -0.050 Br
ENDBRANCH  14  15
ENDBRANCH   1  14
TORSDOF 5
