REMARK  Name = ZINC36545465
REMARK  12 active torsions:
REMARK  status: ('A' for Active; 'I' for Inactive)
REMARK    1  A    between atoms: C_1  and  C_2
REMARK    2  A    between atoms: C_2  and  C_3
REMARK    3  A    between atoms: C_3  and  C_4
REMARK    4  A    between atoms: C_4  and  N_5
REMARK    5  A    between atoms: C_6  and  C_8
REMARK    6  A    between atoms: C_8  and  C_10
REMARK    7  A    between atoms: C_8  and  N_13
REMARK    8  A    between atoms: C_11  and  C_12
REMARK    9  A    between atoms: N_13  and  C_14
REMARK   10  A    between atoms: C_21  and  C_23
REMARK   11  A    between atoms: C_27  and  O_30
REMARK   12  A    between atoms: C_28  and  O_29
REMARK                            x       y       z     vdW  Elec       q    Type
REMARK                         _______ _______ _______ _____ _____    ______ ____
ROOT
ATOM      1  N   UNL     1       2.493  -5.921   3.659  0.00  0.00    -0.250 N 
ATOM      2  C   UNL     1       3.679  -6.435   4.040  0.00  0.00    +0.255 C 
ATOM      3  O   UNL     1       4.576  -5.695   4.397  0.00  0.00    -0.269 OA
ENDROOT
BRANCH   1   4
ATOM      4  C   UNL     1       1.424  -6.774   3.363  0.00  0.00    +0.056 A 
ATOM      5  C   UNL     1       1.272  -7.279   2.078  0.00  0.00    +0.025 A 
ATOM      6  C   UNL     1       0.216  -8.121   1.789  0.00  0.00    +0.002 A 
ATOM      7  C   UNL     1      -0.691  -8.460   2.777  0.00  0.00    +0.002 A 
ATOM      8  C   UNL     1      -0.543  -7.959   4.057  0.00  0.00    +0.022 A 
ATOM      9  C   UNL     1       0.515  -7.121   4.355  0.00  0.00    +0.062 A 
ATOM     10 CL   UNL     1       0.704  -6.497   5.964  0.00  0.00    -0.082 Cl
ENDBRANCH   1   4
BRANCH   2  11
ATOM     11  C   UNL     1       3.889  -7.895   4.025  0.00  0.00    +0.082 A 
ATOM     12  C   UNL     1       3.650  -8.627   2.858  0.00  0.00    +0.017 A 
ATOM     13  C   UNL     1       3.848  -9.990   2.847  0.00  0.00    +0.005 A 
ATOM     14  C   UNL     1       4.283 -10.643   3.989  0.00  0.00    +0.049 A 
ATOM     15  C   UNL     1       4.524  -9.932   5.152  0.00  0.00    +0.159 A 
ATOM     16  C   UNL     1       4.335  -8.554   5.177  0.00  0.00    +0.171 A 
BRANCH  16  17
ATOM     17  O   UNL     1       4.576  -7.852   6.314  0.00  0.00    -0.503 OA
ATOM     18  H   UNL     1       3.808  -7.772   6.897  0.00  0.00    +0.292 HD
ENDBRANCH  16  17
BRANCH  15  19
ATOM     19  O   UNL     1       4.950 -10.581   6.269  0.00  0.00    -0.503 OA
ATOM     20  H   UNL     1       5.912 -10.645   6.343  0.00  0.00    +0.292 HD
ENDBRANCH  15  19
ENDBRANCH   2  11
BRANCH   1  21
ATOM     21  C   UNL     1       2.323  -4.470   3.554  0.00  0.00    +0.190 C 
BRANCH  21  23
ATOM     22  N   UNL     1       1.941  -2.798   1.771  0.00  0.00    -0.314 N 
ATOM     23  C   UNL     1       2.119  -4.090   2.110  0.00  0.00    +0.238 C 
ATOM     24  O   UNL     1       2.116  -4.948   1.253  0.00  0.00    -0.273 OA
ATOM     25  H   UNL     1       1.943  -2.112   2.457  0.00  0.00    +0.149 HD
BRANCH  22  26
ATOM     26  C   UNL     1       1.742  -2.430   0.367  0.00  0.00    +0.104 C 
BRANCH  26  27
ATOM     27  C   UNL     1       1.565  -0.914   0.258  0.00  0.00    +0.018 C 
BRANCH  27  29
ATOM     28  C   UNL     1       1.181   0.987  -1.317  0.00  0.00    +0.004 C 
ATOM     29  C   UNL     1       1.358  -0.529  -1.208  0.00  0.00    -0.002 C 
ENDBRANCH  27  29
ENDBRANCH  26  27
ENDBRANCH  22  26
ENDBRANCH  21  23
BRANCH  21  30
ATOM     30  C   UNL     1       1.123  -4.045   4.360  0.00  0.00    +0.000 C 
ATOM     31  C   UNL     1       1.277  -3.284   5.414  0.00  0.00    -0.032 C 
ATOM     32  C   UNL     1       2.637  -2.727   5.749  0.00  0.00    +0.035 C 
ENDBRANCH  21  30
ENDBRANCH   1  21
TORSDOF 10
