REMARK  Name = ZINC30023200
REMARK  13 active torsions:
REMARK  status: ('A' for Active; 'I' for Inactive)
REMARK    1  A    between atoms: C_1  and  C_2
REMARK    2  A    between atoms: C_5  and  C_37
REMARK    3  A    between atoms: N_8  and  C_10
REMARK    4  A    between atoms: C_13  and  C_19
REMARK    5  A    between atoms: C_15  and  N_16
REMARK    6  A    between atoms: C_19  and  O_21
REMARK    7  A    between atoms: O_21  and  C_22
REMARK    8  A    between atoms: C_22  and  C_24
REMARK    9  A    between atoms: C_22  and  C_25
REMARK   10  A    between atoms: C_25  and  C_27
REMARK   11  A    between atoms: C_30  and  C_32
REMARK   12  A    between atoms: C_32  and  N_33
REMARK   13  A    between atoms: C_34  and  C_36
REMARK                            x       y       z     vdW  Elec       q    Type
REMARK                         _______ _______ _______ _____ _____    ______ ____
ROOT
ATOM      1  C   UNL     1      -4.977   1.173   0.033  0.00  0.00    +0.340 C 
ATOM      2  O   UNL     1      -4.967  -0.043   0.026  0.00  0.00    -0.245 OA
ENDROOT
BRANCH   1   6
ATOM      3  C   UNL     1      -1.326   3.329   0.026  0.00  0.00    +0.060 A 
ATOM      4  C   UNL     1      -2.539   4.011   0.036  0.00  0.00    +0.026 A 
ATOM      5  C   UNL     1      -3.717   3.319   0.038  0.00  0.00    +0.017 A 
ATOM      6  C   UNL     1      -3.707   1.920   0.031  0.00  0.00    +0.061 A 
ATOM      7  C   UNL     1      -2.489   1.233   0.015  0.00  0.00    +0.049 A 
ATOM      8  C   UNL     1      -1.306   1.936   0.019  0.00  0.00    +0.148 A 
BRANCH   3  14
ATOM      9  C   UNL     1       2.484   4.378   1.251  0.00  0.00    +0.009 C 
ATOM     10  C   UNL     1       1.408   5.465   1.289  0.00  0.00    +0.003 C 
ATOM     11  C   UNL     1       1.561   6.379   0.070  0.00  0.00    +0.009 C 
ATOM     12  C   UNL     1       1.348   5.557  -1.204  0.00  0.00    +0.003 C 
ATOM     13  C   UNL     1      -0.035   4.904  -1.159  0.00  0.00    +0.108 C 
ATOM     14  N   UNL     1      -0.131   4.039   0.024  0.00  0.00    -0.328 N 
ATOM     15  C   UNL     1       0.023   4.814   1.262  0.00  0.00    +0.108 C 
ATOM     16  C   UNL     1       1.440   6.475  -2.425  0.00  0.00    +0.009 C 
ENDBRANCH   3  14
BRANCH   8  17
ATOM     17  N   UNL     1      -0.014   1.214   0.009  0.00  0.00    +0.058 N 
ATOM     18  O   UNL     1       0.002  -0.004   0.002  0.00  0.00    -0.126 OA
ATOM     19  O   UNL     1       1.032   1.837   0.002  0.00  0.00    -0.126 OA
ENDBRANCH   8  17
ENDBRANCH   1   6
BRANCH   1  20
ATOM     20  O   UNL     1      -6.150   1.837   0.041  0.00  0.00    -0.450 OA
BRANCH  20  21
ATOM     21  C   UNL     1      -7.361   1.036   0.043  0.00  0.00    +0.245 C 
ATOM     22  C   UNL     1      -7.780   0.747   1.486  0.00  0.00    +0.061 C 
BRANCH  21  23
ATOM     23  C   UNL     1      -8.462   1.788  -0.659  0.00  0.00    +0.210 C 
ATOM     24  O   UNL     1      -8.343   2.978  -0.873  0.00  0.00    -0.288 OA
BRANCH  23  25
ATOM     25  C   UNL     1      -9.632   1.111  -1.067  0.00  0.00    +0.059 A 
ATOM     26  C   UNL     1     -10.755   1.613  -1.716  0.00  0.00    +0.019 A 
ATOM     27  C   UNL     1     -11.758   0.725  -2.002  0.00  0.00    +0.013 A 
ATOM     28  C   UNL     1     -11.617  -0.579  -1.636  0.00  0.00    +0.008 A 
ATOM     29  S   UNL     1     -10.058  -0.611  -0.878  0.00  0.00    -0.089 S 
BRANCH  28  30
ATOM     30  C   UNL     1     -12.582  -1.718  -1.841  0.00  0.00    +0.146 C 
BRANCH  30  31
ATOM     31  N   UNL     1     -12.307  -2.365  -3.126  0.00  0.00    -0.311 N 
ATOM     32  C   UNL     1     -13.051  -3.417  -3.523  0.00  0.00    +0.210 C 
ATOM     33  O   UNL     1     -13.948  -3.827  -2.817  0.00  0.00    -0.276 OA
ATOM     34  C   UNL     1     -12.769  -4.083  -4.845  0.00  0.00    +0.109 C 
ATOM     35  H   UNL     1     -11.494  -1.994  -3.766  0.00  0.00    +0.149 HD
ENDBRANCH  30  31
ENDBRANCH  28  30
ENDBRANCH  23  25
ENDBRANCH  21  23
ENDBRANCH  20  21
ENDBRANCH   1  20
TORSDOF 9
