REMARK  Name = ZINC21479781
REMARK  5 active torsions:
REMARK  status: ('A' for Active; 'I' for Inactive)
REMARK    1  A    between atoms: C_11  and  C_30
REMARK    2  A    between atoms: C_14  and  C_16
REMARK    3  A    between atoms: C_16  and  S_17
REMARK    4  A    between atoms: S_17  and  C_18
REMARK    5  A    between atoms: N_22  and  C_23
REMARK                            x       y       z     vdW  Elec       q    Type
REMARK                         _______ _______ _______ _____ _____    ______ ____
ROOT
ATOM      1  C   UNL     1      -0.013   1.076   0.008  0.00  0.00    +0.002 A 
ATOM      2  C   UNL     1      -1.221   1.748   0.017  0.00  0.00    +0.002 A 
ATOM      3  C   UNL     1      -1.249   3.131   0.020  0.00  0.00    +0.025 A 
ATOM      4  C   UNL     1      -0.062   3.845  -0.002  0.00  0.00    +0.058 A 
ATOM      5  C   UNL     1       1.157   3.166  -0.000  0.00  0.00    +0.055 A 
ATOM      6  C   UNL     1       1.177   1.781   0.000  0.00  0.00    +0.025 A 
ATOM      7  N   UNL     1       2.347   3.902   0.025  0.00  0.00    -0.284 N 
ATOM      8  C   UNL     1       2.540   4.924  -0.837  0.00  0.00    +0.219 C 
ATOM      9  O   UNL     1       3.540   5.605  -0.750  0.00  0.00    -0.275 OA
ATOM     10  C   UNL     1       1.522   5.225  -1.905  0.00  0.00    +0.128 C 
ATOM     11  C   UNL     1       0.303   5.915  -1.291  0.00  0.00    +0.194 C 
ATOM     12  N   UNL     1      -0.072   5.245  -0.044  0.00  0.00    -0.257 N 
ATOM     13  C   UNL     1      -0.421   5.962   1.042  0.00  0.00    +0.231 C 
ATOM     14  O   UNL     1      -0.426   7.174   0.993  0.00  0.00    -0.274 OA
ATOM     15  H   UNL     1       3.134   3.649   0.751  0.00  0.00    +0.155 HD
ENDROOT
BRANCH  11  16
ATOM     16  C   UNL     1      -0.867   5.851  -2.275  0.00  0.00    +0.409 C 
ATOM     17  F   UNL     1      -1.175   4.514  -2.546  0.00  0.00    -0.169 F 
ATOM     18  F   UNL     1      -1.982   6.483  -1.714  0.00  0.00    -0.169 F 
ATOM     19  F   UNL     1      -0.513   6.499  -3.463  0.00  0.00    -0.169 F 
ENDBRANCH  11  16
BRANCH  13  20
ATOM     20  C   UNL     1      -0.805   5.258   2.318  0.00  0.00    +0.173 C 
BRANCH  20  21
ATOM     21  S   UNL     1      -1.217   6.485   3.584  0.00  0.00    -0.078 S 
BRANCH  21  22
ATOM     22  C   UNL     1      -1.616   5.417   4.927  0.00  0.00    +0.174 A 
ATOM     23  N   UNL     1      -1.591   4.104   4.898  0.00  0.00    -0.230 NA
ATOM     24  C   UNL     1      -1.951   3.626   6.101  0.00  0.00    +0.131 A 
ATOM     25  C   UNL     1      -2.219   4.666   6.909  0.00  0.00    +0.113 A 
ATOM     26  N   UNL     1      -2.009   5.812   6.172  0.00  0.00    -0.295 N 
BRANCH  26  27
ATOM     27  C   UNL     1      -2.168   7.132   6.617  0.00  0.00    +0.050 A 
ATOM     28  C   UNL     1      -1.154   8.060   6.419  0.00  0.00    +0.026 A 
ATOM     29  C   UNL     1      -1.315   9.361   6.854  0.00  0.00    +0.003 A 
ATOM     30  C   UNL     1      -2.481   9.738   7.495  0.00  0.00    +0.020 A 
ATOM     31  C   UNL     1      -3.491   8.815   7.698  0.00  0.00    +0.043 A 
ATOM     32  C   UNL     1      -3.337   7.512   7.261  0.00  0.00    +0.046 A 
ATOM     33 CL   UNL     1      -4.953   9.292   8.504  0.00  0.00    -0.083 Cl
ENDBRANCH  26  27
ENDBRANCH  21  22
ENDBRANCH  20  21
ENDBRANCH  13  20
TORSDOF 5
