REMARK  Name = ZINC38740215
REMARK  6 active torsions:
REMARK  status: ('A' for Active; 'I' for Inactive)
REMARK    1  A    between atoms: C_1  and  C_2
REMARK    2  A    between atoms: C_9  and  C_10
REMARK    3  A    between atoms: C_9  and  C_11
REMARK    4  A    between atoms: C_13  and  N_15
REMARK    5  A    between atoms: C_16  and  C_18
REMARK    6  A    between atoms: C_24  and  C_26
REMARK                            x       y       z     vdW  Elec       q    Type
REMARK                         _______ _______ _______ _____ _____    ______ ____
ROOT
ATOM      1  C   UNL     1      -1.853   0.323   3.349  0.00  0.00    +0.087 C 
ATOM      2  C   UNL     1      -2.623  -0.984   3.146  0.00  0.00    +0.013 C 
ATOM      3  C   UNL     1      -3.677  -1.130   4.245  0.00  0.00    +0.001 C 
ATOM      4  C   UNL     1      -2.989  -1.150   5.612  0.00  0.00    +0.001 C 
ATOM      5  C   UNL     1      -2.219   0.156   5.814  0.00  0.00    +0.013 C 
ATOM      6  C   UNL     1      -1.165   0.302   4.715  0.00  0.00    +0.087 C 
ENDROOT
BRANCH   6   7
ATOM      7  C   UNL     1      -0.406   1.589   4.914  0.00  0.00    +0.219 C 
ATOM      8  O   UNL     1      -0.719   2.581   4.290  0.00  0.00    -0.275 OA
ATOM      9  N   UNL     1       0.621   1.638   5.786  0.00  0.00    -0.298 N 
ATOM     10  C   UNL     1       1.085   0.419   6.463  0.00  0.00    +0.126 C 
ATOM     11  C   UNL     1       2.586   0.251   6.194  0.00  0.00    +0.125 C 
ATOM     12  N   UNL     1       3.261   1.524   6.484  0.00  0.00    -0.314 N 
ATOM     13  C   UNL     1       2.796   2.742   5.807  0.00  0.00    +0.125 C 
ATOM     14  C   UNL     1       1.299   2.910   6.072  0.00  0.00    +0.126 C 
ATOM     15  C   UNL     1       4.319   1.574   7.384  0.00  0.00    +0.099 A 
ATOM     16  C   UNL     1       4.664   0.436   8.107  0.00  0.00    +0.042 A 
ATOM     17  C   UNL     1       5.720   0.501   8.998  0.00  0.00    +0.005 A 
ATOM     18  C   UNL     1       6.398   1.705   9.137  0.00  0.00    +0.018 A 
ATOM     19  C   UNL     1       6.002   2.794   8.387  0.00  0.00    +0.084 A 
ATOM     20  N   UNL     1       4.994   2.702   7.540  0.00  0.00    -0.350 N 
ATOM     21  H   UNL     1       4.739   3.482   7.022  0.00  0.00    +0.166 HD
ENDBRANCH   6   7
BRANCH   1  23
ATOM     22  N   UNL     1      -1.191   0.508   0.972  0.00  0.00    -0.312 N 
ATOM     23  C   UNL     1      -0.815   0.467   2.266  0.00  0.00    +0.217 C 
ATOM     24  O   UNL     1       0.360   0.545   2.558  0.00  0.00    -0.275 OA
ATOM     25  H   UNL     1      -2.130   0.445   0.738  0.00  0.00    +0.149 HD
BRANCH  22  35
ATOM     26  C   UNL     1      -0.702   2.802  -1.271  0.00  0.00    +0.009 C 
ATOM     27  C   UNL     1      -0.828   1.276  -1.313  0.00  0.00    +0.010 C 
ATOM     28  C   UNL     1      -0.263   0.721  -2.620  0.00  0.00    -0.000 C 
ATOM     29  C   UNL     1      -0.571  -0.795  -2.707  0.00  0.00    +0.008 C 
ATOM     30  C   UNL     1       0.710  -0.945  -1.860  0.00  0.00    -0.003 C 
ATOM     31  C   UNL     1       1.209   0.308  -2.592  0.00  0.00    -0.029 C 
ATOM     32  C   UNL     1       2.164   1.194  -1.798  0.00  0.00    +0.011 C 
ATOM     33  C   UNL     1       1.781   0.001  -3.990  0.00  0.00    +0.011 C 
ATOM     34  C   UNL     1       0.426  -0.723  -0.375  0.00  0.00    +0.026 C 
ATOM     35  C   UNL     1      -0.174   0.649  -0.088  0.00  0.00    +0.076 C 
ENDBRANCH  22  35
ENDBRANCH   1  23
TORSDOF 3
