REMARK  Name = ZINC13029571
REMARK  9 active torsions:
REMARK  status: ('A' for Active; 'I' for Inactive)
REMARK    1  A    between atoms: C_1  and  C_2
REMARK    2  A    between atoms: C_7  and  C_8
REMARK    3  A    between atoms: C_8  and  C_10
REMARK    4  A    between atoms: C_8  and  N_18
REMARK    5  A    between atoms: N_12  and  C_13
REMARK    6  A    between atoms: N_18  and  C_19
REMARK    7  A    between atoms: C_24  and  C_25
REMARK    8  A    between atoms: C_26  and  C_28
REMARK    9  A    between atoms: C_28  and  N_29
REMARK                            x       y       z     vdW  Elec       q    Type
REMARK                         _______ _______ _______ _____ _____    ______ ____
ROOT
ATOM      1  N   UNL     1      -5.022   3.631  -1.406  0.00  0.00    -0.254 N 
ATOM      2  C   UNL     1      -3.763   4.059  -1.190  0.00  0.00    +0.242 C 
ATOM      3  O   UNL     1      -3.098   4.478  -2.114  0.00  0.00    -0.273 OA
ENDROOT
BRANCH   1   4
ATOM      4  C   UNL     1      -5.789   3.148  -0.341  0.00  0.00    +0.040 A 
ATOM      5  C   UNL     1      -6.649   4.001   0.340  0.00  0.00    +0.024 A 
ATOM      6  C   UNL     1      -7.405   3.521   1.392  0.00  0.00    +0.002 A 
ATOM      7  C   UNL     1      -7.306   2.194   1.767  0.00  0.00    +0.000 A 
ATOM      8  C   UNL     1      -6.452   1.343   1.092  0.00  0.00    +0.005 A 
ATOM      9  C   UNL     1      -5.697   1.815   0.035  0.00  0.00    -0.029 A 
ATOM     10  C   UNL     1      -4.770   0.885  -0.705  0.00  0.00    +0.045 C 
ENDBRANCH   1   4
BRANCH   1  11
ATOM     11  C   UNL     1      -5.588   3.671  -2.757  0.00  0.00    +0.197 C 
BRANCH  11  18
ATOM     12  C   UNL     1      -4.472   2.190  -4.973  0.00  0.00    +0.044 C 
ATOM     13  C   UNL     1      -5.606   1.605  -4.171  0.00  0.00    -0.045 A 
ATOM     14  C   UNL     1      -6.112   0.361  -4.495  0.00  0.00    +0.004 A 
ATOM     15  C   UNL     1      -7.152  -0.176  -3.759  0.00  0.00    +0.000 A 
ATOM     16  C   UNL     1      -7.685   0.532  -2.698  0.00  0.00    +0.000 A 
ATOM     17  C   UNL     1      -7.176   1.775  -2.372  0.00  0.00    +0.006 A 
ATOM     18  C   UNL     1      -6.140   2.314  -3.111  0.00  0.00    -0.015 A 
ENDBRANCH  11  18
BRANCH  11  19
ATOM     19  C   UNL     1      -6.695   4.692  -2.808  0.00  0.00    +0.239 C 
ATOM     20  O   UNL     1      -6.913   5.399  -1.847  0.00  0.00    -0.273 OA
ATOM     21  N   UNL     1      -7.443   4.820  -3.922  0.00  0.00    -0.311 N 
ATOM     22  H   UNL     1      -7.317   4.208  -4.664  0.00  0.00    +0.149 HD
BRANCH  21  23
ATOM     23  C   UNL     1      -8.445   5.885  -4.013  0.00  0.00    +0.073 C 
ATOM     24  C   UNL     1      -9.788   5.397  -3.430  0.00  0.00    +0.022 C 
ATOM     25  C   UNL     1     -10.857   6.040  -4.348  0.00  0.00    +0.002 C 
ATOM     26  C   UNL     1     -10.202   5.951  -5.749  0.00  0.00    +0.002 C 
ATOM     27  C   UNL     1      -8.708   6.236  -5.488  0.00  0.00    +0.022 C 
ENDBRANCH  21  23
ENDBRANCH  11  19
ENDBRANCH   1  11
BRANCH   2  28
ATOM     28  C   UNL     1      -3.181   4.019   0.199  0.00  0.00    +0.242 C 
BRANCH  28  29
ATOM     29  N   UNL     1      -1.810   4.534   0.170  0.00  0.00    -0.235 N 
ATOM     30  C   UNL     1      -0.662   3.806  -0.036  0.00  0.00    +0.090 A 
ATOM     31  C   UNL     1      -0.399   2.461  -0.272  0.00  0.00    +0.029 A 
ATOM     32  C   UNL     1       0.890   2.039  -0.436  0.00  0.00    +0.002 A 
ATOM     33  C   UNL     1       1.942   2.944  -0.379  0.00  0.00    +0.002 A 
ATOM     34  C   UNL     1       1.712   4.269  -0.154  0.00  0.00    +0.032 A 
ATOM     35  C   UNL     1       0.399   4.727   0.023  0.00  0.00    +0.113 A 
ATOM     36  N   UNL     1      -0.129   5.945   0.255  0.00  0.00    -0.129 NA
ATOM     37  N   UNL     1      -1.410   5.867   0.345  0.00  0.00    -0.064 NA
ENDBRANCH  28  29
ENDBRANCH   2  28
TORSDOF 7
