REMARK  Name = ZINC15673766
REMARK  10 active torsions:
REMARK  status: ('A' for Active; 'I' for Inactive)
REMARK    1  A    between atoms: C_1  and  C_2
REMARK    2  A    between atoms: C_2  and  C_3
REMARK    3  A    between atoms: C_2  and  C_4
REMARK    4  A    between atoms: C_2  and  C_5
REMARK    5  A    between atoms: C_8  and  C_11
REMARK    6  A    between atoms: C_13  and  C_16
REMARK    7  A    between atoms: C_16  and  C_17
REMARK    8  A    between atoms: C_22  and  C_24
REMARK    9  A    between atoms: C_24  and  C_25
REMARK   10  A    between atoms: C_30  and  C_33
REMARK                            x       y       z     vdW  Elec       q    Type
REMARK                         _______ _______ _______ _____ _____    ______ ____
ROOT
ATOM      1  C   UNL     1      -2.736   0.545   5.625  0.00  0.00    -0.019 C 
ATOM      2  C   UNL     1      -3.115  -0.640   6.516  0.00  0.00    -0.079 C 
ATOM      3  C   UNL     1      -3.494  -2.049   4.581  0.00  0.00    -0.082 C 
ATOM      4  C   UNL     1      -3.127  -0.906   3.632  0.00  0.00    -0.015 C 
ATOM      5  C   UNL     1      -2.125   0.023   4.322  0.00  0.00    -0.002 C 
ATOM      6  N   UNL     1      -4.088  -1.500   5.815  0.00  0.00    +0.379 N 
ATOM      7  H   UNL     1      -4.917  -0.945   5.573  0.00  0.00    -0.086 HD
ATOM      8  H   UNL     1      -4.361  -2.274   6.432  0.00  0.00    -0.086 HD
ENDROOT
BRANCH   1   9
ATOM      9  C   UNL     1      -3.988   1.366   5.309  0.00  0.00    +0.061 C 
BRANCH   9  12
ATOM     10  C   UNL     1      -5.237   3.383   8.096  0.00  0.00    +0.167 A 
ATOM     11  C   UNL     1      -4.772   3.349   6.810  0.00  0.00    +0.076 A 
ATOM     12  C   UNL     1      -4.519   1.981   6.578  0.00  0.00    +0.084 A 
ATOM     13  N   UNL     1      -4.840   1.352   7.673  0.00  0.00    -0.083 NA
ATOM     14  O   UNL     1      -5.235   2.109   8.529  0.00  0.00    -0.354 OA
BRANCH  10  18
ATOM     15  C   UNL     1      -6.448   6.818  10.282  0.00  0.00    -0.042 A 
ATOM     16  C   UNL     1      -6.505   5.569  10.874  0.00  0.00    +0.005 A 
ATOM     17  C   UNL     1      -6.114   4.449  10.170  0.00  0.00    +0.012 A 
ATOM     18  C   UNL     1      -5.659   4.579   8.857  0.00  0.00    +0.020 A 
ATOM     19  C   UNL     1      -5.598   5.842   8.267  0.00  0.00    +0.012 A 
ATOM     20  C   UNL     1      -5.998   6.953   8.980  0.00  0.00    +0.005 A 
BRANCH  15  22
ATOM     21  C   UNL     1      -6.006   8.178  12.308  0.00  0.00    +0.015 C 
ATOM     22  C   UNL     1      -6.877   8.037  11.057  0.00  0.00    -0.013 C 
ATOM     23  C   UNL     1      -6.717   9.281  10.181  0.00  0.00    +0.015 C 
ATOM     24  C   UNL     1      -8.342   7.889  11.471  0.00  0.00    +0.015 C 
ENDBRANCH  15  22
ENDBRANCH  10  18
ENDBRANCH   9  12
ENDBRANCH   1   9
BRANCH   5  25
ATOM     25  C   UNL     1      -1.801   1.201   3.401  0.00  0.00    +0.099 C 
BRANCH  25  26
ATOM     26  C   UNL     1      -1.091   0.697   2.171  0.00  0.00    +0.216 C 
ATOM     27  O   UNL     1      -0.866  -0.488   2.044  0.00  0.00    -0.276 OA
ATOM     28  N   UNL     1      -0.706   1.562   1.213  0.00  0.00    -0.301 N 
ATOM     29  C   UNL     1      -0.013   1.086   0.008  0.00  0.00    +0.108 C 
ATOM     30  C   UNL     1      -0.759   1.596  -1.228  0.00  0.00    +0.032 C 
ATOM     31  C   UNL     1      -0.898   3.118  -1.144  0.00  0.00    +0.078 C 
ATOM     32  C   UNL     1      -1.711   3.490   0.099  0.00  0.00    +0.032 C 
ATOM     33  C   UNL     1      -0.975   3.001   1.350  0.00  0.00    +0.108 C 
BRANCH  31  34
ATOM     34  C   UNL     1      -1.602   3.627  -2.375  0.00  0.00    +0.214 C 
ATOM     35  O   UNL     1      -1.958   2.850  -3.235  0.00  0.00    -0.276 OA
ATOM     36  N   UNL     1      -1.837   4.946  -2.520  0.00  0.00    -0.329 N 
ATOM     37  H   UNL     1      -1.552   5.568  -1.832  0.00  0.00    +0.145 HD
ATOM     38  H   UNL     1      -2.290   5.274  -3.313  0.00  0.00    +0.145 HD
ENDBRANCH  31  34
ENDBRANCH  25  26
ENDBRANCH   5  25
TORSDOF 7
