REMARK  Name = ZINC39469982
REMARK  9 active torsions:
REMARK  status: ('A' for Active; 'I' for Inactive)
REMARK    1  A    between atoms: C_1  and  C_2
REMARK    2  A    between atoms: C_2  and  O_3
REMARK    3  A    between atoms: O_3  and  C_4
REMARK    4  A    between atoms: P_13  and  S_29
REMARK    5  A    between atoms: C_21  and  C_22
REMARK    6  A    between atoms: C_27  and  O_28
REMARK    7  A    between atoms: S_29  and  C_32
REMARK    8  A    between atoms: C_32  and  C_33
REMARK    9  A    between atoms: C_32  and  C_34
REMARK                            x       y       z     vdW  Elec       q    Type
REMARK                         _______ _______ _______ _____ _____    ______ ____
ROOT
ATOM      1  C   UNL     1       0.802  -1.824   1.306  0.00  0.00    +0.124 C 
ATOM      2  C   UNL     1       0.282  -2.645   0.391  0.00  0.00    +0.023 C 
ATOM      3  C   UNL     1       0.404  -4.133   0.577  0.00  0.00    +0.025 C 
ATOM      4  C   UNL     1      -0.676  -4.863  -0.211  0.00  0.00    +0.031 C 
ATOM      5  C   UNL     1      -2.070  -4.521   0.328  0.00  0.00    +0.100 C 
ATOM      6  C   UNL     1      -3.080  -5.338  -0.487  0.00  0.00    +0.191 C 
ATOM      7  O   UNL     1      -4.416  -5.040  -0.044  0.00  0.00    -0.299 OA
ATOM      8  P   UNL     1      -4.723  -5.128   1.552  0.00  0.00    +0.419 P 
ATOM      9  O   UNL     1      -4.924  -6.537   1.958  0.00  0.00    -0.246 OA
ATOM     10  N   UNL     1      -3.381  -4.507   2.285  0.00  0.00    -0.161 NA
ATOM     11  N   UNL     1      -2.151  -4.842   1.756  0.00  0.00    -0.228 NA
ATOM     12  C   UNL     1      -1.133  -4.117   2.534  0.00  0.00    +0.111 C 
ATOM     13  C   UNL     1       0.253  -4.480   2.061  0.00  0.00    +0.035 C 
ATOM     14  C   UNL     1       1.241  -3.659   2.854  0.00  0.00    -0.010 C 
ATOM     15  C   UNL     1       1.504  -2.395   2.479  0.00  0.00    +0.023 C 
ATOM     16  H   UNL     1      -3.456  -3.930   3.061  0.00  0.00    +0.152 HD
ENDROOT
BRANCH  15  17
ATOM     17  C   UNL     1       2.483  -1.577   3.235  0.00  0.00    +0.027 A 
ATOM     18  C   UNL     1       3.849  -1.805   3.085  0.00  0.00    +0.012 A 
ATOM     19  C   UNL     1       4.756  -1.040   3.790  0.00  0.00    +0.001 A 
ATOM     20  C   UNL     1       4.314  -0.047   4.646  0.00  0.00    +0.004 A 
ATOM     21  C   UNL     1       2.961   0.187   4.802  0.00  0.00    +0.046 A 
ATOM     22  C   UNL     1       2.039  -0.569   4.096  0.00  0.00    +0.125 A 
BRANCH  22  23
ATOM     23  O   UNL     1       0.709  -0.336   4.244  0.00  0.00    -0.506 OA
ATOM     24  H   UNL     1       0.296  -0.849   4.953  0.00  0.00    +0.292 HD
ENDBRANCH  22  23
ENDBRANCH  15  17
BRANCH   8  25
ATOM     25  S   UNL     1      -6.433  -3.973   2.037  0.00  0.00    +0.058 S 
ATOM     26  O   UNL     1      -6.647  -4.208   3.422  0.00  0.00    -0.164 OA
ATOM     27  O   UNL     1      -6.136  -2.668   1.560  0.00  0.00    -0.164 OA
BRANCH  25  28
ATOM     28  C   UNL     1      -7.779  -4.702   1.064  0.00  0.00    +0.136 C 
ATOM     29  C   UNL     1      -7.957  -6.170   1.458  0.00  0.00    +0.032 C 
ATOM     30  C   UNL     1      -9.077  -3.940   1.338  0.00  0.00    +0.032 C 
ENDBRANCH  25  28
ENDBRANCH   8  25
BRANCH   1  31
ATOM     31  O   UNL     1       0.693  -0.477   1.160  0.00  0.00    -0.492 OA
BRANCH  31  33
ATOM     32  C   UNL     1      -0.019   1.526   0.010  0.00  0.00    +0.048 C 
ATOM     33  C   UNL     1       0.002  -0.004   0.002  0.00  0.00    +0.225 C 
ENDBRANCH  31  33
ENDBRANCH   1  31
TORSDOF 6
