REMARK  Name = ZINC09598039
REMARK  10 active torsions:
REMARK  status: ('A' for Active; 'I' for Inactive)
REMARK    1  A    between atoms: C_1  and  C_2
REMARK    2  A    between atoms: C_2  and  O_3
REMARK    3  A    between atoms: O_3  and  C_4
REMARK    4  A    between atoms: C_4  and  C_6
REMARK    5  A    between atoms: C_13  and  C_15
REMARK    6  A    between atoms: C_15  and  C_16
REMARK    7  A    between atoms: C_16  and  C_17
REMARK    8  A    between atoms: N_19  and  C_20
REMARK    9  A    between atoms: C_26  and  C_36
REMARK   10  A    between atoms: C_32  and  C_35
REMARK                            x       y       z     vdW  Elec       q    Type
REMARK                         _______ _______ _______ _____ _____    ______ ____
ROOT
ATOM      1  C   UNL     1      -5.381   5.923  -7.367  0.00  0.00    +0.218 C 
ATOM      2  O   UNL     1      -5.468   5.135  -8.286  0.00  0.00    -0.275 OA
ATOM      3  N   UNL     1      -5.781   7.199  -7.534  0.00  0.00    -0.285 N 
ATOM      4  H   UNL     1      -5.784   7.809  -6.780  0.00  0.00    +0.155 HD
ENDROOT
BRANCH   3   5
ATOM      5  C   UNL     1      -6.192   7.644  -8.796  0.00  0.00    +0.034 A 
ATOM      6  C   UNL     1      -5.586   7.126  -9.945  0.00  0.00    +0.025 A 
ATOM      7  C   UNL     1      -5.970   7.537 -11.184  0.00  0.00    +0.028 A 
ATOM      8  C   UNL     1      -6.980   8.504 -11.322  0.00  0.00    +0.048 A 
ATOM      9  C   UNL     1      -7.594   9.037 -10.162  0.00  0.00    +0.003 A 
ATOM     10  C   UNL     1      -7.186   8.593  -8.895  0.00  0.00    +0.033 A 
ATOM     11  C   UNL     1      -8.607  10.006 -10.305  0.00  0.00    -0.038 A 
ATOM     12  C   UNL     1      -8.957  10.395 -11.563  0.00  0.00    +0.045 A 
ATOM     13  C   UNL     1      -8.312   9.831 -12.672  0.00  0.00    +0.099 A 
ATOM     14  N   UNL     1      -8.678  10.237 -13.948  0.00  0.00    -0.317 N 
ATOM     15  C   UNL     1      -8.556  11.693 -14.092  0.00  0.00    +0.107 C 
ATOM     16  C   UNL     1      -9.104  12.119 -15.456  0.00  0.00    +0.022 C 
ATOM     17  C   UNL     1      -8.317  11.410 -16.561  0.00  0.00    -0.011 C 
ATOM     18  C   UNL     1      -8.420   9.896 -16.360  0.00  0.00    +0.022 C 
ATOM     19  C   UNL     1      -7.892   9.534 -14.970  0.00  0.00    +0.107 C 
ATOM     20  C   UNL     1      -8.899  11.785 -17.926  0.00  0.00    +0.007 C 
ATOM     21  C   UNL     1      -9.287  10.598  -9.097  0.00  0.00    +0.044 C 
ATOM     22  N   UNL     1      -7.332   8.896 -12.595  0.00  0.00    -0.343 N 
ATOM     23  H   UNL     1      -6.883   8.505 -13.432  0.00  0.00    +0.167 HD
ENDBRANCH   3   5
BRANCH   1  24
ATOM     24  C   UNL     1      -4.827   5.474  -6.040  0.00  0.00    +0.105 C 
BRANCH  24  25
ATOM     25  C   UNL     1      -4.452   3.993  -6.118  0.00  0.00    +0.105 C 
BRANCH  25  32
ATOM     26  C   UNL     1      -3.739   0.583  -2.875  0.00  0.00    +0.115 C 
ATOM     27  C   UNL     1      -3.706  -0.478  -3.978  0.00  0.00    +0.018 C 
ATOM     28  C   UNL     1      -4.372   0.075  -5.240  0.00  0.00    +0.020 C 
ATOM     29  C   UNL     1      -3.595   1.303  -5.726  0.00  0.00    +0.108 C 
ATOM     30  N   UNL     1      -3.497   2.268  -4.623  0.00  0.00    -0.301 N 
ATOM     31  C   UNL     1      -2.955   1.816  -3.335  0.00  0.00    +0.122 C 
ATOM     32  C   UNL     1      -3.897   3.545  -4.790  0.00  0.00    +0.216 C 
ATOM     33  O   UNL     1      -3.811   4.332  -3.872  0.00  0.00    -0.276 OA
BRANCH  26  34
ATOM     34  C   UNL     1      -3.111   0.026  -1.623  0.00  0.00    +0.312 C 
ATOM     35  O   UNL     1      -2.685  -1.104  -1.612  0.00  0.00    -0.250 OA
BRANCH  34  36
ATOM     36  O   UNL     1      -3.027   0.786  -0.520  0.00  0.00    -0.465 OA
BRANCH  36  38
ATOM     37  C   UNL     1      -2.404   1.194   1.799  0.00  0.00    +0.048 C 
ATOM     38  C   UNL     1      -2.411   0.184   0.649  0.00  0.00    +0.229 C 
ENDBRANCH  36  38
ENDBRANCH  34  36
ENDBRANCH  26  34
ENDBRANCH  25  32
ENDBRANCH  24  25
ENDBRANCH   1  24
TORSDOF 7
