REMARK  Name = ZINC28286274
REMARK  6 active torsions:
REMARK  status: ('A' for Active; 'I' for Inactive)
REMARK    1  A    between atoms: C_4  and  C_7
REMARK    2  A    between atoms: C_7  and  N_8
REMARK    3  A    between atoms: C_11  and  C_14
REMARK    4  A    between atoms: C_11  and  C_29
REMARK    5  A    between atoms: C_14  and  N_15
REMARK    6  A    between atoms: C_16  and  C_18
REMARK                            x       y       z     vdW  Elec       q    Type
REMARK                         _______ _______ _______ _____ _____    ______ ____
ROOT
ATOM      1  N   UNL     1       1.256   3.364   2.374  0.00  0.00    +0.382 N 
ATOM      2  C   UNL     1       1.437   1.910   2.473  0.00  0.00    -0.077 C 
ATOM      3  C   UNL     1       0.069   1.228   2.532  0.00  0.00    -0.006 C 
ATOM      4  C   UNL     1      -0.725   1.577   1.269  0.00  0.00    +0.008 C 
ATOM      5  C   UNL     1      -0.859   3.098   1.163  0.00  0.00    -0.006 C 
ATOM      6  C   UNL     1       0.538   3.727   1.145  0.00  0.00    -0.077 C 
ATOM      7  H   UNL     1       0.642   3.685   3.228  0.00  0.00    -0.081 HD
ENDROOT
BRANCH   4   8
ATOM      8  C   UNL     1      -2.095   0.955   1.348  0.00  0.00    -0.040 A 
ATOM      9  C   UNL     1      -2.468   0.244   2.474  0.00  0.00    +0.005 A 
ATOM     10  C   UNL     1      -3.727  -0.321   2.548  0.00  0.00    +0.020 A 
ATOM     11  C   UNL     1      -4.610  -0.186   1.492  0.00  0.00    +0.041 A 
ATOM     12  C   UNL     1      -4.234   0.521   0.363  0.00  0.00    +0.020 A 
ATOM     13  C   UNL     1      -2.977   1.091   0.292  0.00  0.00    +0.005 A 
ATOM     14 CL   UNL     1      -6.189  -0.901   1.583  0.00  0.00    -0.084 Cl
ENDBRANCH   4   8
BRANCH   1  15
ATOM     15  C   UNL     1       2.546   4.062   2.455  0.00  0.00    -0.043 C 
BRANCH  15  19
ATOM     16  C   UNL     1       1.873   8.261   2.856  0.00  0.00    +0.000 A 
ATOM     17  C   UNL     1       1.969   7.466   3.982  0.00  0.00    +0.000 A 
ATOM     18  C   UNL     1       2.187   6.107   3.853  0.00  0.00    +0.002 A 
ATOM     19  C   UNL     1       2.309   5.543   2.596  0.00  0.00    -0.064 A 
ATOM     20  C   UNL     1       2.217   6.339   1.470  0.00  0.00    +0.002 A 
ATOM     21  C   UNL     1       1.994   7.697   1.599  0.00  0.00    +0.000 A 
ENDBRANCH  15  19
ENDBRANCH   1  15
BRANCH   4  22
ATOM     22  C   UNL     1       0.010   1.041   0.039  0.00  0.00    +0.115 C 
BRANCH  22  23
ATOM     23  N   UNL     1       0.088  -0.420   0.115  0.00  0.00    -0.311 N 
ATOM     24  C   UNL     1       0.610  -1.121  -0.911  0.00  0.00    +0.257 C 
ATOM     25  O   UNL     1       1.014  -0.543  -1.897  0.00  0.00    -0.272 OA
ATOM     26  H   UNL     1      -0.278  -0.945   1.010  0.00  0.00    +0.149 HD
BRANCH  24  27
ATOM     27  C   UNL     1       0.690  -2.624  -0.833  0.00  0.00    +0.296 C 
ATOM     28  C   UNL     1      -0.725  -3.218  -0.822  0.00  0.00    +0.283 C 
ATOM     29  O   UNL     1      -0.611  -4.644  -0.761  0.00  0.00    -0.484 OA
ATOM     30  C   UNL     1       0.284  -5.223  -1.607  0.00  0.00    +0.162 A 
ATOM     31  C   UNL     1       0.198  -6.584  -1.863  0.00  0.00    +0.049 A 
ATOM     32  C   UNL     1       1.101  -7.187  -2.717  0.00  0.00    +0.004 A 
ATOM     33  C   UNL     1       2.094  -6.436  -3.318  0.00  0.00    +0.004 A 
ATOM     34  C   UNL     1       2.186  -5.080  -3.068  0.00  0.00    +0.049 A 
ATOM     35  C   UNL     1       1.281  -4.468  -2.214  0.00  0.00    +0.163 A 
ATOM     36  O   UNL     1       1.381  -3.131  -1.980  0.00  0.00    -0.473 OA
ENDBRANCH  24  27
ENDBRANCH  22  23
ENDBRANCH   4  22
TORSDOF 6
