REMARK  Name = ZINC32721827
REMARK  5 active torsions:
REMARK  status: ('A' for Active; 'I' for Inactive)
REMARK    1  A    between atoms: C_4  and  N_7
REMARK    2  A    between atoms: C_16  and  S_18
REMARK    3  A    between atoms: S_18  and  C_19
REMARK    4  A    between atoms: C_19  and  C_20
REMARK    5  A    between atoms: C_26  and  C_28
REMARK                            x       y       z     vdW  Elec       q    Type
REMARK                         _______ _______ _______ _____ _____    ______ ____
ROOT
ATOM      1  N   UNL     1       3.585   2.124  -0.022  0.00  0.00    -0.214 N 
ATOM      2  C   UNL     1       3.805   3.310  -0.656  0.00  0.00    +0.171 A 
ATOM      3  C   UNL     1       5.140   3.662  -0.398  0.00  0.00    +0.103 A 
ATOM      4  C   UNL     1       5.693   2.638   0.399  0.00  0.00    +0.150 A 
ATOM      5  N   UNL     1       4.772   1.740   0.614  0.00  0.00    -0.172 NA
ATOM      6  C   UNL     1       5.643   4.870  -0.942  0.00  0.00    +0.263 A 
ATOM      7  O   UNL     1       6.797   5.211  -0.747  0.00  0.00    -0.267 OA
ATOM      8  N   UNL     1       4.810   5.635  -1.683  0.00  0.00    -0.301 N 
ATOM      9  H   UNL     1       5.171   6.578  -2.118  0.00  0.00    +0.171 HD
ATOM     10  C   UNL     1       3.520   5.242  -1.894  0.00  0.00    +0.172 A 
ATOM     11  N   UNL     1       3.041   4.123  -1.396  0.00  0.00    -0.204 NA
ENDROOT
BRANCH   1  15
ATOM     12  C   UNL     1       0.002  -0.004   0.002  0.00  0.00    +0.000 A 
ATOM     13  C   UNL     1      -0.017   1.379   0.010  0.00  0.00    +0.002 A 
ATOM     14  C   UNL     1       1.169   2.087   0.002  0.00  0.00    +0.028 A 
ATOM     15  C   UNL     1       2.381   1.409  -0.013  0.00  0.00    +0.068 A 
ATOM     16  C   UNL     1       2.396   0.020  -0.021  0.00  0.00    +0.028 A 
ATOM     17  C   UNL     1       1.207  -0.682  -0.013  0.00  0.00    +0.002 A 
ENDBRANCH   1  15
BRANCH  10  18
ATOM     18  S   UNL     1       2.465   6.265  -2.866  0.00  0.00    -0.078 S 
BRANCH  18  19
ATOM     19  C   UNL     1       0.942   5.288  -2.811  0.00  0.00    +0.173 C 
BRANCH  19  20
ATOM     20  C   UNL     1      -0.134   5.990  -3.599  0.00  0.00    +0.226 C 
ATOM     21  O   UNL     1       0.105   7.047  -4.144  0.00  0.00    -0.275 OA
ATOM     22  N   UNL     1      -1.362   5.443  -3.698  0.00  0.00    -0.293 N 
ATOM     23  C   UNL     1      -1.785   4.167  -3.094  0.00  0.00    +0.108 C 
ATOM     24  C   UNL     1      -2.976   3.692  -3.959  0.00  0.00    +0.021 C 
ATOM     25  C   UNL     1      -3.680   5.035  -4.289  0.00  0.00    +0.029 C 
ATOM     26  C   UNL     1      -2.499   6.018  -4.431  0.00  0.00    +0.113 C 
BRANCH  26  27
ATOM     27  C   UNL     1      -2.869   7.353  -3.838  0.00  0.00    +0.010 A 
ATOM     28  C   UNL     1      -3.268   8.486  -4.467  0.00  0.00    +0.013 A 
ATOM     29  C   UNL     1      -3.560   9.605  -3.711  0.00  0.00    +0.008 A 
ATOM     30  C   UNL     1      -3.439   9.537  -2.362  0.00  0.00    +0.045 A 
ATOM     31  S   UNL     1      -2.905   7.851  -2.124  0.00  0.00    -0.100 S 
ENDBRANCH  26  27
ENDBRANCH  19  20
ENDBRANCH  18  19
ENDBRANCH  10  18
TORSDOF 5
