REMARK  Name = ZINC15906443
REMARK  3 active torsions:
REMARK  status: ('A' for Active; 'I' for Inactive)
REMARK    1  A    between atoms: C_7  and  C_13
REMARK    2  A    between atoms: N_15  and  N_16
REMARK    3  A    between atoms: C_17  and  C_18
REMARK                            x       y       z     vdW  Elec       q    Type
REMARK                         _______ _______ _______ _____ _____    ______ ____
ROOT
ATOM      1  C   UNL     1       5.931   3.380  -0.035  0.00  0.00    +0.264 C 
ATOM      2  O   UNL     1       5.957   2.170   0.071  0.00  0.00    -0.268 OA
ATOM      3  N   UNL     1       4.751   4.031  -0.043  0.00  0.00    -0.203 N 
ATOM      4  H   UNL     1       4.729   5.131  -0.055  0.00  0.00    +0.178 HD
ENDROOT
BRANCH   1  11
ATOM      5  C   UNL     1       9.764   1.429  -0.431  0.00  0.00    +0.001 A 
ATOM      6  C   UNL     1      10.930   2.175  -0.541  0.00  0.00    +0.002 A 
ATOM      7  C   UNL     1      10.887   3.552  -0.525  0.00  0.00    +0.026 A 
ATOM      8  C   UNL     1       9.664   4.203  -0.398  0.00  0.00    +0.050 A 
ATOM      9  C   UNL     1       8.486   3.443  -0.287  0.00  0.00    +0.011 A 
ATOM     10  C   UNL     1       8.552   2.048  -0.306  0.00  0.00    +0.011 A 
ATOM     11  C   UNL     1       7.197   4.141  -0.154  0.00  0.00    +0.053 A 
ATOM     12  C   UNL     1       7.197   5.507  -0.148  0.00  0.00    +0.083 A 
ATOM     13  C   UNL     1       8.417   6.216  -0.257  0.00  0.00    +0.250 A 
ATOM     14  O   UNL     1       8.399   7.434  -0.244  0.00  0.00    -0.268 OA
ATOM     15  N   UNL     1       9.595   5.580  -0.379  0.00  0.00    -0.322 N 
ATOM     16  H   UNL     1      10.514   6.179  -0.466  0.00  0.00    +0.169 HD
ENDBRANCH   1  11
BRANCH   3  17
ATOM     17  N   UNL     1       3.552   3.307  -0.037  0.00  0.00    -0.187 NA
ATOM     18  C   UNL     1       2.414   3.934  -0.046  0.00  0.00    +0.139 C 
BRANCH  18  19
ATOM     19  C   UNL     1       1.153   3.172  -0.039  0.00  0.00    +0.013 A 
ATOM     20  C   UNL     1      -0.073   3.843  -0.048  0.00  0.00    +0.012 A 
ATOM     21  C   UNL     1      -1.249   3.124  -0.042  0.00  0.00    +0.021 A 
ATOM     22  C   UNL     1      -1.219   1.739  -0.033  0.00  0.00    +0.042 A 
ATOM     23  C   UNL     1      -0.009   1.067  -0.018  0.00  0.00    +0.040 A 
ATOM     24  C   UNL     1       1.177   1.774  -0.025  0.00  0.00    +0.051 A 
ATOM     25 CL   UNL     1       2.693   0.929  -0.013  0.00  0.00    -0.083 Cl
ATOM     26 CL   UNL     1      -2.706   0.843  -0.032  0.00  0.00    -0.083 Cl
ENDBRANCH  18  19
ENDBRANCH   3  17
TORSDOF 3
