REMARK  Name = ZINC02256837
REMARK  6 active torsions:
REMARK  status: ('A' for Active; 'I' for Inactive)
REMARK    1  A    between atoms: C_1  and  O_2
REMARK    2  A    between atoms: O_2  and  C_3
REMARK    3  A    between atoms: C_6  and  C_9
REMARK    4  A    between atoms: C_24  and  S_36
REMARK    5  A    between atoms: C_27  and  C_29
REMARK    6  A    between atoms: S_36  and  C_37
REMARK                            x       y       z     vdW  Elec       q    Type
REMARK                         _______ _______ _______ _____ _____    ______ ____
ROOT
ATOM      1  C   UNL     1       2.587  -2.550   4.310  0.00  0.00    +0.234 C 
ATOM      2  C   UNL     1       1.560  -3.011   5.303  0.00  0.00    +0.025 C 
ATOM      3  C   UNL     1       1.009  -4.239   5.202  0.00  0.00    +0.058 C 
ATOM      4  C   UNL     1       1.467  -5.105   4.086  0.00  0.00    +0.042 A 
ATOM      5  C   UNL     1       0.751  -6.229   3.699  0.00  0.00    +0.033 A 
ATOM      6  C   UNL     1       1.214  -7.006   2.653  0.00  0.00    +0.042 A 
ATOM      7  C   UNL     1       2.383  -6.665   1.995  0.00  0.00    +0.023 A 
ATOM      8  C   UNL     1       3.102  -5.546   2.376  0.00  0.00    +0.048 A 
ATOM      9  C   UNL     1       2.651  -4.760   3.422  0.00  0.00    +0.131 A 
ATOM     10  O   UNL     1       3.337  -3.663   3.820  0.00  0.00    -0.479 OA
ATOM     11 CL   UNL     1       0.325  -8.415   2.163  0.00  0.00    -0.084 Cl
ATOM     12  N   UNL     1       0.075  -4.671   6.083  0.00  0.00    -0.326 N 
ATOM     13  C   UNL     1      -0.370  -3.963   7.100  0.00  0.00    +0.216 C 
ATOM     14  N   UNL     1      -1.278  -4.241   8.053  0.00  0.00    -0.192 NA
ATOM     15  C   UNL     1      -1.403  -3.221   8.878  0.00  0.00    +0.174 C 
ATOM     16  N   UNL     1      -0.560  -2.217   8.479  0.00  0.00    -0.239 N 
ATOM     17  N   UNL     1       0.101  -2.688   7.342  0.00  0.00    -0.209 N 
ATOM     18  C   UNL     1       1.112  -2.121   6.441  0.00  0.00    +0.162 C 
ATOM     19  H   UNL     1      -0.290  -5.561   5.957  0.00  0.00    +0.169 HD
ATOM     20  H   UNL     1      -0.445  -1.352   8.902  0.00  0.00    +0.172 HD
ENDROOT
BRANCH  18  21
ATOM     21  C   UNL     1       2.324  -1.762   7.261  0.00  0.00    +0.014 A 
ATOM     22  C   UNL     1       2.647  -2.506   8.381  0.00  0.00    +0.008 A 
ATOM     23  C   UNL     1       3.759  -2.177   9.133  0.00  0.00    +0.001 A 
ATOM     24  C   UNL     1       4.549  -1.103   8.767  0.00  0.00    +0.003 A 
ATOM     25  C   UNL     1       4.229  -0.358   7.648  0.00  0.00    +0.039 A 
ATOM     26  C   UNL     1       3.119  -0.690   6.891  0.00  0.00    +0.129 A 
ATOM     27  F   UNL     1       2.807   0.034   5.794  0.00  0.00    -0.205 F 
ENDBRANCH  18  21
BRANCH   1  31
ATOM     28  C   UNL     1       0.626  -0.618   1.042  0.00  0.00    +0.120 A 
ATOM     29  C   UNL     1       1.202   0.138   2.051  0.00  0.00    +0.046 A 
ATOM     30  C   UNL     1       1.835  -0.488   3.107  0.00  0.00    +0.011 A 
ATOM     31  C   UNL     1       1.895  -1.869   3.158  0.00  0.00    -0.003 A 
ATOM     32  C   UNL     1       1.322  -2.625   2.152  0.00  0.00    +0.011 A 
ATOM     33  C   UNL     1       0.682  -2.003   1.098  0.00  0.00    +0.046 A 
BRANCH  28  35
ATOM     34  C   UNL     1      -0.017   1.425   0.010  0.00  0.00    +0.277 C 
ATOM     35  O   UNL     1       0.002  -0.004   0.002  0.00  0.00    -0.495 OA
ENDBRANCH  28  35
ENDBRANCH   1  31
BRANCH  15  36
ATOM     36  S   UNL     1      -2.482  -3.157  10.269  0.00  0.00    -0.092 S 
ATOM     37  C   UNL     1      -3.313  -4.770  10.255  0.00  0.00    +0.093 C 
ENDBRANCH  15  36
TORSDOF 4
