REMARK  Name = ZINC35694831
REMARK  13 active torsions:
REMARK  status: ('A' for Active; 'I' for Inactive)
REMARK    1  A    between atoms: C_1  and  C_2
REMARK    2  A    between atoms: C_5  and  C_8
REMARK    3  A    between atoms: N_10  and  C_30
REMARK    4  A    between atoms: N_13  and  C_14
REMARK    5  A    between atoms: C_14  and  C_16
REMARK    6  A    between atoms: C_16  and  N_17
REMARK    7  A    between atoms: N_17  and  C_18
REMARK    8  A    between atoms: C_18  and  C_19
REMARK    9  A    between atoms: C_19  and  N_20
REMARK   10  A    between atoms: N_20  and  C_21
REMARK   11  A    between atoms: N_20  and  C_22
REMARK   12  A    between atoms: C_23  and  C_25
REMARK   13  A    between atoms: C_33  and  C_36
REMARK                            x       y       z     vdW  Elec       q    Type
REMARK                         _______ _______ _______ _____ _____    ______ ____
ROOT
ATOM      1  C   UNL     1      -2.482  -1.803  -3.099  0.00  0.00    +0.066 A 
ATOM      2  C   UNL     1      -2.427  -1.841  -1.756  0.00  0.00    +0.120 A 
ATOM      3  N   UNL     1      -1.875  -3.049  -1.384  0.00  0.00    -0.287 N 
ATOM      4  C   UNL     1      -1.592  -3.752  -2.514  0.00  0.00    +0.205 A 
ATOM      5  N   UNL     1      -1.966  -3.000  -3.581  0.00  0.00    -0.326 N 
ATOM      6  N   UNL     1      -1.048  -4.968  -2.565  0.00  0.00    -0.145 NA
ATOM      7  H   UNL     1      -1.885  -3.252  -4.514  0.00  0.00    +0.169 HD
ENDROOT
BRANCH   1  12
ATOM      8  C   UNL     1      -4.521   2.536  -6.285  0.00  0.00    +0.044 C 
ATOM      9  C   UNL     1      -3.987   1.400  -5.450  0.00  0.00    -0.050 A 
ATOM     10  C   UNL     1      -3.499   0.262  -6.068  0.00  0.00    +0.004 A 
ATOM     11  C   UNL     1      -3.010  -0.782  -5.310  0.00  0.00    +0.010 A 
ATOM     12  C   UNL     1      -3.006  -0.687  -3.918  0.00  0.00    -0.000 A 
ATOM     13  C   UNL     1      -3.498   0.464  -3.301  0.00  0.00    +0.010 A 
ATOM     14  C   UNL     1      -3.981   1.502  -4.071  0.00  0.00    +0.004 A 
ENDBRANCH   1  12
BRANCH   3  15
ATOM     15  C   UNL     1      -1.644  -3.478  -0.071  0.00  0.00    +0.049 A 
ATOM     16  C   UNL     1      -1.073  -4.722   0.165  0.00  0.00    +0.026 A 
ATOM     17  C   UNL     1      -0.847  -5.142   1.461  0.00  0.00    +0.005 A 
ATOM     18  C   UNL     1      -1.189  -4.325   2.524  0.00  0.00    -0.050 A 
ATOM     19  C   UNL     1      -1.758  -3.086   2.292  0.00  0.00    +0.005 A 
ATOM     20  C   UNL     1      -1.982  -2.658   0.998  0.00  0.00    +0.026 A 
ATOM     21  C   UNL     1      -0.941  -4.787   3.937  0.00  0.00    +0.044 C 
ENDBRANCH   3  15
BRANCH   6  22
ATOM     22  C   UNL     1      -0.823  -5.545  -3.739  0.00  0.00    +0.256 C 
ATOM     23  O   UNL     1      -1.112  -4.965  -4.768  0.00  0.00    -0.272 OA
BRANCH  22  24
ATOM     24  C   UNL     1      -0.208  -6.920  -3.797  0.00  0.00    +0.205 C 
BRANCH  24  25
ATOM     25  N   UNL     1      -0.063  -7.332  -5.195  0.00  0.00    -0.294 N 
ATOM     26  C   UNL     1      -1.057  -8.008  -5.805  0.00  0.00    +0.219 C 
ATOM     27  O   UNL     1      -0.902  -8.429  -6.932  0.00  0.00    -0.275 OA
BRANCH  26  28
ATOM     28  C   UNL     1      -2.361  -8.239  -5.087  0.00  0.00    +0.075 C 
ATOM     29  C   UNL     1      -2.366  -9.639  -4.439  0.00  0.00    +0.013 C 
ATOM     30  C   UNL     1      -3.824 -10.133  -4.612  0.00  0.00    +0.001 C 
ATOM     31  C   UNL     1      -4.200  -9.602  -6.018  0.00  0.00    +0.001 C 
ATOM     32  C   UNL     1      -3.527  -8.216  -6.091  0.00  0.00    +0.013 C 
ENDBRANCH  26  28
BRANCH  25  33
ATOM     33  C   UNL     1       1.163  -7.010  -5.931  0.00  0.00    +0.090 C 
BRANCH  33  34
ATOM     34  C   UNL     1       2.174  -8.145  -5.758  0.00  0.00    -0.060 C 
BRANCH  34  35
ATOM     35  N   UNL     1       3.403  -7.822  -6.496  0.00  0.00    +0.377 N 
ATOM     36  C   UNL     1       4.416  -8.852  -6.234  0.00  0.00    -0.097 C 
ATOM     37  C   UNL     1       3.112  -7.775  -7.935  0.00  0.00    -0.097 C 
ATOM     38  H   UNL     1       3.750  -6.924  -6.194  0.00  0.00    -0.083 HD
ENDBRANCH  34  35
ENDBRANCH  33  34
ENDBRANCH  25  33
ENDBRANCH  24  25
ENDBRANCH  22  24
ENDBRANCH   6  22
TORSDOF 9
