REMARK  Name = ZINC49122316
REMARK  5 active torsions:
REMARK  status: ('A' for Active; 'I' for Inactive)
REMARK    1  A    between atoms: C_1  and  C_2
REMARK    2  A    between atoms: C_2  and  C_3
REMARK    3  A    between atoms: C_6  and  N_9
REMARK    4  A    between atoms: C_10  and  C_14
REMARK    5  A    between atoms: C_19  and  N_20
REMARK                            x       y       z     vdW  Elec       q    Type
REMARK                         _______ _______ _______ _____ _____    ______ ____
ROOT
ATOM      1  N   UNL     1      -4.915  -2.723  -1.129  0.00  0.00    -0.222 N 
ATOM      2  C   UNL     1      -5.519  -3.483  -2.076  0.00  0.00    +0.184 A 
ATOM      3  N   UNL     1      -6.763  -3.667  -1.687  0.00  0.00    -0.108 NA
ATOM      4  N   UNL     1      -6.976  -3.076  -0.567  0.00  0.00    -0.023 NA
ATOM      5  N   UNL     1      -5.904  -2.486  -0.160  0.00  0.00    -0.043 NA
ENDROOT
BRANCH   2   6
ATOM      6  C   UNL     1      -4.898  -4.007  -3.312  0.00  0.00    +0.044 A 
ATOM      7  C   UNL     1      -3.662  -4.652  -3.256  0.00  0.00    +0.051 A 
ATOM      8  C   UNL     1      -3.087  -5.139  -4.414  0.00  0.00    +0.124 A 
ATOM      9  C   UNL     1      -3.732  -4.988  -5.631  0.00  0.00    +0.040 A 
ATOM     10  C   UNL     1      -4.956  -4.351  -5.698  0.00  0.00    +0.026 A 
ATOM     11  C   UNL     1      -5.550  -3.862  -4.543  0.00  0.00    +0.036 A 
ATOM     12  F   UNL     1      -1.890  -5.763  -4.359  0.00  0.00    -0.205 F 
BRANCH  11  13
ATOM     13  N   UNL     1      -6.788  -3.224  -4.609  0.00  0.00    -0.357 N 
ATOM     14  H   UNL     1      -7.199  -2.880  -3.801  0.00  0.00    +0.142 HD
ATOM     15  H   UNL     1      -7.238  -3.125  -5.463  0.00  0.00    +0.142 HD
ENDBRANCH  11  13
ENDBRANCH   2   6
BRANCH   1  19
ATOM     16  C   UNL     1      -1.306  -0.896   0.228  0.00  0.00    -0.011 C 
ATOM     17  C   UNL     1      -2.054  -0.244  -0.937  0.00  0.00    +0.005 C 
ATOM     18  C   UNL     1      -3.503  -0.733  -0.950  0.00  0.00    +0.027 C 
ATOM     19  C   UNL     1      -3.527  -2.254  -1.117  0.00  0.00    +0.111 C 
ATOM     20  C   UNL     1      -2.779  -2.906   0.048  0.00  0.00    +0.027 C 
ATOM     21  C   UNL     1      -1.329  -2.417   0.061  0.00  0.00    +0.005 C 
BRANCH  16  23
ATOM     22  C   UNL     1       0.172   1.095   0.532  0.00  0.00    +0.004 C 
ATOM     23  C   UNL     1       0.144  -0.406   0.241  0.00  0.00    -0.000 C 
ENDBRANCH  16  23
ENDBRANCH   1  19
TORSDOF 4
