REMARK  Name = ZINC04536859
REMARK  7 active torsions:
REMARK  status: ('A' for Active; 'I' for Inactive)
REMARK    1  A    between atoms: C_1  and  C_2
REMARK    2  A    between atoms: C_12  and  C_14
REMARK    3  A    between atoms: C_14  and  C_16
REMARK    4  A    between atoms: C_14  and  S_17
REMARK    5  A    between atoms: S_17  and  C_18
REMARK    6  A    between atoms: C_21  and  C_24
REMARK    7  A    between atoms: N_22  and  N_23
REMARK                            x       y       z     vdW  Elec       q    Type
REMARK                         _______ _______ _______ _____ _____    ______ ____
ROOT
ATOM      1  C   UNL     1       7.155  -0.072  -0.116  0.00  0.00    +0.137 C 
ATOM      2  C   UNL     1       6.674  -1.130  -1.111  0.00  0.00    +0.029 C 
ENDROOT
BRANCH   1  13
ATOM      3  C   UNL     1      11.520  -0.898  -0.773  0.00  0.00    +0.029 C 
ATOM      4  C   UNL     1      10.879  -0.793   0.612  0.00  0.00    +0.083 C 
ATOM      5  C   UNL     1      11.268  -2.002   1.477  0.00  0.00    +0.059 C 
ATOM      6  C   UNL     1       9.956  -2.683   1.793  0.00  0.00    -0.024 A 
ATOM      7  C   UNL     1       9.679  -3.820   2.529  0.00  0.00    +0.005 A 
ATOM      8  C   UNL     1       8.373  -4.250   2.676  0.00  0.00    +0.000 A 
ATOM      9  C   UNL     1       7.344  -3.540   2.086  0.00  0.00    +0.002 A 
ATOM     10  C   UNL     1       7.616  -2.406   1.351  0.00  0.00    +0.024 A 
ATOM     11  C   UNL     1       8.932  -1.965   1.197  0.00  0.00    +0.040 A 
ATOM     12  N   UNL     1       9.419  -0.854   0.501  0.00  0.00    -0.267 N 
ATOM     13  C   UNL     1       8.657   0.028  -0.176  0.00  0.00    +0.233 C 
ATOM     14  O   UNL     1       9.181   0.902  -0.834  0.00  0.00    -0.274 OA
ENDBRANCH   1  13
BRANCH   1  15
ATOM     15  S   UNL     1       6.426   1.530  -0.540  0.00  0.00    -0.072 S 
BRANCH  15  16
ATOM     16  C   UNL     1       4.724   1.179  -0.251  0.00  0.00    +0.209 A 
ATOM     17  N   UNL     1       4.224   0.036   0.160  0.00  0.00    -0.121 NA
ATOM     18  N   UNL     1       2.947   0.126   0.272  0.00  0.00    -0.126 NA
ATOM     19  C   UNL     1       2.551   1.333  -0.069  0.00  0.00    +0.188 A 
ATOM     20  N   UNL     1       3.679   2.045  -0.411  0.00  0.00    -0.223 N 
BRANCH  19  21
ATOM     21  C   UNL     1       1.166   1.830  -0.078  0.00  0.00    +0.058 A 
ATOM     22  C   UNL     1      -0.008   1.121  -0.023  0.00  0.00    +0.019 A 
ATOM     23  C   UNL     1      -1.199   1.811  -0.051  0.00  0.00    +0.008 A 
ATOM     24  C   UNL     1      -1.177   3.167  -0.121  0.00  0.00    +0.046 A 
ATOM     25  S   UNL     1       0.574   3.512  -0.164  0.00  0.00    -0.093 S 
ENDBRANCH  19  21
BRANCH  20  26
ATOM     26  N   UNL     1       3.740   3.346  -0.825  0.00  0.00    -0.295 N 
ATOM     27  H   UNL     1       3.851   3.970  -0.040  0.00  0.00    +0.163 HD
ATOM     28  H   UNL     1       4.481   3.477  -1.498  0.00  0.00    +0.163 HD
ENDBRANCH  20  26
ENDBRANCH  15  16
ENDBRANCH   1  15
TORSDOF 5
