REMARK  Name = ZINC03840994
REMARK  8 active torsions:
REMARK  status: ('A' for Active; 'I' for Inactive)
REMARK    1  A    between atoms: C_1  and  C_2
REMARK    2  A    between atoms: C_10  and  C_12
REMARK    3  A    between atoms: N_16  and  C_17
REMARK    4  A    between atoms: C_19  and  C_39
REMARK    5  A    between atoms: C_22  and  O_38
REMARK    6  A    between atoms: C_24  and  C_28
REMARK    7  A    between atoms: C_28  and  C_30
REMARK    8  A    between atoms: C_28  and  C_31
REMARK                            x       y       z     vdW  Elec       q    Type
REMARK                         _______ _______ _______ _____ _____    ______ ____
ROOT
ATOM      1  C   UNL     1       5.599   4.008   0.724  0.00  0.00    +0.014 C 
ATOM      2  C   UNL     1       5.054   2.658   0.254  0.00  0.00    +0.042 C 
ATOM      3  C   UNL     1       3.622   2.524   0.704  0.00  0.00    +0.057 A 
ATOM      4  C   UNL     1       3.162   1.339   1.180  0.00  0.00    +0.015 A 
ATOM      5  S   UNL     1       1.462   1.695   1.535  0.00  0.00    -0.057 S 
ATOM      6  C   UNL     1       1.485   3.360   1.035  0.00  0.00    +0.165 A 
ATOM      7  N   UNL     1       2.735   3.516   0.651  0.00  0.00    -0.229 NA
ATOM      8  N   UNL     1       0.450   4.286   1.036  0.00  0.00    -0.259 N 
ATOM      9  C   UNL     1      -0.775   3.927   1.468  0.00  0.00    +0.266 C 
ATOM     10  O   UNL     1      -0.956   2.817   1.933  0.00  0.00    -0.268 OA
ATOM     11  C   UNL     1       3.921   0.071   1.351  0.00  0.00    +0.051 C 
ATOM     12  C   UNL     1       5.247   0.172   0.572  0.00  0.00    -0.022 C 
ATOM     13  C   UNL     1       5.894   1.527   0.865  0.00  0.00    +0.033 C 
ATOM     14  C   UNL     1       7.290   1.592   0.237  0.00  0.00    +0.123 C 
ATOM     15  C   UNL     1       8.166   0.460   0.771  0.00  0.00    +0.029 C 
ATOM     16  C   UNL     1       7.522  -0.879   0.400  0.00  0.00    +0.007 C 
ATOM     17  C   UNL     1       6.144  -0.973   1.054  0.00  0.00    +0.008 C 
ATOM     18  C   UNL     1       4.984   0.032  -0.929  0.00  0.00    +0.012 C 
ATOM     19  H   UNL     1       0.609   5.191   0.725  0.00  0.00    +0.157 HD
ENDROOT
BRANCH   9  20
ATOM     20  C   UNL     1      -1.891   4.875   1.377  0.00  0.00    +0.105 A 
ATOM     21  C   UNL     1      -1.855   6.123   0.793  0.00  0.00    +0.032 A 
ATOM     22  C   UNL     1      -3.130   6.679   0.932  0.00  0.00    +0.020 A 
ATOM     23  C   UNL     1      -3.906   5.780   1.584  0.00  0.00    +0.086 A 
ATOM     24  N   UNL     1      -3.167   4.677   1.855  0.00  0.00    -0.346 N 
ATOM     25  C   UNL     1      -3.645   3.476   2.544  0.00  0.00    +0.149 C 
ENDBRANCH   9  20
BRANCH  15  26
ATOM     26  C   UNL     1       8.277   0.572   2.293  0.00  0.00    +0.078 C 
ATOM     27  C   UNL     1       9.027   1.855   2.657  0.00  0.00    +0.017 C 
BRANCH  26  28
ATOM     28  C   UNL     1       9.029  -0.618   2.830  0.00  0.00    +0.219 C 
ATOM     29  O   UNL     1       9.910  -1.128   2.171  0.00  0.00    -0.275 OA
ATOM     30  N   UNL     1       8.722  -1.117   4.045  0.00  0.00    -0.301 N 
ATOM     31  C   UNL     1       9.283  -2.341   4.635  0.00  0.00    +0.108 C 
ATOM     32  C   UNL     1       8.623  -2.527   6.018  0.00  0.00    +0.020 C 
ATOM     33  C   UNL     1       7.308  -1.714   5.885  0.00  0.00    +0.020 C 
ATOM     34  C   UNL     1       7.763  -0.529   4.997  0.00  0.00    +0.108 C 
ENDBRANCH  26  28
ENDBRANCH  15  26
BRANCH  14  35
ATOM     35  O   UNL     1       7.894   2.847   0.555  0.00  0.00    -0.391 OA
ATOM     36  H   UNL     1       8.783   2.960   0.191  0.00  0.00    +0.210 HD
ENDBRANCH  14  35
TORSDOF 4
