REMARK  Name = ZINC36206250
REMARK  13 active torsions:
REMARK  status: ('A' for Active; 'I' for Inactive)
REMARK    1  A    between atoms: C_1  and  C_2
REMARK    2  A    between atoms: C_2  and  C_3
REMARK    3  A    between atoms: C_2  and  O_4
REMARK    4  A    between atoms: O_4  and  C_5
REMARK    5  A    between atoms: C_5  and  C_6
REMARK    6  A    between atoms: C_6  and  C_8
REMARK    7  A    between atoms: C_6  and  O_36
REMARK    8  A    between atoms: C_8  and  N_9
REMARK    9  A    between atoms: N_9  and  C_10
REMARK   10  A    between atoms: N_9  and  C_17
REMARK   11  A    between atoms: C_10  and  C_11
REMARK   12  A    between atoms: C_17  and  C_18
REMARK   13  A    between atoms: C_24  and  C_29
REMARK                            x       y       z     vdW  Elec       q    Type
REMARK                         _______ _______ _______ _____ _____    ______ ____
ROOT
ATOM      1  C   UNL     1      -5.833  -2.214  -3.373  0.00  0.00    -0.003 C 
ENDROOT
BRANCH   1   2
ATOM      2  C   UNL     1      -5.293  -3.547  -3.824  0.00  0.00    +0.094 A 
ATOM      3  N   UNL     1      -5.756  -4.100  -4.974  0.00  0.00    -0.312 N 
ATOM      4  H   UNL     1      -6.429  -3.630  -5.491  0.00  0.00    +0.170 HD
ATOM      5  C   UNL     1      -5.300  -5.288  -5.412  0.00  0.00    +0.260 A 
ATOM      6  O   UNL     1      -5.725  -5.771  -6.447  0.00  0.00    -0.267 OA
ATOM      7  C   UNL     1      -4.307  -5.976  -4.643  0.00  0.00    +0.080 A 
ATOM      8  C   UNL     1      -3.663  -7.258  -4.904  0.00  0.00    +0.006 A 
ATOM      9  C   UNL     1      -2.740  -7.714  -4.023  0.00  0.00    +0.056 A 
ATOM     10  S   UNL     1      -2.684  -6.434  -2.784  0.00  0.00    -0.076 S 
ATOM     11  C   UNL     1      -3.889  -5.327  -3.470  0.00  0.00    +0.116 A 
ATOM     12  N   UNL     1      -4.384  -4.148  -3.104  0.00  0.00    -0.229 NA
BRANCH   8  13
ATOM     13  C   UNL     1      -4.012  -8.047  -6.109  0.00  0.00    +0.019 A 
ATOM     14  C   UNL     1      -4.636  -9.287  -5.977  0.00  0.00    +0.011 A 
ATOM     15  C   UNL     1      -4.960 -10.017  -7.102  0.00  0.00    +0.001 A 
ATOM     16  C   UNL     1      -4.666  -9.523  -8.361  0.00  0.00    +0.003 A 
ATOM     17  C   UNL     1      -4.046  -8.294  -8.500  0.00  0.00    +0.039 A 
ATOM     18  C   UNL     1      -3.723  -7.550  -7.381  0.00  0.00    +0.131 A 
ATOM     19  F   UNL     1      -3.122  -6.347  -7.517  0.00  0.00    -0.205 F 
ENDBRANCH   8  13
ENDBRANCH   1   2
BRANCH   1  20
ATOM     20  N   UNL     1      -5.081  -1.753  -2.199  0.00  0.00    +0.389 N 
ATOM     21  H   UNL     1      -5.083  -2.474  -1.494  0.00  0.00    -0.081 HD
BRANCH  20  22
ATOM     22  C   UNL     1      -3.697  -1.454  -2.590  0.00  0.00    -0.044 C 
BRANCH  22  23
ATOM     23  C   UNL     1      -2.882  -1.094  -1.346  0.00  0.00    +0.124 C 
BRANCH  23  24
ATOM     24  O   UNL     1      -2.795  -2.233  -0.487  0.00  0.00    -0.391 OA
ATOM     25  H   UNL     1      -2.370  -3.000  -0.894  0.00  0.00    +0.210 HD
ENDBRANCH  23  24
BRANCH  23  26
ATOM     26  C   UNL     1      -1.475  -0.662  -1.765  0.00  0.00    +0.189 C 
BRANCH  26  27
ATOM     27  O   UNL     1      -0.752  -0.215  -0.617  0.00  0.00    -0.375 OA
BRANCH  27  29
ATOM     28  C   UNL     1       0.580   1.709  -1.222  0.00  0.00    +0.037 C 
ATOM     29  C   UNL     1       0.582   0.213  -0.900  0.00  0.00    +0.112 C 
ATOM     30  C   UNL     1       1.470  -0.045   0.319  0.00  0.00    +0.037 C 
ENDBRANCH  27  29
ENDBRANCH  26  27
ENDBRANCH  23  26
ENDBRANCH  22  23
ENDBRANCH  20  22
BRANCH  20  31
ATOM     31  C   UNL     1      -5.710  -0.540  -1.659  0.00  0.00    -0.042 C 
BRANCH  31  32
ATOM     32  C   UNL     1      -7.087  -0.874  -1.146  0.00  0.00    -0.064 A 
ATOM     33  C   UNL     1      -8.192  -0.678  -1.954  0.00  0.00    +0.002 A 
ATOM     34  C   UNL     1      -9.455  -0.984  -1.483  0.00  0.00    +0.000 A 
ATOM     35  C   UNL     1      -9.613  -1.488  -0.205  0.00  0.00    +0.000 A 
ATOM     36  C   UNL     1      -8.508  -1.685   0.602  0.00  0.00    +0.000 A 
ATOM     37  C   UNL     1      -7.245  -1.382   0.129  0.00  0.00    +0.002 A 
ENDBRANCH  31  32
ENDBRANCH  20  31
ENDBRANCH   1  20
TORSDOF 11
