REMARK  Name = ZINC54617788
REMARK  10 active torsions:
REMARK  status: ('A' for Active; 'I' for Inactive)
REMARK    1  A    between atoms: C_1  and  C_2
REMARK    2  A    between atoms: C_2  and  C_3
REMARK    3  A    between atoms: C_3  and  S_4
REMARK    4  A    between atoms: S_4  and  C_5
REMARK    5  A    between atoms: C_10  and  C_27
REMARK    6  A    between atoms: C_12  and  C_16
REMARK    7  A    between atoms: C_13  and  C_15
REMARK    8  A    between atoms: N_18  and  C_19
REMARK    9  A    between atoms: C_23  and  C_26
REMARK   10  A    between atoms: C_24  and  C_25
REMARK                            x       y       z     vdW  Elec       q    Type
REMARK                         _______ _______ _______ _____ _____    ______ ____
ROOT
ATOM      1  C   UNL     1      -2.980  -3.566  -1.708  0.00  0.00    +0.210 A 
ATOM      2  N   UNL     1      -3.795  -2.727  -1.052  0.00  0.00    -0.187 NA
ATOM      3  C   UNL     1      -4.897  -3.350  -0.734  0.00  0.00    +0.219 A 
ATOM      4  N   UNL     1      -4.810  -4.622  -1.194  0.00  0.00    -0.220 N 
ATOM      5  N   UNL     1      -3.569  -4.737  -1.819  0.00  0.00    -0.141 NA
ATOM      6  C   UNL     1      -5.869  -5.615  -1.030  0.00  0.00    +0.179 C 
ATOM      7  C   UNL     1      -6.887  -5.105  -0.045  0.00  0.00    +0.060 C 
ATOM      8  C   UNL     1      -6.922  -3.833   0.378  0.00  0.00    +0.018 C 
ATOM      9  N   UNL     1      -6.016  -2.894  -0.050  0.00  0.00    -0.287 N 
ATOM     10  C   UNL     1      -7.991  -3.421   1.356  0.00  0.00    +0.061 C 
ATOM     11  H   UNL     1      -6.153  -1.949   0.118  0.00  0.00    +0.155 HD
ENDROOT
BRANCH   6  12
ATOM     12  C   UNL     1      -6.535  -5.863  -2.359  0.00  0.00    +0.007 A 
ATOM     13  C   UNL     1      -7.216  -4.967  -3.090  0.00  0.00    +0.089 A 
ATOM     14  N   UNL     1      -7.678  -5.554  -4.237  0.00  0.00    -0.360 N 
ATOM     15  H   UNL     1      -8.197  -5.106  -4.922  0.00  0.00    +0.165 HD
ATOM     16  C   UNL     1      -7.295  -6.876  -4.272  0.00  0.00    +0.047 A 
ATOM     17  C   UNL     1      -6.557  -7.126  -3.101  0.00  0.00    +0.005 A 
ATOM     18  C   UNL     1      -6.030  -8.398  -2.867  0.00  0.00    +0.010 A 
ATOM     19  C   UNL     1      -6.232  -9.394  -3.781  0.00  0.00    +0.001 A 
ATOM     20  C   UNL     1      -6.955  -9.152  -4.940  0.00  0.00    +0.002 A 
ATOM     21  C   UNL     1      -7.492  -7.906  -5.186  0.00  0.00    +0.026 A 
ENDBRANCH   6  12
BRANCH   7  22
ATOM     22  C   UNL     1      -7.852  -6.010   0.456  0.00  0.00    +0.248 C 
ATOM     23  O   UNL     1      -7.546  -6.807   1.325  0.00  0.00    -0.270 OA
ATOM     24  N   UNL     1      -9.110  -5.990  -0.027  0.00  0.00    -0.281 N 
ATOM     25  H   UNL     1      -9.374  -5.307  -0.663  0.00  0.00    +0.155 HD
BRANCH  24  26
ATOM     26  C   UNL     1     -10.033  -6.955   0.387  0.00  0.00    +0.037 A 
ATOM     27  C   UNL     1     -10.109  -7.316   1.727  0.00  0.00    +0.023 A 
ATOM     28  C   UNL     1     -11.022  -8.268   2.133  0.00  0.00    +0.002 A 
ATOM     29  C   UNL     1     -11.861  -8.863   1.208  0.00  0.00    +0.004 A 
ATOM     30  C   UNL     1     -11.788  -8.506  -0.126  0.00  0.00    -0.046 A 
ATOM     31  C   UNL     1     -10.881  -7.550  -0.538  0.00  0.00    -0.026 A 
ATOM     32  C   UNL     1     -10.807  -7.156  -1.991  0.00  0.00    +0.046 C 
ATOM     33  C   UNL     1     -12.704  -9.157  -1.130  0.00  0.00    +0.044 C 
ENDBRANCH  24  26
ENDBRANCH   7  22
BRANCH   1  34
ATOM     34  S   UNL     1      -1.382  -3.162  -2.330  0.00  0.00    -0.084 S 
BRANCH  34  35
ATOM     35  C   UNL     1      -1.155  -1.424  -1.860  0.00  0.00    +0.077 C 
BRANCH  35  37
ATOM     36  C   UNL     1       0.405   0.526  -1.950  0.00  0.00    +0.004 C 
ATOM     37  C   UNL     1       0.213  -0.940  -2.346  0.00  0.00    +0.008 C 
ENDBRANCH  35  37
ENDBRANCH  34  35
ENDBRANCH   1  34
TORSDOF 6
