REMARK  Name = ZINC39607263
REMARK  11 active torsions:
REMARK  status: ('A' for Active; 'I' for Inactive)
REMARK    1  A    between atoms: C_1  and  C_2
REMARK    2  A    between atoms: C_5  and  C_9
REMARK    3  A    between atoms: C_6  and  C_8
REMARK    4  A    between atoms: C_9  and  N_10
REMARK    5  A    between atoms: C_11  and  C_13
REMARK    6  A    between atoms: C_24  and  C_26
REMARK    7  A    between atoms: C_26  and  C_28
REMARK    8  A    between atoms: C_26  and  O_31
REMARK    9  A    between atoms: C_28  and  C_29
REMARK   10  A    between atoms: C_28  and  C_30
REMARK   11  A    between atoms: O_31  and  C_32
REMARK                            x       y       z     vdW  Elec       q    Type
REMARK                         _______ _______ _______ _____ _____    ______ ____
ROOT
ATOM      1  C   UNL     1      -2.482  -6.633   0.440  0.00  0.00    +0.100 C 
ATOM      2  C   UNL     1      -3.532  -6.062  -0.539  0.00  0.00    +0.121 C 
ATOM      3  N   UNL     1      -3.718  -7.128  -1.551  0.00  0.00    -0.297 N 
ATOM      4  C   UNL     1      -3.686  -8.388  -0.770  0.00  0.00    +0.115 C 
ATOM      5  C   UNL     1      -2.588  -8.160   0.288  0.00  0.00    -0.004 C 
ATOM      6  C   UNL     1      -2.993  -8.796   1.614  0.00  0.00    -0.010 C 
ATOM      7  C   UNL     1      -3.036 -10.318   1.453  0.00  0.00    -0.082 C 
ATOM      8  N   UNL     1      -1.715 -10.805   1.037  0.00  0.00    +0.379 N 
ATOM      9  C   UNL     1      -1.375 -10.261  -0.283  0.00  0.00    -0.082 C 
ATOM     10  C   UNL     1      -1.262  -8.737  -0.196  0.00  0.00    -0.010 C 
ATOM     11  C   UNL     1      -3.881  -6.985  -2.882  0.00  0.00    +0.257 C 
ATOM     12  O   UNL     1      -4.107  -7.956  -3.573  0.00  0.00    -0.272 OA
ATOM     13  H   UNL     1      -1.023 -10.512   1.709  0.00  0.00    -0.086 HD
ATOM     14  H   UNL     1      -1.730 -11.813   0.990  0.00  0.00    -0.086 HD
ENDROOT
BRANCH   1  16
ATOM     15  N   UNL     1      -0.161  -5.995   1.012  0.00  0.00    -0.311 N 
ATOM     16  C   UNL     1      -1.101  -6.163   0.061  0.00  0.00    +0.218 C 
ATOM     17  O   UNL     1      -0.835  -5.937  -1.101  0.00  0.00    -0.275 OA
ATOM     18  H   UNL     1      -0.373  -6.177   1.941  0.00  0.00    +0.149 HD
BRANCH  15  19
ATOM     19  C   UNL     1       1.181  -5.539   0.643  0.00  0.00    +0.139 C 
BRANCH  19  24
ATOM     20  C   UNL     1       4.448  -5.136   5.393  0.00  0.00    +0.044 C 
ATOM     21  C   UNL     1       3.596  -5.241   4.154  0.00  0.00    -0.050 A 
ATOM     22  C   UNL     1       3.025  -4.106   3.610  0.00  0.00    +0.004 A 
ATOM     23  C   UNL     1       2.243  -4.202   2.474  0.00  0.00    +0.006 A 
ATOM     24  C   UNL     1       2.034  -5.434   1.881  0.00  0.00    -0.027 A 
ATOM     25  C   UNL     1       2.606  -6.568   2.425  0.00  0.00    -0.046 A 
ATOM     26  C   UNL     1       3.391  -6.471   3.559  0.00  0.00    +0.007 A 
ATOM     27  C   UNL     1       2.378  -7.911   1.779  0.00  0.00    +0.044 C 
ENDBRANCH  19  24
ENDBRANCH  15  19
ENDBRANCH   1  16
BRANCH  11  28
ATOM     28  C   UNL     1      -3.782  -5.619  -3.510  0.00  0.00    +0.261 C 
BRANCH  28  29
ATOM     29  C   UNL     1      -5.155  -4.943  -3.479  0.00  0.00    +0.033 C 
ATOM     30  C   UNL     1      -5.675  -4.912  -2.040  0.00  0.00    +0.011 C 
ATOM     31  C   UNL     1      -5.031  -3.513  -4.007  0.00  0.00    +0.011 C 
ENDBRANCH  28  29
BRANCH  28  32
ATOM     32  O   UNL     1      -3.346  -5.748  -4.864  0.00  0.00    -0.479 OA
BRANCH  32  33
ATOM     33  C   UNL     1      -2.555  -4.757  -5.355  0.00  0.00    +0.122 A 
ATOM     34  C   UNL     1      -2.130  -3.732  -4.523  0.00  0.00    +0.045 A 
ATOM     35  C   UNL     1      -1.326  -2.726  -5.024  0.00  0.00    +0.004 A 
ATOM     36  C   UNL     1      -0.946  -2.741  -6.353  0.00  0.00    +0.000 A 
ATOM     37  C   UNL     1      -1.369  -3.761  -7.185  0.00  0.00    +0.004 A 
ATOM     38  C   UNL     1      -2.168  -4.773  -6.687  0.00  0.00    +0.045 A 
ENDBRANCH  32  33
ENDBRANCH  28  32
ENDBRANCH  11  28
TORSDOF 7
