REMARK  Name = ZINC16010087
REMARK  4 active torsions:
REMARK  status: ('A' for Active; 'I' for Inactive)
REMARK    1  A    between atoms: C_6  and  N_11
REMARK    2  A    between atoms: C_16  and  C_34
REMARK    3  A    between atoms: C_34  and  C_35
REMARK    4  A    between atoms: C_38  and  O_41
REMARK                            x       y       z     vdW  Elec       q    Type
REMARK                         _______ _______ _______ _____ _____    ______ ____
ROOT
ATOM      1  N   UNL     1       4.915  -2.655  -0.058  0.00  0.00    -0.210 N 
ATOM      2  C   UNL     1       6.088  -2.020  -0.158  0.00  0.00    +0.232 C 
ATOM      3  O   UNL     1       6.229  -0.819  -0.245  0.00  0.00    -0.274 OA
ATOM      4  C   UNL     1       7.211  -3.032  -0.145  0.00  0.00    +0.108 C 
ATOM      5  C   UNL     1       7.881  -3.064  -1.536  0.00  0.00    +0.072 C 
ATOM      6  N   UNL     1       8.021  -4.509  -1.858  0.00  0.00    -0.295 NA
ATOM      7  C   UNL     1       6.776  -5.114  -1.347  0.00  0.00    +0.136 C 
ATOM      8  C   UNL     1       6.466  -4.390  -0.014  0.00  0.00    +0.123 C 
ATOM      9  C   UNL     1       5.010  -3.986   0.033  0.00  0.00    +0.233 C 
ATOM     10  O   UNL     1       4.074  -4.750   0.134  0.00  0.00    -0.274 OA
ATOM     11  C   UNL     1       5.653  -4.976  -2.336  0.00  0.00    +0.006 A 
ATOM     12  C   UNL     1       5.037  -3.894  -2.925  0.00  0.00    +0.046 A 
ATOM     13  C   UNL     1       4.002  -4.091  -3.824  0.00  0.00    +0.124 A 
ATOM     14  C   UNL     1       3.589  -5.378  -4.128  0.00  0.00    +0.040 A 
ATOM     15  C   UNL     1       4.204  -6.463  -3.538  0.00  0.00    +0.026 A 
ATOM     16  C   UNL     1       5.245  -6.273  -2.633  0.00  0.00    +0.039 A 
ATOM     17  N   UNL     1       6.012  -7.196  -1.916  0.00  0.00    -0.283 N 
ATOM     18  C   UNL     1       6.933  -6.596  -1.138  0.00  0.00    +0.243 C 
ATOM     19  O   UNL     1       7.733  -7.143  -0.409  0.00  0.00    -0.273 OA
ATOM     20  F   UNL     1       3.397  -3.031  -4.404  0.00  0.00    -0.205 F 
ATOM     21  H   UNL     1       8.110  -4.651  -2.853  0.00  0.00    +0.124 HD
ATOM     22  H   UNL     1       5.894  -8.157  -1.973  0.00  0.00    +0.155 HD
ENDROOT
BRANCH   1  28
ATOM     23  C   UNL     1      -0.727   0.039   1.095  0.00  0.00    +0.001 A 
ATOM     24  C   UNL     1      -0.298  -0.629   2.241  0.00  0.00    +0.001 A 
ATOM     25  C   UNL     1       0.889  -1.294   2.261  0.00  0.00    +0.008 A 
ATOM     26  C   UNL     1       1.697  -1.310   1.110  0.00  0.00    -0.016 A 
ATOM     27  C   UNL     1       2.928  -1.986   1.094  0.00  0.00    +0.032 A 
ATOM     28  C   UNL     1       3.687  -1.980  -0.043  0.00  0.00    +0.044 A 
ATOM     29  C   UNL     1       3.253  -1.309  -1.191  0.00  0.00    +0.024 A 
ATOM     30  C   UNL     1       2.067  -0.645  -1.206  0.00  0.00    +0.010 A 
ATOM     31  C   UNL     1       1.260  -0.631  -0.055  0.00  0.00    -0.018 A 
ATOM     32  C   UNL     1       0.029   0.045  -0.037  0.00  0.00    +0.008 A 
ENDBRANCH   1  28
BRANCH   5  33
ATOM     33  C   UNL     1       9.255  -2.393  -1.480  0.00  0.00    +0.054 C 
BRANCH  33  34
ATOM     34  C   UNL     1       9.837  -2.325  -2.869  0.00  0.00    -0.046 A 
ATOM     35  C   UNL     1      10.614  -3.366  -3.342  0.00  0.00    +0.007 A 
ATOM     36  C   UNL     1      11.150  -3.306  -4.615  0.00  0.00    +0.045 A 
ATOM     37  C   UNL     1      10.906  -2.201  -5.417  0.00  0.00    +0.117 A 
ATOM     38  C   UNL     1      10.125  -1.158  -4.939  0.00  0.00    +0.045 A 
ATOM     39  C   UNL     1       9.588  -1.225  -3.668  0.00  0.00    +0.007 A 
BRANCH  37  40
ATOM     40  O   UNL     1      11.432  -2.139  -6.669  0.00  0.00    -0.507 OA
ATOM     41  H   UNL     1      10.862  -2.515  -7.354  0.00  0.00    +0.292 HD
ENDBRANCH  37  40
ENDBRANCH  33  34
ENDBRANCH   5  33
TORSDOF 4
