REMARK  Name = ZINC66599233
REMARK  7 active torsions:
REMARK  status: ('A' for Active; 'I' for Inactive)
REMARK    1  A    between atoms: C_1  and  C_2
REMARK    2  A    between atoms: C_3  and  C_7
REMARK    3  A    between atoms: C_7  and  N_8
REMARK    4  A    between atoms: N_8  and  C_9
REMARK    5  A    between atoms: N_12  and  C_13
REMARK    6  A    between atoms: N_16  and  C_19
REMARK    7  A    between atoms: C_22  and  C_25
REMARK                            x       y       z     vdW  Elec       q    Type
REMARK                         _______ _______ _______ _____ _____    ______ ____
ROOT
ATOM      1  C   UNL     1       3.928   2.603  -3.135  0.00  0.00    +0.071 C 
ATOM      2  C   UNL     1       3.576   3.532  -4.300  0.00  0.00    +0.004 C 
ATOM      3  C   UNL     1       4.345   4.846  -4.147  0.00  0.00    -0.077 C 
ATOM      4  N   UNL     1       5.788   4.577  -4.152  0.00  0.00    +0.382 N 
ATOM      5  C   UNL     1       6.144   3.744  -2.997  0.00  0.00    -0.077 C 
ATOM      6  C   UNL     1       5.444   2.388  -3.106  0.00  0.00    +0.004 C 
ATOM      7  H   UNL     1       6.035   4.093  -5.003  0.00  0.00    -0.081 HD
ENDROOT
BRANCH   4   8
ATOM      8  C   UNL     1       6.522   5.847  -4.083  0.00  0.00    -0.069 C 
ATOM      9  C   UNL     1       6.160   6.712  -5.292  0.00  0.00    -0.015 C 
ATOM     10  C   UNL     1       6.924   8.036  -5.220  0.00  0.00    +0.002 C 
ATOM     11  C   UNL     1       8.428   7.756  -5.226  0.00  0.00    -0.014 C 
ATOM     12  C   UNL     1       8.791   6.891  -4.017  0.00  0.00    +0.002 C 
ATOM     13  C   UNL     1       8.026   5.568  -4.089  0.00  0.00    -0.015 C 
ATOM     14  C   UNL     1       8.805   7.019  -6.512  0.00  0.00    +0.007 C 
ENDBRANCH   4   8
BRANCH   1  19
ATOM     15  N   UNL     1       1.368  -0.036  -3.052  0.00  0.00    -0.284 N 
ATOM     16  C   UNL     1       2.071  -1.145  -3.701  0.00  0.00    +0.134 C 
ATOM     17  C   UNL     1       1.988   1.150  -2.885  0.00  0.00    +0.302 C 
ATOM     18  O   UNL     1       1.405   2.070  -2.346  0.00  0.00    -0.253 OA
ATOM     19  N   UNL     1       3.254   1.314  -3.316  0.00  0.00    -0.297 N 
ATOM     20  H   UNL     1       3.720   0.580  -3.746  0.00  0.00    +0.151 HD
BRANCH  15  21
ATOM     21  C   UNL     1      -0.008  -0.215  -2.583  0.00  0.00    +0.153 C 
BRANCH  21  24
ATOM     22  C   UNL     1      -0.018   1.503   0.010  0.00  0.00    +0.066 C 
ATOM     23  C   UNL     1       0.002  -0.004   0.002  0.00  0.00    +0.050 A 
ATOM     24  C   UNL     1       0.006  -0.708  -1.159  0.00  0.00    +0.029 A 
ATOM     25  S   UNL     1       0.032  -2.379  -0.531  0.00  0.00    -0.079 S 
ATOM     26  C   UNL     1       0.036  -2.009   1.111  0.00  0.00    +0.156 A 
ATOM     27  N   UNL     1       0.023  -0.699   1.122  0.00  0.00    -0.252 NA
ENDBRANCH  21  24
ENDBRANCH  15  21
ENDBRANCH   1  19
TORSDOF 4
