REMARK  Name = ZINC27548774
REMARK  6 active torsions:
REMARK  status: ('A' for Active; 'I' for Inactive)
REMARK    1  A    between atoms: C_3  and  C_22
REMARK    2  A    between atoms: C_6  and  C_7
REMARK    3  A    between atoms: C_10  and  C_12
REMARK    4  A    between atoms: C_15  and  C_18
REMARK    5  A    between atoms: N_19  and  O_20
REMARK    6  A    between atoms: N_24  and  O_25
REMARK                            x       y       z     vdW  Elec       q    Type
REMARK                         _______ _______ _______ _____ _____    ______ ____
ROOT
ATOM      1  C   UNL     1       0.002  -0.004   0.002  0.00  0.00    +0.136 A 
ATOM      2  C   UNL     1      -1.093  -0.817   0.008  0.00  0.00    +0.050 A 
ATOM      3  C   UNL     1      -0.622  -2.138  -0.004  0.00  0.00    +0.050 A 
ATOM      4  C   UNL     1       0.740  -2.074  -0.017  0.00  0.00    +0.137 A 
ATOM      5  O   UNL     1       1.105  -0.777  -0.019  0.00  0.00    -0.455 OA
ENDROOT
BRANCH   1  11
ATOM      6  C   UNL     1      -1.238   2.154   0.020  0.00  0.00    +0.012 A 
ATOM      7  C   UNL     1      -1.256   3.524   0.032  0.00  0.00    +0.012 A 
ATOM      8  C   UNL     1      -0.056   4.239   0.024  0.00  0.00    +0.017 A 
ATOM      9  C   UNL     1       1.164   3.557   0.010  0.00  0.00    +0.012 A 
ATOM     10  C   UNL     1       1.183   2.187   0.003  0.00  0.00    +0.012 A 
ATOM     11  C   UNL     1      -0.018   1.471   0.010  0.00  0.00    +0.017 A 
BRANCH   8  12
ATOM     12  C   UNL     1      -0.075   5.718   0.032  0.00  0.00    +0.129 C 
ATOM     13  N   UNL     1       1.044   6.385   0.025  0.00  0.00    -0.383 N 
ATOM     14  N   UNL     1      -1.278   6.391   0.047  0.00  0.00    -0.253 N 
ATOM     15  H   UNL     1       1.029   7.484   0.031  0.00  0.00    +0.157 HD
ATOM     16  H   UNL     1      -2.224   5.828   0.053  0.00  0.00    +0.195 HD
ATOM     17  H   UNL     1       2.004   5.848   0.013  0.00  0.00    +0.157 HD
BRANCH  14  18
ATOM     18  O   UNL     1      -1.298   7.806   0.054  0.00  0.00    -0.288 OA
ATOM     19  H   UNL     1      -2.258   8.343   0.066  0.00  0.00    +0.244 HD
ENDBRANCH  14  18
ENDBRANCH   8  12
ENDBRANCH   1  11
BRANCH   4  20
ATOM     20  C   UNL     1       1.658  -3.229  -0.033  0.00  0.00    +0.035 A 
ATOM     21  C   UNL     1       3.046  -3.033  -0.051  0.00  0.00    +0.015 A 
ATOM     22  C   UNL     1       3.866  -4.144  -0.061  0.00  0.00    +0.032 A 
ATOM     23  C   UNL     1       3.289  -5.415  -0.064  0.00  0.00    +0.106 A 
ATOM     24  N   UNL     1       1.970  -5.566  -0.051  0.00  0.00    -0.251 NA
ATOM     25  C   UNL     1       1.156  -4.534  -0.036  0.00  0.00    +0.123 A 
BRANCH  23  26
ATOM     26  C   UNL     1       4.160  -6.612  -0.081  0.00  0.00    +0.181 C 
ATOM     27  N   UNL     1       5.454  -6.474  -0.093  0.00  0.00    -0.070 NA
ATOM     28  N   UNL     1       3.598  -7.878  -0.083  0.00  0.00    -0.339 N 
ATOM     29  H   UNL     1       4.245  -8.767  -0.095  0.00  0.00    +0.144 HD
ATOM     30  H   UNL     1       2.504  -7.994  -0.072  0.00  0.00    +0.144 HD
BRANCH  27  31
ATOM     31  O   UNL     1       6.287  -7.619  -0.109  0.00  0.00    -0.408 OA
ATOM     32  H   UNL     1       7.381  -7.503  -0.119  0.00  0.00    +0.328 HD
ENDBRANCH  27  31
ENDBRANCH  23  26
ENDBRANCH   4  20
TORSDOF 6
