REMARK  Name = ZINC34734702
REMARK  7 active torsions:
REMARK  status: ('A' for Active; 'I' for Inactive)
REMARK    1  A    between atoms: C_1  and  C_2
REMARK    2  A    between atoms: C_2  and  C_4
REMARK    3  A    between atoms: C_4  and  N_5
REMARK    4  A    between atoms: C_20  and  C_22
REMARK    5  A    between atoms: C_20  and  C_23
REMARK    6  A    between atoms: N_26  and  C_27
REMARK    7  A    between atoms: C_27  and  C_28
REMARK                            x       y       z     vdW  Elec       q    Type
REMARK                         _______ _______ _______ _____ _____    ______ ____
ROOT
ATOM      1  N   UNL     1      -1.737  -0.259  -1.429  0.00  0.00    +0.384 N 
ATOM      2  C   UNL     1      -3.016   0.442  -1.596  0.00  0.00    -0.059 C 
ATOM      3  C   UNL     1      -3.901  -0.339  -2.574  0.00  0.00    +0.089 C 
ATOM      4  N   UNL     1      -3.151  -0.540  -3.823  0.00  0.00    -0.304 N 
ATOM      5  C   UNL     1      -1.789  -1.089  -3.733  0.00  0.00    +0.089 C 
ATOM      6  C   UNL     1      -1.004  -0.273  -2.701  0.00  0.00    -0.059 C 
ATOM      7  C   UNL     1      -3.706  -0.226  -5.038  0.00  0.00    +0.202 A 
ATOM      8  N   UNL     1      -4.286   0.945  -5.204  0.00  0.00    -0.208 NA
ATOM      9  C   UNL     1      -4.832   1.276  -6.368  0.00  0.00    +0.118 A 
ATOM     10  C   UNL     1      -4.820   0.407  -7.473  0.00  0.00    +0.076 A 
ATOM     11  C   UNL     1      -5.461   0.911  -8.685  0.00  0.00    -0.018 A 
ATOM     12  C   UNL     1      -5.996   2.150  -8.628  0.00  0.00    +0.021 A 
ATOM     13  S   UNL     1      -5.683   2.710  -6.979  0.00  0.00    -0.071 S 
ATOM     14  C   UNL     1      -6.696   2.864  -9.742  0.00  0.00    +0.203 C 
ATOM     15  O   UNL     1      -6.428   2.153 -10.961  0.00  0.00    -0.368 OA
ATOM     16  C   UNL     1      -6.637   0.742 -10.856  0.00  0.00    +0.068 C 
ATOM     17  C   UNL     1      -5.548   0.111  -9.983  0.00  0.00    +0.071 C 
ATOM     18  C   UNL     1      -8.007   0.477 -10.228  0.00  0.00    +0.041 C 
ATOM     19  C   UNL     1      -6.593   0.117 -12.252  0.00  0.00    +0.041 C 
ATOM     20  C   UNL     1      -4.181  -0.857  -7.263  0.00  0.00    +0.264 A 
ATOM     21  O   UNL     1      -4.122  -1.676  -8.164  0.00  0.00    -0.267 OA
ATOM     22  N   UNL     1      -3.644  -1.127  -6.059  0.00  0.00    -0.276 N 
ATOM     23  H   UNL     1      -1.912  -1.208  -1.133  0.00  0.00    -0.081 HD
ENDROOT
BRANCH   1  24
ATOM     24  C   UNL     1      -0.933   0.429  -0.410  0.00  0.00    -0.048 C 
BRANCH  24  26
ATOM     25  C   UNL     1      -1.449  -0.917   1.766  0.00  0.00    +0.036 C 
ATOM     26  C   UNL     1      -1.620   0.323   0.928  0.00  0.00    -0.096 C 
ATOM     27  C   UNL     1      -2.365   1.309   1.361  0.00  0.00    +0.005 C 
ENDBRANCH  24  26
ENDBRANCH   1  24
BRANCH  22  28
ATOM     28  C   UNL     1      -2.985  -2.417  -5.840  0.00  0.00    +0.163 C 
BRANCH  28  29
ATOM     29  C   UNL     1      -4.015  -3.450  -5.462  0.00  0.00    -0.027 A 
ATOM     30  C   UNL     1      -4.417  -3.575  -4.145  0.00  0.00    +0.007 A 
ATOM     31  C   UNL     1      -5.361  -4.522  -3.798  0.00  0.00    +0.020 A 
ATOM     32  C   UNL     1      -5.905  -5.345  -4.768  0.00  0.00    +0.041 A 
ATOM     33  C   UNL     1      -5.502  -5.219  -6.086  0.00  0.00    +0.020 A 
ATOM     34  C   UNL     1      -4.562  -4.268  -6.433  0.00  0.00    +0.007 A 
ATOM     35 CL   UNL     1      -7.091  -6.535  -4.332  0.00  0.00    -0.084 Cl
ENDBRANCH  28  29
ENDBRANCH  22  28
TORSDOF 4
