REMARK  Name = ZINC39607395
REMARK  8 active torsions:
REMARK  status: ('A' for Active; 'I' for Inactive)
REMARK    1  A    between atoms: C_1  and  C_2
REMARK    2  A    between atoms: C_2  and  C_3
REMARK    3  A    between atoms: C_3  and  O_4
REMARK    4  A    between atoms: O_4  and  C_5
REMARK    5  A    between atoms: C_5  and  C_6
REMARK    6  A    between atoms: C_6  and  N_7
REMARK    7  A    between atoms: C_8  and  C_10
REMARK    8  A    between atoms: C_21  and  C_23
REMARK                            x       y       z     vdW  Elec       q    Type
REMARK                         _______ _______ _______ _____ _____    ______ ____
ROOT
ATOM      1  C   UNL     1       3.195  -6.147  -0.666  0.00  0.00    +0.100 C 
ATOM      2  C   UNL     1       4.658  -5.690  -0.470  0.00  0.00    +0.121 C 
ATOM      3  N   UNL     1       5.324  -6.838   0.189  0.00  0.00    -0.296 N 
ATOM      4  C   UNL     1       4.748  -8.030  -0.477  0.00  0.00    +0.115 C 
ATOM      5  C   UNL     1       3.259  -7.684  -0.674  0.00  0.00    -0.004 C 
ATOM      6  C   UNL     1       2.762  -8.226  -2.010  0.00  0.00    -0.010 C 
ATOM      7  C   UNL     1       2.780  -9.757  -1.973  0.00  0.00    -0.082 C 
ATOM      8  N   UNL     1       1.923 -10.232  -0.880  0.00  0.00    +0.379 N 
ATOM      9  C   UNL     1       2.462  -9.783   0.410  0.00  0.00    -0.082 C 
ATOM     10  C   UNL     1       2.430  -8.253   0.473  0.00  0.00    -0.010 C 
ATOM     11  C   UNL     1       6.245  -6.805   1.173  0.00  0.00    +0.247 C 
ATOM     12  O   UNL     1       6.766  -7.836   1.552  0.00  0.00    -0.270 OA
ATOM     13  H   UNL     1       0.992  -9.864  -1.001  0.00  0.00    -0.086 HD
ATOM     14  H   UNL     1       1.888 -11.240  -0.895  0.00  0.00    -0.086 HD
ENDROOT
BRANCH  11  15
ATOM     15  C   UNL     1       6.622  -5.516   1.789  0.00  0.00    +0.045 A 
ATOM     16  C   UNL     1       6.980  -4.430   0.983  0.00  0.00    +0.014 A 
ATOM     17  C   UNL     1       7.332  -3.227   1.555  0.00  0.00    +0.001 A 
ATOM     18  C   UNL     1       7.334  -3.079   2.934  0.00  0.00    +0.012 A 
ATOM     19  C   UNL     1       6.982  -4.145   3.752  0.00  0.00    +0.031 A 
ATOM     20  C   UNL     1       6.616  -5.375   3.183  0.00  0.00    +0.006 A 
ATOM     21  C   UNL     1       6.284  -6.325   4.274  0.00  0.00    -0.006 A 
ATOM     22  C   UNL     1       5.875  -7.652   4.254  0.00  0.00    +0.009 A 
ATOM     23  C   UNL     1       5.627  -8.319   5.444  0.00  0.00    +0.001 A 
ATOM     24  C   UNL     1       5.784  -7.672   6.654  0.00  0.00    +0.001 A 
ATOM     25  C   UNL     1       6.191  -6.348   6.691  0.00  0.00    +0.012 A 
ATOM     26  C   UNL     1       6.444  -5.668   5.506  0.00  0.00    +0.030 A 
ATOM     27  C   UNL     1       6.895  -4.284   5.226  0.00  0.00    +0.194 C 
ATOM     28  O   UNL     1       7.134  -3.423   6.047  0.00  0.00    -0.287 OA
ENDBRANCH  11  15
BRANCH   1  30
ATOM     29  N   UNL     1       1.030  -5.403   0.272  0.00  0.00    -0.313 N 
ATOM     30  C   UNL     1       2.337  -5.664   0.475  0.00  0.00    +0.218 C 
ATOM     31  O   UNL     1       2.822  -5.510   1.576  0.00  0.00    -0.275 OA
ATOM     32  H   UNL     1       0.642  -5.526  -0.609  0.00  0.00    +0.149 HD
BRANCH  29  33
ATOM     33  C   UNL     1       0.197  -4.933   1.381  0.00  0.00    +0.132 C 
BRANCH  33  34
ATOM     34  C   UNL     1      -1.234  -4.713   0.886  0.00  0.00    +0.178 C 
BRANCH  34  35
ATOM     35  O   UNL     1      -1.799  -5.966   0.492  0.00  0.00    -0.378 OA
BRANCH  35  36
ATOM     36  C   UNL     1      -3.142  -5.872   0.011  0.00  0.00    +0.159 C 
BRANCH  36  38
ATOM     37  C   UNL     1      -5.079  -7.164  -0.895  0.00  0.00    +0.006 C 
ATOM     38  C   UNL     1      -3.642  -7.264  -0.380  0.00  0.00    +0.025 C 
ENDBRANCH  36  38
ENDBRANCH  35  36
ENDBRANCH  34  35
ENDBRANCH  33  34
ENDBRANCH  29  33
ENDBRANCH   1  30
TORSDOF 7
