REMARK  Name = ZINC00930608
REMARK  11 active torsions:
REMARK  status: ('A' for Active; 'I' for Inactive)
REMARK    1  A    between atoms: C_1  and  C_2
REMARK    2  A    between atoms: C_7  and  C_36
REMARK    3  A    between atoms: C_10  and  C_12
REMARK    4  A    between atoms: C_12  and  S_13
REMARK    5  A    between atoms: S_13  and  C_14
REMARK    6  A    between atoms: C_17  and  C_25
REMARK    7  A    between atoms: N_18  and  C_19
REMARK    8  A    between atoms: C_19  and  C_20
REMARK    9  A    between atoms: C_28  and  N_31
REMARK   10  A    between atoms: N_31  and  S_32
REMARK   11  A    between atoms: S_32  and  C_35
REMARK                            x       y       z     vdW  Elec       q    Type
REMARK                         _______ _______ _______ _____ _____    ______ ____
ROOT
ATOM      1  C   UNL     1      -7.368   5.955   0.485  0.00  0.00    +0.193 A 
ATOM      2  N   UNL     1      -7.870   5.565  -0.665  0.00  0.00    -0.122 NA
ATOM      3  N   UNL     1      -6.960   5.005  -1.377  0.00  0.00    -0.128 NA
ATOM      4  C   UNL     1      -5.822   4.994  -0.723  0.00  0.00    +0.165 A 
ATOM      5  N   UNL     1      -6.047   5.605   0.489  0.00  0.00    -0.295 N 
ENDROOT
BRANCH   4   6
ATOM      6  C   UNL     1      -4.539   4.436  -1.200  0.00  0.00    +0.019 A 
ATOM      7  C   UNL     1      -3.339   4.833  -0.608  0.00  0.00    +0.013 A 
ATOM      8  C   UNL     1      -2.145   4.310  -1.055  0.00  0.00    +0.025 A 
ATOM      9  C   UNL     1      -2.134   3.388  -2.095  0.00  0.00    +0.048 A 
ATOM     10  C   UNL     1      -3.327   2.994  -2.691  0.00  0.00    +0.025 A 
ATOM     11  C   UNL     1      -4.525   3.509  -2.245  0.00  0.00    +0.013 A 
BRANCH   9  12
ATOM     12  N   UNL     1      -0.923   2.861  -2.546  0.00  0.00    -0.221 N 
ATOM     13  H   UNL     1      -0.164   3.446  -2.691  0.00  0.00    +0.173 HD
BRANCH  12  14
ATOM     14  S   UNL     1      -0.781   1.234  -2.825  0.00  0.00    +0.040 S 
ATOM     15  O   UNL     1      -1.863   0.919  -3.691  0.00  0.00    -0.155 OA
ATOM     16  O   UNL     1       0.563   1.056  -3.251  0.00  0.00    -0.155 OA
ATOM     17  C   UNL     1      -1.031   0.459  -1.204  0.00  0.00    +0.218 C 
ENDBRANCH  12  14
ENDBRANCH   9  12
ENDBRANCH   4   6
BRANCH   1  18
ATOM     18  S   UNL     1      -8.236   6.775   1.781  0.00  0.00    -0.077 S 
BRANCH  18  19
ATOM     19  C   UNL     1      -9.884   6.877   1.040  0.00  0.00    +0.173 C 
BRANCH  19  27
ATOM     20  C   UNL     1     -12.235   9.145   3.650  0.00  0.00    +0.028 C 
ATOM     21  C   UNL     1     -13.043   8.426   2.567  0.00  0.00    +0.073 C 
ATOM     22  C   UNL     1     -13.788   9.458   1.707  0.00  0.00    +0.022 C 
ATOM     23  C   UNL     1     -14.482   8.740   0.547  0.00  0.00    +0.004 C 
ATOM     24  C   UNL     1     -13.433   8.051  -0.329  0.00  0.00    +0.022 C 
ATOM     25  C   UNL     1     -12.683   7.007   0.505  0.00  0.00    +0.073 C 
ATOM     26  N   UNL     1     -12.134   7.663   1.700  0.00  0.00    -0.295 N 
ATOM     27  C   UNL     1     -10.824   7.562   1.998  0.00  0.00    +0.226 C 
ATOM     28  O   UNL     1     -10.401   8.023   3.037  0.00  0.00    -0.275 OA
ATOM     29  C   UNL     1     -13.645   5.895   0.927  0.00  0.00    +0.028 C 
ENDBRANCH  19  27
ENDBRANCH  18  19
ENDBRANCH   1  18
BRANCH   5  30
ATOM     30  C   UNL     1      -5.074   5.834   1.560  0.00  0.00    +0.200 C 
BRANCH  30  31
ATOM     31  C   UNL     1      -4.497   7.220   1.427  0.00  0.00    +0.125 A 
ATOM     32  C   UNL     1      -4.992   8.336   1.991  0.00  0.00    +0.046 A 
ATOM     33  C   UNL     1      -4.144   9.400   1.608  0.00  0.00    +0.041 A 
ATOM     34  C   UNL     1      -3.185   8.872   0.826  0.00  0.00    +0.195 A 
ATOM     35  O   UNL     1      -3.404   7.551   0.720  0.00  0.00    -0.466 OA
ENDBRANCH  30  31
ENDBRANCH   5  30
TORSDOF 8
