REMARK  Name = ZINC40717638
REMARK  3 active torsions:
REMARK  status: ('A' for Active; 'I' for Inactive)
REMARK    1  A    between atoms: C_1  and  C_2
REMARK    2  A    between atoms: N_6  and  C_8
REMARK    3  A    between atoms: C_13  and  N_14
REMARK                            x       y       z     vdW  Elec       q    Type
REMARK                         _______ _______ _______ _____ _____    ______ ____
ROOT
ATOM      1  C   UNL     1       0.711  -2.966   2.150  0.00  0.00    +0.054 A 
ATOM      2  C   UNL     1       1.556  -3.841   1.486  0.00  0.00    +0.074 A 
ATOM      3  C   UNL     1       2.154  -4.887   2.173  0.00  0.00    +0.164 A 
ATOM      4  C   UNL     1       1.907  -5.058   3.530  0.00  0.00    +0.164 A 
ATOM      5  C   UNL     1       1.060  -4.184   4.195  0.00  0.00    +0.074 A 
ATOM      6  C   UNL     1       0.465  -3.135   3.511  0.00  0.00    +0.050 A 
ATOM      7  O   UNL     1       2.492  -6.075   4.222  0.00  0.00    -0.485 OA
ATOM      8  C   UNL     1       3.038  -7.149   3.449  0.00  0.00    +0.270 C 
ATOM      9  C   UNL     1       3.854  -6.546   2.298  0.00  0.00    +0.270 C 
ATOM     10  O   UNL     1       2.979  -5.739   1.503  0.00  0.00    -0.485 OA
ENDROOT
BRANCH   1  15
ATOM     11  C   UNL     1      -0.019   1.526   0.010  0.00  0.00    +0.009 C 
ATOM     12  C   UNL     1       0.002  -0.004   0.002  0.00  0.00    +0.005 C 
ATOM     13  C   UNL     1      -1.433  -0.580   0.128  0.00  0.00    +0.023 C 
ATOM     14  C   UNL     1      -1.195  -1.962   0.773  0.00  0.00    +0.105 C 
ATOM     15  N   UNL     1       0.107  -1.908   1.453  0.00  0.00    -0.328 N 
ATOM     16  C   UNL     1       0.674  -0.557   1.283  0.00  0.00    +0.108 C 
ENDBRANCH   1  15
BRANCH   6  17
ATOM     17  N   UNL     1      -0.387  -2.249   4.186  0.00  0.00    -0.356 N 
ATOM     18  H   UNL     1      -0.805  -1.517   3.706  0.00  0.00    +0.142 HD
ATOM     19  H   UNL     1      -0.557  -2.367   5.134  0.00  0.00    +0.142 HD
ENDBRANCH   6  17
TORSDOF 2
