REMARK  Name = ZINC20294871
REMARK  14 active torsions:
REMARK  status: ('A' for Active; 'I' for Inactive)
REMARK    1  A    between atoms: C_1  and  C_2
REMARK    2  A    between atoms: C_3  and  C_30
REMARK    3  A    between atoms: C_4  and  N_12
REMARK    4  A    between atoms: C_6  and  C_7
REMARK    5  A    between atoms: N_9  and  C_10
REMARK    6  A    between atoms: N_9  and  C_11
REMARK    7  A    between atoms: N_12  and  C_13
REMARK    8  A    between atoms: C_13  and  N_15
REMARK    9  A    between atoms: N_15  and  N_16
REMARK   10  A    between atoms: C_17  and  C_19
REMARK   11  A    between atoms: C_19  and  O_20
REMARK   12  A    between atoms: O_20  and  C_21
REMARK   13  A    between atoms: C_30  and  O_32
REMARK   14  A    between atoms: O_32  and  C_33
REMARK                            x       y       z     vdW  Elec       q    Type
REMARK                         _______ _______ _______ _____ _____    ______ ____
ROOT
ATOM      1  C   UNL     1       8.901  -3.550   6.290  0.00  0.00    +0.151 C 
ATOM      2  S   UNL     1      10.581  -3.552   6.618  0.00  0.00    -0.017 S 
ENDROOT
BRANCH   1   3
ATOM      3  N   UNL     1       8.203  -4.702   6.343  0.00  0.00    -0.290 N 
ATOM      4  H   UNL     1       7.123  -4.701   6.132  0.00  0.00    +0.154 HD
BRANCH   3   8
ATOM      5  C   UNL     1       8.654  -9.619   7.240  0.00  0.00    +0.046 C 
ATOM      6  C   UNL     1       9.156  -8.204   7.105  0.00  0.00    -0.015 A 
ATOM      7  C   UNL     1       8.299  -7.168   6.767  0.00  0.00    +0.091 A 
ATOM      8  C   UNL     1       8.842  -5.882   6.662  0.00  0.00    +0.086 A 
ATOM      9  S   UNL     1      10.518  -6.139   7.023  0.00  0.00    -0.068 S 
ATOM     10  C   UNL     1      10.474  -7.898   7.311  0.00  0.00    +0.079 A 
BRANCH  10  11
ATOM     11  C   UNL     1      11.574  -8.793   7.672  0.00  0.00    +0.253 C 
ATOM     12  O   UNL     1      11.345  -9.951   7.971  0.00  0.00    -0.269 OA
ATOM     13  N   UNL     1      12.842  -8.336   7.674  0.00  0.00    -0.303 N 
ATOM     14  C   UNL     1      13.947  -9.241   8.002  0.00  0.00    +0.132 C 
ATOM     15  C   UNL     1      13.116  -6.934   7.348  0.00  0.00    +0.132 C 
ENDBRANCH  10  11
BRANCH   7  16
ATOM     16  C   UNL     1       6.872  -7.410   6.530  0.00  0.00    +0.342 C 
ATOM     17  O   UNL     1       6.479  -7.678   5.411  0.00  0.00    -0.245 OA
BRANCH  16  18
ATOM     18  O   UNL     1       5.996  -7.335   7.552  0.00  0.00    -0.464 OA
ATOM     19  C   UNL     1       4.600  -7.587   7.244  0.00  0.00    +0.280 C 
ENDBRANCH  16  18
ENDBRANCH   7  16
ENDBRANCH   3   8
ENDBRANCH   1   3
BRANCH   1  20
ATOM     20  N   UNL     1       8.276  -2.397   5.978  0.00  0.00    -0.245 N 
ATOM     21  H   UNL     1       8.846  -1.457   5.935  0.00  0.00    +0.172 HD
BRANCH  20  22
ATOM     22  N   UNL     1       6.901  -2.396   5.710  0.00  0.00    -0.232 N 
ATOM     23  C   UNL     1       6.277  -1.243   5.399  0.00  0.00    +0.267 C 
ATOM     24  O   UNL     1       6.905  -0.207   5.351  0.00  0.00    -0.271 OA
ATOM     25  H   UNL     1       6.331  -3.336   5.753  0.00  0.00    +0.173 HD
BRANCH  23  26
ATOM     26  C   UNL     1       4.797  -1.241   5.110  0.00  0.00    +0.326 C 
BRANCH  26  27
ATOM     27  O   UNL     1       4.372   0.089   4.808  0.00  0.00    -0.483 OA
BRANCH  27  28
ATOM     28  C   UNL     1       3.055   0.266   4.522  0.00  0.00    +0.125 A 
ATOM     29  C   UNL     1       2.191  -0.819   4.532  0.00  0.00    +0.049 A 
ATOM     30  C   UNL     1       0.852  -0.641   4.242  0.00  0.00    +0.053 A 
ATOM     31  C   UNL     1       0.368   0.621   3.940  0.00  0.00    +0.166 A 
ATOM     32  C   UNL     1       1.233   1.713   3.930  0.00  0.00    +0.170 A 
ATOM     33  C   UNL     1       2.575   1.532   4.221  0.00  0.00    +0.095 A 
ATOM     34  O   UNL     1       0.520   2.832   3.607  0.00  0.00    -0.452 OA
ATOM     35  C   UNL     1      -0.860   2.483   3.821  0.00  0.00    +0.466 C 
ATOM     36  O   UNL     1      -0.888   1.057   3.624  0.00  0.00    -0.453 OA
ENDBRANCH  27  28
ENDBRANCH  26  27
ENDBRANCH  23  26
ENDBRANCH  20  22
ENDBRANCH   1  20
TORSDOF 10
