REMARK  Name = ZINC36013879
REMARK  10 active torsions:
REMARK  status: ('A' for Active; 'I' for Inactive)
REMARK    1  A    between atoms: C_1  and  C_2
REMARK    2  A    between atoms: C_2  and  N_3
REMARK    3  A    between atoms: C_4  and  C_23
REMARK    4  A    between atoms: C_5  and  C_18
REMARK    5  A    between atoms: C_6  and  C_11
REMARK    6  A    between atoms: C_18  and  O_20
REMARK    7  A    between atoms: O_20  and  C_21
REMARK    8  A    between atoms: C_21  and  C_22
REMARK    9  A    between atoms: C_23  and  N_24
REMARK   10  A    between atoms: C_31  and  C_33
REMARK                            x       y       z     vdW  Elec       q    Type
REMARK                         _______ _______ _______ _____ _____    ______ ____
ROOT
ATOM      1  N   UNL     1       0.822  -0.334  -1.390  0.00  0.00    -0.261 N 
ATOM      2  C   UNL     1      -0.030  -0.830  -2.336  0.00  0.00    +0.010 C 
ATOM      3  C   UNL     1       0.436  -1.510  -3.405  0.00  0.00    +0.076 C 
ATOM      4  C   UNL     1       1.934  -1.703  -3.521  0.00  0.00    +0.143 C 
ATOM      5  N   UNL     1       2.765  -1.130  -2.449  0.00  0.00    -0.288 N 
ATOM      6  C   UNL     1       2.153  -0.472  -1.445  0.00  0.00    +0.307 C 
ATOM      7  O   UNL     1       2.830   0.009  -0.557  0.00  0.00    -0.252 OA
ATOM      8  H   UNL     1       3.731  -1.220  -2.467  0.00  0.00    +0.151 HD
ENDROOT
BRANCH   4   9
ATOM      9  C   UNL     1       2.381  -1.100  -4.828  0.00  0.00    -0.022 A 
ATOM     10  C   UNL     1       2.570   0.266  -4.929  0.00  0.00    +0.007 A 
ATOM     11  C   UNL     1       2.980   0.819  -6.128  0.00  0.00    +0.020 A 
ATOM     12  C   UNL     1       3.201   0.007  -7.225  0.00  0.00    +0.041 A 
ATOM     13  C   UNL     1       3.012  -1.360  -7.123  0.00  0.00    +0.020 A 
ATOM     14  C   UNL     1       2.607  -1.913  -5.922  0.00  0.00    +0.007 A 
ATOM     15 CL   UNL     1       3.716   0.702  -8.730  0.00  0.00    -0.084 Cl
ENDBRANCH   4   9
BRANCH   1  17
ATOM     16  C   UNL     1       0.262   1.894  -0.553  0.00  0.00    +0.025 C 
ATOM     17  C   UNL     1       0.248   0.393  -0.256  0.00  0.00    +0.111 C 
ENDBRANCH   1  17
BRANCH   3  18
ATOM     18  C   UNL     1      -0.446  -2.024  -4.385  0.00  0.00    +0.339 C 
ATOM     19  O   UNL     1      -1.637  -1.783  -4.319  0.00  0.00    -0.245 OA
BRANCH  18  20
ATOM     20  O   UNL     1       0.034  -2.782  -5.393  0.00  0.00    -0.462 OA
BRANCH  20  21
ATOM     21  C   UNL     1      -0.913  -3.268  -6.347  0.00  0.00    +0.229 C 
ATOM     22  C   UNL     1      -0.188  -4.101  -7.406  0.00  0.00    +0.048 C 
ENDBRANCH  20  21
ENDBRANCH  18  20
ENDBRANCH   3  18
BRANCH   2  23
ATOM     23  C   UNL     1      -1.514  -0.615  -2.182  0.00  0.00    -0.026 C 
BRANCH  23  24
ATOM     24  N   UNL     1      -2.128  -1.825  -1.620  0.00  0.00    +0.384 N 
ATOM     25  C   UNL     1      -3.580  -1.680  -1.692  0.00  0.00    -0.077 C 
ATOM     26  C   UNL     1      -4.212  -3.047  -1.827  0.00  0.00    +0.000 C 
ATOM     27  C   UNL     1      -4.588  -3.579  -0.432  0.00  0.00    +0.106 C 
ATOM     28  N   UNL     1      -3.543  -3.251   0.560  0.00  0.00    -0.299 N 
ATOM     29  C   UNL     1      -2.130  -3.359   0.262  0.00  0.00    +0.089 C 
ATOM     30  C   UNL     1      -1.613  -2.023  -0.320  0.00  0.00    -0.059 C 
ATOM     31  C   UNL     1      -3.919  -2.837   1.786  0.00  0.00    +0.247 C 
ATOM     32  O   UNL     1      -3.082  -2.458   2.583  0.00  0.00    -0.270 OA
ATOM     33  H   UNL     1      -1.860  -2.611  -2.192  0.00  0.00    -0.081 HD
BRANCH  31  34
ATOM     34  C   UNL     1      -5.349  -2.842   2.162  0.00  0.00    +0.037 A 
ATOM     35  C   UNL     1      -6.191  -3.855   1.703  0.00  0.00    +0.013 A 
ATOM     36  C   UNL     1      -7.524  -3.854   2.058  0.00  0.00    +0.001 A 
ATOM     37  C   UNL     1      -8.027  -2.851   2.868  0.00  0.00    +0.000 A 
ATOM     38  C   UNL     1      -7.197  -1.843   3.326  0.00  0.00    +0.001 A 
ATOM     39  C   UNL     1      -5.861  -1.836   2.984  0.00  0.00    +0.013 A 
ENDBRANCH  31  34
ENDBRANCH  23  24
ENDBRANCH   2  23
TORSDOF 8
