REMARK  Name = ZINC16928469
REMARK  10 active torsions:
REMARK  status: ('A' for Active; 'I' for Inactive)
REMARK    1  A    between atoms: C_1  and  C_2
REMARK    2  A    between atoms: C_2  and  C_3
REMARK    3  A    between atoms: C_3  and  C_5
REMARK    4  A    between atoms: C_3  and  O_8
REMARK    5  A    between atoms: O_8  and  C_9
REMARK    6  A    between atoms: C_12  and  C_15
REMARK    7  A    between atoms: C_20  and  N_22
REMARK    8  A    between atoms: N_22  and  C_23
REMARK    9  A    between atoms: C_25  and  C_32
REMARK   10  A    between atoms: C_27  and  C_29
REMARK                            x       y       z     vdW  Elec       q    Type
REMARK                         _______ _______ _______ _____ _____    ______ ____
ROOT
ATOM      1  C   UNL     1       2.961   2.152   6.644  0.00  0.00    +0.028 C 
ATOM      2  C   UNL     1       2.437   2.132   7.896  0.00  0.00    +0.079 C 
ATOM      3  C   UNL     1       3.100   2.330   9.206  0.00  0.00    +0.276 C 
ATOM      4  O   UNL     1       4.297   2.552   9.295  0.00  0.00    -0.267 OA
ATOM      5  N   UNL     1       2.329   2.254  10.267  0.00  0.00    -0.152 NA
ATOM      6  C   UNL     1       1.029   2.014  10.185  0.00  0.00    +0.175 C 
ATOM      7  S   UNL     1       0.750   1.866   8.427  0.00  0.00    -0.050 S 
ENDROOT
BRANCH   1  11
ATOM      8  C   UNL     1       0.394   2.154   3.270  0.00  0.00    +0.122 A 
ATOM      9  C   UNL     1      -0.138   2.315   4.545  0.00  0.00    +0.046 A 
ATOM     10  C   UNL     1       0.691   2.315   5.644  0.00  0.00    +0.011 A 
ATOM     11  C   UNL     1       2.072   2.152   5.476  0.00  0.00    -0.024 A 
ATOM     12  C   UNL     1       2.602   1.990   4.189  0.00  0.00    +0.011 A 
ATOM     13  C   UNL     1       1.763   1.987   3.098  0.00  0.00    +0.046 A 
BRANCH   8  14
ATOM     14  O   UNL     1      -0.428   2.154   2.190  0.00  0.00    -0.477 OA
BRANCH  14  15
ATOM     15  C   UNL     1      -1.830   2.277   2.441  0.00  0.00    +0.285 C 
BRANCH  15  16
ATOM     16  C   UNL     1      -2.208   3.736   2.473  0.00  0.00    +0.396 C 
ATOM     17  O   UNL     1      -3.346   4.064   2.765  0.00  0.00    -0.242 OA
ATOM     18  O   UNL     1      -1.377   4.587   2.208  0.00  0.00    -0.242 OA
ENDBRANCH  15  16
BRANCH  15  20
ATOM     19  C   UNL     1      -2.321   0.071   1.377  0.00  0.00    +0.008 C 
ATOM     20  C   UNL     1      -2.611   1.572   1.330  0.00  0.00    +0.053 C 
ENDBRANCH  15  20
ENDBRANCH  14  15
ENDBRANCH   8  14
ENDBRANCH   1  11
BRANCH   6  21
ATOM     21  N   UNL     1       0.117   1.910  11.203  0.00  0.00    -0.192 NA
BRANCH  21  22
ATOM     22  C   UNL     1       0.482   2.259  12.508  0.00  0.00    +0.057 A 
ATOM     23  C   UNL     1       1.576   3.084  12.723  0.00  0.00    +0.040 A 
ATOM     24  C   UNL     1       1.944   3.435  14.025  0.00  0.00    +0.066 A 
ATOM     25  C   UNL     1       1.210   2.954  15.108  0.00  0.00    +0.030 A 
ATOM     26  C   UNL     1       0.111   2.124  14.888  0.00  0.00    +0.066 A 
ATOM     27  C   UNL     1      -0.254   1.782  13.583  0.00  0.00    +0.040 A 
BRANCH  26  28
ATOM     28  C   UNL     1      -0.670   1.612  16.031  0.00  0.00    +0.387 C 
ATOM     29  O   UNL     1      -0.353   1.916  17.172  0.00  0.00    -0.241 OA
ATOM     30  O   UNL     1      -1.633   0.885  15.837  0.00  0.00    -0.241 OA
ENDBRANCH  26  28
BRANCH  24  31
ATOM     31  C   UNL     1       3.108   4.312  14.253  0.00  0.00    +0.387 C 
ATOM     32  O   UNL     1       3.752   4.734  13.302  0.00  0.00    -0.241 OA
ATOM     33  O   UNL     1       3.429   4.619  15.392  0.00  0.00    -0.241 OA
ENDBRANCH  24  31
ENDBRANCH  21  22
ENDBRANCH   6  21
TORSDOF 9
