REMARK  Name = ZINC07977759
REMARK  12 active torsions:
REMARK  status: ('A' for Active; 'I' for Inactive)
REMARK    1  A    between atoms: C_1  and  C_2
REMARK    2  A    between atoms: C_5  and  O_26
REMARK    3  A    between atoms: C_6  and  N_8
REMARK    4  A    between atoms: C_9  and  C_11
REMARK    5  A    between atoms: C_11  and  N_12
REMARK    6  A    between atoms: N_12  and  C_13
REMARK    7  A    between atoms: N_12  and  C_14
REMARK    8  A    between atoms: C_14  and  C_15
REMARK    9  A    between atoms: N_17  and  C_18
REMARK   10  A    between atoms: C_23  and  S_24
REMARK   11  A    between atoms: S_24  and  C_25
REMARK   12  A    between atoms: O_26  and  C_27
REMARK                            x       y       z     vdW  Elec       q    Type
REMARK                         _______ _______ _______ _____ _____    ______ ____
ROOT
ATOM      1  N   UNL     1       0.380  -1.948   5.979  0.00  0.00    +0.389 N 
ATOM      2  C   UNL     1      -0.882  -1.204   6.089  0.00  0.00    -0.095 C 
ATOM      3  H   UNL     1       1.138  -1.301   5.817  0.00  0.00    -0.081 HD
ENDROOT
BRANCH   1   4
ATOM      4  C   UNL     1       0.295  -2.893   4.857  0.00  0.00    +0.019 C 
BRANCH   4   6
ATOM      5  N   UNL     1       0.075  -2.792   2.396  0.00  0.00    -0.284 N 
ATOM      6  C   UNL     1       0.168  -2.128   3.565  0.00  0.00    +0.201 C 
ATOM      7  O   UNL     1       0.150  -0.915   3.577  0.00  0.00    -0.278 OA
ATOM      8  H   UNL     1       0.007  -3.760   2.392  0.00  0.00    +0.155 HD
BRANCH   5  14
ATOM      9  C   UNL     1       1.291   1.233  -0.154  0.00  0.00    +0.044 C 
ATOM     10  C   UNL     1       0.656  -0.132  -0.079  0.00  0.00    -0.048 A 
ATOM     11  C   UNL     1       0.074  -0.685  -1.204  0.00  0.00    +0.007 A 
ATOM     12  C   UNL     1      -0.510  -1.937  -1.141  0.00  0.00    +0.048 A 
ATOM     13  C   UNL     1      -0.513  -2.641   0.052  0.00  0.00    +0.141 A 
ATOM     14  C   UNL     1       0.074  -2.085   1.186  0.00  0.00    +0.076 A 
ATOM     15  C   UNL     1       0.663  -0.831   1.114  0.00  0.00    +0.030 A 
BRANCH  13  16
ATOM     16  O   UNL     1      -1.087  -3.872   0.116  0.00  0.00    -0.493 OA
ATOM     17  C   UNL     1      -1.670  -4.378  -1.087  0.00  0.00    +0.277 C 
ENDBRANCH  13  16
ENDBRANCH   5  14
ENDBRANCH   4   6
ENDBRANCH   1   4
BRANCH   1  18
ATOM     18  C   UNL     1       0.624  -2.687   7.225  0.00  0.00    +0.019 C 
BRANCH  18  19
ATOM     19  C   UNL     1       0.833  -1.712   8.354  0.00  0.00    +0.201 C 
ATOM     20  O   UNL     1       0.784  -0.518   8.143  0.00  0.00    -0.278 OA
ATOM     21  N   UNL     1       1.075  -2.166   9.600  0.00  0.00    -0.286 N 
ATOM     22  H   UNL     1       1.182  -3.117   9.758  0.00  0.00    +0.155 HD
BRANCH  21  23
ATOM     23  C   UNL     1       1.170  -1.263  10.668  0.00  0.00    +0.047 A 
ATOM     24  C   UNL     1       1.727  -0.009  10.471  0.00  0.00    +0.024 A 
ATOM     25  C   UNL     1       1.820   0.880  11.527  0.00  0.00    +0.002 A 
ATOM     26  C   UNL     1       1.360   0.522  12.781  0.00  0.00    +0.001 A 
ATOM     27  C   UNL     1       0.804  -0.727  12.987  0.00  0.00    +0.016 A 
ATOM     28  C   UNL     1       0.701  -1.623  11.932  0.00  0.00    +0.029 A 
BRANCH  28  29
ATOM     29  S   UNL     1      -0.014  -3.212  12.190  0.00  0.00    -0.127 S 
ATOM     30  C   UNL     1      -0.463  -3.212  13.947  0.00  0.00    +0.090 C 
ENDBRANCH  28  29
ENDBRANCH  21  23
ENDBRANCH  18  19
ENDBRANCH   1  18
TORSDOF 8
