REMARK  Name = ZINC39487345
REMARK  9 active torsions:
REMARK  status: ('A' for Active; 'I' for Inactive)
REMARK    1  A    between atoms: C_1  and  C_2
REMARK    2  A    between atoms: C_2  and  C_3
REMARK    3  A    between atoms: C_3  and  C_4
REMARK    4  A    between atoms: C_4  and  C_31
REMARK    5  A    between atoms: N_9  and  C_10
REMARK    6  A    between atoms: C_10  and  C_11
REMARK    7  A    between atoms: C_11  and  C_24
REMARK    8  A    between atoms: N_14  and  C_17
REMARK    9  A    between atoms: C_17  and  C_18
REMARK                            x       y       z     vdW  Elec       q    Type
REMARK                         _______ _______ _______ _____ _____    ______ ____
ROOT
ATOM      1  C   UNL     1       3.105  -1.266   3.814  0.00  0.00    -0.014 C 
ATOM      2  C   UNL     1       2.418  -0.029   3.228  0.00  0.00    -0.010 C 
ATOM      3  C   UNL     1       0.914  -0.288   3.127  0.00  0.00    -0.078 C 
ATOM      4  N   UNL     1       0.370  -0.564   4.462  0.00  0.00    +0.382 N 
ATOM      5  C   UNL     1       0.972  -1.790   5.001  0.00  0.00    -0.078 C 
ATOM      6  C   UNL     1       2.479  -1.589   5.174  0.00  0.00    -0.010 C 
ATOM      7  H   UNL     1       0.578   0.209   5.075  0.00  0.00    -0.081 HD
ENDROOT
BRANCH   1   8
ATOM      8  C   UNL     1       4.599  -0.989   3.992  0.00  0.00    -0.003 C 
ATOM      9  C   UNL     1       5.238  -2.127   4.791  0.00  0.00    +0.004 C 
ATOM     10  C   UNL     1       6.732  -1.849   4.969  0.00  0.00    +0.000 C 
ATOM     11  C   UNL     1       6.919  -0.530   5.721  0.00  0.00    +0.000 C 
ATOM     12  C   UNL     1       6.280   0.608   4.923  0.00  0.00    +0.000 C 
ATOM     13  C   UNL     1       4.786   0.330   4.745  0.00  0.00    +0.004 C 
ENDBRANCH   1   8
BRANCH   1  14
ATOM     14  C   UNL     1       2.914  -2.454   2.869  0.00  0.00    +0.117 C 
BRANCH  14  20
ATOM     15  C   UNL     1       4.664  -2.579   0.938  0.00  0.00    +0.053 C 
ATOM     16  C   UNL     1       4.691  -1.911  -0.450  0.00  0.00    +0.148 C 
ATOM     17  N   UNL     1       3.447  -1.126  -0.487  0.00  0.00    -0.220 N 
ATOM     18  C   UNL     1       2.789  -1.290   0.668  0.00  0.00    +0.315 C 
ATOM     19  O   UNL     1       1.725  -0.752   0.907  0.00  0.00    -0.252 OA
ATOM     20  N   UNL     1       3.409  -2.101   1.536  0.00  0.00    -0.277 N 
ATOM     21 BR   UNL     1       2.882  -0.079  -1.904  0.00  0.00    +0.040 Br
ATOM     22  C   UNL     1       4.648  -4.103   0.803  0.00  0.00    +0.033 C 
BRANCH  15  23
ATOM     23  C   UNL     1       5.863  -2.128   1.774  0.00  0.00    +0.027 C 
BRANCH  23  25
ATOM     24  C   UNL     1       8.357  -1.994   1.841  0.00  0.00    +0.004 C 
ATOM     25  C   UNL     1       7.157  -2.583   1.097  0.00  0.00    -0.001 C 
ENDBRANCH  23  25
ENDBRANCH  15  23
ENDBRANCH  14  20
ENDBRANCH   1  14
BRANCH   4  26
ATOM     26  C   UNL     1      -1.086  -0.734   4.370  0.00  0.00    -0.043 C 
BRANCH  26  27
ATOM     27  C   UNL     1      -1.655  -0.946   5.750  0.00  0.00    -0.064 A 
ATOM     28  C   UNL     1      -1.765  -2.224   6.264  0.00  0.00    +0.002 A 
ATOM     29  C   UNL     1      -2.286  -2.418   7.529  0.00  0.00    +0.000 A 
ATOM     30  C   UNL     1      -2.698  -1.334   8.281  0.00  0.00    +0.000 A 
ATOM     31  C   UNL     1      -2.587  -0.055   7.767  0.00  0.00    +0.000 A 
ATOM     32  C   UNL     1      -2.062   0.139   6.504  0.00  0.00    +0.002 A 
ENDBRANCH  26  27
ENDBRANCH   4  26
TORSDOF 7
