REMARK  Name = ZINC06678561
REMARK  6 active torsions:
REMARK  status: ('A' for Active; 'I' for Inactive)
REMARK    1  A    between atoms: C_1  and  C_2
REMARK    2  A    between atoms: C_11  and  C_25
REMARK    3  A    between atoms: C_14  and  C_16
REMARK    4  A    between atoms: C_19  and  O_24
REMARK    5  A    between atoms: C_20  and  O_22
REMARK    6  A    between atoms: O_22  and  C_23
REMARK                            x       y       z     vdW  Elec       q    Type
REMARK                         _______ _______ _______ _____ _____    ______ ____
ROOT
ATOM      1  C   UNL     1       0.170   1.698  -2.563  0.00  0.00    +0.068 C 
ATOM      2  C   UNL     1       0.773   0.326  -2.399  0.00  0.00    +0.066 A 
ATOM      3  C   UNL     1       0.706  -0.468  -1.235  0.00  0.00    +0.032 A 
ATOM      4  C   UNL     1       1.360  -1.623  -1.485  0.00  0.00    +0.125 A 
ATOM      5  N   UNL     1       1.828  -1.550  -2.770  0.00  0.00    -0.263 N 
ATOM      6  H   UNL     1       2.357  -2.256  -3.242  0.00  0.00    +0.190 HD
ATOM      7  N   UNL     1       1.442  -0.323  -3.308  0.00  0.00    -0.177 NA
ATOM      8  N   UNL     1       1.588  -2.735  -0.710  0.00  0.00    -0.270 N 
ATOM      9  C   UNL     1       1.323  -3.067   0.517  0.00  0.00    +0.231 C 
ATOM     10  O   UNL     1       1.794  -4.127   0.872  0.00  0.00    -0.274 OA
ATOM     11  C   UNL     1       0.537  -2.360   1.551  0.00  0.00    +0.130 C 
ATOM     12  S   UNL     1       0.776  -0.578   1.516  0.00  0.00    -0.135 S 
ATOM     13  C   UNL     1       0.002  -0.004   0.002  0.00  0.00    +0.112 C 
ATOM     14  C   UNL     1       0.948  -2.885   2.928  0.00  0.00    +0.029 C 
ATOM     15  H   UNL     1       2.057  -3.434  -1.191  0.00  0.00    +0.156 HD
ENDROOT
BRANCH  13  16
ATOM     16  C   UNL     1      -0.018   1.503   0.010  0.00  0.00    -0.026 A 
ATOM     17  C   UNL     1       1.170   2.209   0.003  0.00  0.00    +0.009 A 
ATOM     18  C   UNL     1       1.157   3.591   0.009  0.00  0.00    +0.049 A 
ATOM     19  C   UNL     1      -0.050   4.272   0.024  0.00  0.00    +0.158 A 
ATOM     20  C   UNL     1      -1.246   3.562   0.032  0.00  0.00    +0.162 A 
ATOM     21  C   UNL     1      -1.226   2.176   0.020  0.00  0.00    +0.054 A 
BRANCH  20  22
ATOM     22  O   UNL     1      -2.433   4.225   0.047  0.00  0.00    -0.491 OA
ATOM     23  C   UNL     1      -3.621   3.431   0.054  0.00  0.00    +0.277 C 
ENDBRANCH  20  22
BRANCH  19  24
ATOM     24  O   UNL     1      -0.065   5.632   0.030  0.00  0.00    -0.503 OA
ATOM     25  H   UNL     1      -0.078   6.029  -0.851  0.00  0.00    +0.292 HD
ENDBRANCH  19  24
ENDBRANCH  13  16
TORSDOF 3
