REMARK  Name = ZINC36308143
REMARK  15 active torsions:
REMARK  status: ('A' for Active; 'I' for Inactive)
REMARK    1  A    between atoms: C_1  and  C_2
REMARK    2  A    between atoms: C_7  and  O_8
REMARK    3  A    between atoms: O_8  and  C_9
REMARK    4  A    between atoms: C_9  and  C_10
REMARK    5  A    between atoms: C_10  and  C_12
REMARK    6  A    between atoms: C_10  and  O_40
REMARK    7  A    between atoms: C_12  and  N_13
REMARK    8  A    between atoms: N_13  and  C_14
REMARK    9  A    between atoms: N_13  and  C_20
REMARK   10  A    between atoms: C_14  and  C_15
REMARK   11  A    between atoms: C_20  and  C_21
REMARK   12  A    between atoms: C_22  and  C_34
REMARK   13  A    between atoms: N_24  and  C_33
REMARK   14  A    between atoms: C_25  and  O_26
REMARK   15  A    between atoms: O_26  and  C_27
REMARK                            x       y       z     vdW  Elec       q    Type
REMARK                         _______ _______ _______ _____ _____    ______ ____
ROOT
ATOM      1  N   UNL     1       0.353  -0.323   7.313  0.00  0.00    +0.389 N 
ATOM      2  H   UNL     1       1.069   0.376   7.439  0.00  0.00    -0.081 HD
ENDROOT
BRANCH   1   3
ATOM      3  C   UNL     1       0.784  -1.288   6.293  0.00  0.00    -0.043 C 
BRANCH   3   4
ATOM      4  C   UNL     1       1.142  -0.543   5.005  0.00  0.00    +0.135 C 
BRANCH   4   5
ATOM      5  O   UNL     1       2.276   0.293   5.238  0.00  0.00    -0.390 OA
ATOM      6  H   UNL     1       3.068  -0.187   5.519  0.00  0.00    +0.210 HD
ENDBRANCH   4   5
BRANCH   4   7
ATOM      7  C   UNL     1       1.471  -1.555   3.905  0.00  0.00    +0.258 C 
BRANCH   7   8
ATOM      8  O   UNL     1       1.690  -0.865   2.674  0.00  0.00    -0.489 OA
BRANCH   8  15
ATOM      9  C   UNL     1       2.128   0.480   0.228  0.00  0.00    +0.047 C 
ATOM     10  C   UNL     1       2.222  -1.018   0.360  0.00  0.00    -0.009 A 
ATOM     11  C   UNL     1       2.538  -1.790  -0.741  0.00  0.00    +0.007 A 
ATOM     12  C   UNL     1       2.623  -3.165  -0.622  0.00  0.00    +0.000 A 
ATOM     13  C   UNL     1       2.393  -3.771   0.600  0.00  0.00    +0.004 A 
ATOM     14  C   UNL     1       2.077  -3.003   1.704  0.00  0.00    +0.046 A 
ATOM     15  C   UNL     1       1.996  -1.623   1.588  0.00  0.00    +0.124 A 
ENDBRANCH   8  15
ENDBRANCH   7   8
ENDBRANCH   4   7
ENDBRANCH   3   4
ENDBRANCH   1   3
BRANCH   1  16
ATOM     16  C   UNL     1      -0.893   0.324   6.880  0.00  0.00    -0.003 C 
BRANCH  16  17
ATOM     17  C   UNL     1      -1.265   1.404   7.862  0.00  0.00    +0.089 A 
ATOM     18  C   UNL     1      -0.940   2.705   7.761  0.00  0.00    +0.042 A 
ATOM     19  C   UNL     1      -1.489   3.354   8.891  0.00  0.00    +0.041 A 
ATOM     20  C   UNL     1      -2.118   2.410   9.614  0.00  0.00    +0.195 A 
ATOM     21  O   UNL     1      -1.984   1.232   8.983  0.00  0.00    -0.470 OA
ENDBRANCH  16  17
ENDBRANCH   1  16
BRANCH   1  22
ATOM     22  C   UNL     1       0.125  -1.024   8.584  0.00  0.00    -0.035 C 
BRANCH  22  23
ATOM     23  C   UNL     1       1.433  -1.562   9.103  0.00  0.00    +0.025 A 
ATOM     24  C   UNL     1       1.920  -2.871   8.927  0.00  0.00    +0.098 A 
ATOM     25  N   UNL     1       3.090  -2.957   9.523  0.00  0.00    -0.168 NA
ATOM     26  N   UNL     1       3.384  -1.712  10.094  0.00  0.00    -0.235 N 
ATOM     27  C   UNL     1       2.356  -0.869   9.819  0.00  0.00    +0.221 A 
ATOM     28  C   UNL     1       4.593  -1.376  10.851  0.00  0.00    +0.176 C 
BRANCH  24  29
ATOM     29  C   UNL     1       1.232  -3.965   8.197  0.00  0.00    +0.002 A 
ATOM     30  C   UNL     1      -0.133  -4.175   8.376  0.00  0.00    +0.010 A 
ATOM     31  C   UNL     1      -0.768  -5.194   7.694  0.00  0.00    +0.001 A 
ATOM     32  C   UNL     1      -0.050  -6.005   6.833  0.00  0.00    +0.000 A 
ATOM     33  C   UNL     1       1.306  -5.801   6.652  0.00  0.00    +0.001 A 
ATOM     34  C   UNL     1       1.949  -4.782   7.324  0.00  0.00    +0.010 A 
ENDBRANCH  24  29
BRANCH  27  35
ATOM     35  O   UNL     1       2.265   0.432  10.194  0.00  0.00    -0.438 OA
BRANCH  35  36
ATOM     36  C   UNL     1       1.767   0.706  11.428  0.00  0.00    +0.130 A 
ATOM     37  C   UNL     1       1.472  -0.328  12.305  0.00  0.00    +0.046 A 
ATOM     38  C   UNL     1       0.967  -0.047  13.559  0.00  0.00    +0.004 A 
ATOM     39  C   UNL     1       0.753   1.265  13.941  0.00  0.00    +0.000 A 
ATOM     40  C   UNL     1       1.046   2.298  13.070  0.00  0.00    +0.004 A 
ATOM     41  C   UNL     1       1.557   2.022  11.817  0.00  0.00    +0.046 A 
ENDBRANCH  35  36
ENDBRANCH  27  35
ENDBRANCH  22  23
ENDBRANCH   1  22
TORSDOF 13
