REMARK  Name = ZINC00641710
REMARK  10 active torsions:
REMARK  status: ('A' for Active; 'I' for Inactive)
REMARK    1  A    between atoms: C_1  and  C_2
REMARK    2  A    between atoms: C_2  and  C_3
REMARK    3  A    between atoms: C_2  and  C_4
REMARK    4  A    between atoms: C_4  and  C_5
REMARK    5  A    between atoms: C_5  and  C_7
REMARK    6  A    between atoms: C_5  and  O_11
REMARK    7  A    between atoms: C_7  and  O_9
REMARK    8  A    between atoms: O_9  and  C_10
REMARK    9  A    between atoms: O_11  and  C_12
REMARK   10  A    between atoms: C_16  and  C_23
REMARK                            x       y       z     vdW  Elec       q    Type
REMARK                         _______ _______ _______ _____ _____    ______ ____
ROOT
ATOM      1  C   UNL     1       0.408  -3.783   0.176  0.00  0.00    +0.125 A 
ATOM      2  C   UNL     1       0.815  -4.425   1.344  0.00  0.00    +0.046 A 
ATOM      3  C   UNL     1       0.168  -5.546   1.778  0.00  0.00    +0.016 A 
ATOM      4  C   UNL     1      -0.911  -6.054   1.045  0.00  0.00    +0.029 A 
ATOM      5  C   UNL     1      -1.624  -7.254   1.487  0.00  0.00    +0.072 A 
ATOM      6  C   UNL     1      -2.663  -7.697   0.733  0.00  0.00    +0.105 A 
ATOM      7  C   UNL     1      -3.026  -7.002  -0.439  0.00  0.00    +0.338 A 
ATOM      8  O   UNL     1      -3.960  -7.411  -1.106  0.00  0.00    -0.245 OA
ATOM      9  O   UNL     1      -2.368  -5.903  -0.839  0.00  0.00    -0.422 OA
ATOM     10  C   UNL     1      -1.327  -5.410  -0.135  0.00  0.00    +0.143 A 
ATOM     11  C   UNL     1      -0.661  -4.269  -0.558  0.00  0.00    +0.092 A 
ENDROOT
BRANCH   5  12
ATOM     12  C   UNL     1      -1.215  -7.978   2.744  0.00  0.00    +0.418 C 
ATOM     13  F   UNL     1      -2.051  -9.083   2.938  0.00  0.00    -0.166 F 
ATOM     14  F   UNL     1       0.110  -8.411   2.623  0.00  0.00    -0.166 F 
ATOM     15  F   UNL     1      -1.324  -7.112   3.837  0.00  0.00    -0.166 F 
ENDBRANCH   5  12
BRANCH   1  16
ATOM     16  O   UNL     1       1.061  -2.669  -0.242  0.00  0.00    -0.478 OA
BRANCH  16  17
ATOM     17  C   UNL     1       0.526  -1.992  -1.382  0.00  0.00    +0.281 C 
BRANCH  17  18
ATOM     18  C   UNL     1       1.041  -2.643  -2.640  0.00  0.00    +0.348 C 
ATOM     19  O   UNL     1       1.858  -3.530  -2.570  0.00  0.00    -0.247 OA
BRANCH  18  20
ATOM     20  O   UNL     1       0.591  -2.238  -3.838  0.00  0.00    -0.465 OA
ATOM     21  C   UNL     1       1.131  -2.910  -5.006  0.00  0.00    +0.280 C 
ENDBRANCH  18  20
ENDBRANCH  17  18
BRANCH  17  22
ATOM     22  C   UNL     1       0.958  -0.525  -1.353  0.00  0.00    +0.059 C 
BRANCH  22  24
ATOM     23  C   UNL     1      -1.169   0.187  -0.252  0.00  0.00    +0.007 C 
ATOM     24  C   UNL     1       0.356   0.160  -0.125  0.00  0.00    -0.013 C 
ATOM     25  C   UNL     1       0.885   1.592  -0.029  0.00  0.00    +0.007 C 
ENDBRANCH  22  24
ENDBRANCH  17  22
ENDBRANCH  16  17
ENDBRANCH   1  16
TORSDOF 7
