REMARK  Name = ZINC09841812
REMARK  3 active torsions:
REMARK  status: ('A' for Active; 'I' for Inactive)
REMARK    1  A    between atoms: C_3  and  C_10
REMARK    2  A    between atoms: C_5  and  N_7
REMARK    3  A    between atoms: C_10  and  N_11
REMARK                            x       y       z     vdW  Elec       q    Type
REMARK                         _______ _______ _______ _____ _____    ______ ____
ROOT
ATOM      1  N   UNL     1       4.105   2.425   1.356  0.00  0.00    -0.220 N 
ATOM      2  C   UNL     1       3.754   3.508   2.082  0.00  0.00    +0.251 C 
ATOM      3  O   UNL     1       3.048   4.429   1.732  0.00  0.00    -0.272 OA
ATOM      4  C   UNL     1       4.427   3.328   3.421  0.00  0.00    +0.139 C 
ATOM      5  C   UNL     1       5.383   4.475   3.710  0.00  0.00    +0.040 C 
ATOM      6  C   UNL     1       5.920   4.368   5.141  0.00  0.00    +0.008 C 
ATOM      7  C   UNL     1       4.774   4.651   6.123  0.00  0.00    +0.043 C 
ATOM      8  C   UNL     1       3.586   3.844   5.713  0.00  0.00    -0.005 A 
ATOM      9  C   UNL     1       3.378   3.228   4.516  0.00  0.00    -0.005 A 
ATOM     10  C   UNL     1       2.181   2.526   4.378  0.00  0.00    +0.014 A 
ATOM     11  C   UNL     1       1.297   2.485   5.400  0.00  0.00    +0.046 A 
ATOM     12  S   UNL     1       2.128   3.460   6.645  0.00  0.00    -0.101 S 
ATOM     13  N   UNL     1       5.146   2.057   3.296  0.00  0.00    -0.281 N 
ATOM     14  C   UNL     1       4.894   1.599   2.054  0.00  0.00    +0.310 C 
ATOM     15  O   UNL     1       5.336   0.555   1.616  0.00  0.00    -0.252 OA
ATOM     16  H   UNL     1       5.691   1.628   3.974  0.00  0.00    +0.152 HD
ENDROOT
BRANCH   1  17
ATOM     17  C   UNL     1       3.672   2.182  -0.022  0.00  0.00    +0.153 C 
BRANCH  17  20
ATOM     18  C   UNL     1      -0.017   1.378   0.010  0.00  0.00    +0.003 A 
ATOM     19  C   UNL     1       1.171   2.085   0.002  0.00  0.00    +0.005 A 
ATOM     20  C   UNL     1       2.377   1.411  -0.013  0.00  0.00    -0.027 A 
ATOM     21  C   UNL     1       2.396   0.028  -0.020  0.00  0.00    +0.038 A 
ATOM     22  C   UNL     1       1.209  -0.679  -0.012  0.00  0.00    +0.127 A 
ATOM     23  C   UNL     1       0.002  -0.004   0.002  0.00  0.00    +0.033 A 
BRANCH  22  24
ATOM     24  N   UNL     1       1.229  -2.159  -0.020  0.00  0.00    +0.056 N 
ATOM     25  O   UNL     1       2.284  -2.749  -0.035  0.00  0.00    -0.126 OA
ATOM     26  O   UNL     1       0.190  -2.778  -0.013  0.00  0.00    -0.126 OA
ENDBRANCH  22  24
ENDBRANCH  17  20
ENDBRANCH   1  17
TORSDOF 3
