REMARK  Name = ZINC49507693
REMARK  6 active torsions:
REMARK  status: ('A' for Active; 'I' for Inactive)
REMARK    1  A    between atoms: C_1  and  C_2
REMARK    2  A    between atoms: C_2  and  C_26
REMARK    3  A    between atoms: C_8  and  N_17
REMARK    4  A    between atoms: N_11  and  C_14
REMARK    5  A    between atoms: C_14  and  C_15
REMARK    6  A    between atoms: C_18  and  C_20
REMARK                            x       y       z     vdW  Elec       q    Type
REMARK                         _______ _______ _______ _____ _____    ______ ____
ROOT
ATOM      1  C   UNL     1      -0.361   1.583   0.131  0.00  0.00    +0.024 C 
ATOM      2  C   UNL     1      -0.242   0.077  -0.110  0.00  0.00    +0.076 C 
ATOM      3  C   UNL     1       0.575  -0.172  -1.375  0.00  0.00    +0.244 C 
ATOM      4  O   UNL     1       1.011  -1.527  -1.429  0.00  0.00    -0.489 OA
ATOM      5  C   UNL     1       0.104  -2.486  -1.101  0.00  0.00    +0.142 A 
ATOM      6  C   UNL     1      -0.485  -3.260  -2.087  0.00  0.00    +0.049 A 
ATOM      7  C   UNL     1      -1.409  -4.230  -1.746  0.00  0.00    +0.027 A 
ATOM      8  C   UNL     1      -1.750  -4.431  -0.414  0.00  0.00    +0.036 A 
ATOM      9  C   UNL     1      -1.161  -3.659   0.578  0.00  0.00    +0.050 A 
ATOM     10  C   UNL     1      -0.234  -2.689   0.236  0.00  0.00    +0.080 A 
ATOM     11  N   UNL     1       0.380  -1.909   1.226  0.00  0.00    -0.264 N 
ATOM     12  C   UNL     1       0.430  -0.567   1.075  0.00  0.00    +0.229 C 
ATOM     13  O   UNL     1       1.015   0.116   1.890  0.00  0.00    -0.275 OA
ATOM     14  C   UNL     1      -1.640  -0.520  -0.285  0.00  0.00    +0.024 C 
ENDROOT
BRANCH   8  15
ATOM     15  N   UNL     1      -2.688  -5.413  -0.073  0.00  0.00    -0.281 N 
ATOM     16  C   UNL     1      -3.731  -5.662  -0.890  0.00  0.00    +0.255 C 
ATOM     17  O   UNL     1      -3.809  -5.098  -1.966  0.00  0.00    -0.269 OA
ATOM     18  H   UNL     1      -2.588  -5.914   0.751  0.00  0.00    +0.155 HD
BRANCH  16  19
ATOM     19  C   UNL     1      -4.769  -6.612  -0.484  0.00  0.00    +0.076 A 
ATOM     20  C   UNL     1      -5.907  -7.009  -1.171  0.00  0.00    +0.022 A 
ATOM     21  C   UNL     1      -6.702  -7.926  -0.527  0.00  0.00    +0.028 A 
ATOM     22  C   UNL     1      -6.335  -8.370   0.702  0.00  0.00    +0.079 A 
ATOM     23  S   UNL     1      -4.896  -7.563   1.018  0.00  0.00    -0.072 S 
ATOM     24 CL   UNL     1      -7.159  -9.516   1.712  0.00  0.00    -0.076 Cl
ENDBRANCH  16  19
ENDBRANCH   8  15
BRANCH  11  25
ATOM     25  C   UNL     1       0.962  -2.543   2.412  0.00  0.00    +0.140 C 
BRANCH  25  26
ATOM     26  C   UNL     1       2.405  -2.883   2.143  0.00  0.00    -0.015 C 
ATOM     27  C   UNL     1       3.342  -2.443   2.946  0.00  0.00    +0.005 C 
ENDBRANCH  25  26
ENDBRANCH  11  25
TORSDOF 4
