REMARK  Name = ZINC04618210
REMARK  7 active torsions:
REMARK  status: ('A' for Active; 'I' for Inactive)
REMARK    1  A    between atoms: C_4  and  C_7
REMARK    2  A    between atoms: C_7  and  C_8
REMARK    3  A    between atoms: C_7  and  N_63
REMARK    4  A    between atoms: C_19  and  C_21
REMARK    5  A    between atoms: C_21  and  S_22
REMARK    6  A    between atoms: S_22  and  C_23
REMARK    7  A    between atoms: N_27  and  C_28
REMARK                            x       y       z     vdW  Elec       q    Type
REMARK                         _______ _______ _______ _____ _____    ______ ____
ROOT
ATOM      1  C   UNL     1       0.115   1.073  -0.003  0.00  0.00    -0.058 C 
ATOM      2  C   UNL     1      -0.446   1.695   1.280  0.00  0.00    +0.089 C 
ATOM      3  N   UNL     1      -0.331   3.158   1.179  0.00  0.00    -0.304 N 
ATOM      4  C   UNL     1      -0.857   3.816  -0.027  0.00  0.00    +0.089 C 
ATOM      5  C   UNL     1      -0.279   3.110  -1.258  0.00  0.00    -0.058 C 
ATOM      6  C   UNL     1       0.243   3.876   2.164  0.00  0.00    +0.226 C 
ATOM      7  O   UNL     1       0.330   5.081   2.064  0.00  0.00    -0.275 OA
ATOM      8  N   UNL     1      -0.584   1.666  -1.164  0.00  0.00    +0.389 N 
ATOM      9  H   UNL     1      -1.596   1.546  -1.039  0.00  0.00    -0.080 HD
ENDROOT
BRANCH   8  10
ATOM     10  C   UNL     1      -0.170   0.981  -2.406  0.00  0.00    -0.007 C 
BRANCH  10  14
ATOM     11  C   UNL     1      -1.098  -3.175  -2.071  0.00  0.00    +0.000 A 
ATOM     12  C   UNL     1       0.115  -2.779  -2.603  0.00  0.00    +0.000 A 
ATOM     13  C   UNL     1       0.415  -1.434  -2.711  0.00  0.00    +0.002 A 
ATOM     14  C   UNL     1      -0.497  -0.485  -2.288  0.00  0.00    -0.057 A 
ATOM     15  C   UNL     1      -1.708  -0.882  -1.751  0.00  0.00    +0.002 A 
ATOM     16  C   UNL     1      -2.010  -2.227  -1.648  0.00  0.00    +0.000 A 
ENDBRANCH  10  14
BRANCH  10  17
ATOM     17  C   UNL     1      -0.927   1.573  -3.566  0.00  0.00    -0.057 A 
ATOM     18  C   UNL     1      -2.280   1.832  -3.448  0.00  0.00    +0.002 A 
ATOM     19  C   UNL     1      -2.974   2.380  -4.510  0.00  0.00    +0.000 A 
ATOM     20  C   UNL     1      -2.318   2.660  -5.694  0.00  0.00    +0.000 A 
ATOM     21  C   UNL     1      -0.966   2.396  -5.814  0.00  0.00    +0.000 A 
ATOM     22  C   UNL     1      -0.271   1.853  -4.750  0.00  0.00    +0.002 A 
ENDBRANCH  10  17
ENDBRANCH   8  10
BRANCH   6  23
ATOM     23  C   UNL     1       0.775   3.181   3.391  0.00  0.00    +0.173 C 
BRANCH  23  24
ATOM     24  S   UNL     1       1.480   4.410   4.524  0.00  0.00    -0.076 S 
BRANCH  24  25
ATOM     25  C   UNL     1       2.052   3.453   5.889  0.00  0.00    +0.198 A 
ATOM     26  N   UNL     1       1.958   2.151   6.011  0.00  0.00    -0.120 NA
ATOM     27  N   UNL     1       2.532   1.787   7.236  0.00  0.00    -0.112 NA
ATOM     28  C   UNL     1       2.953   2.878   7.827  0.00  0.00    +0.220 A 
ATOM     29  N   UNL     1       2.667   3.939   7.011  0.00  0.00    -0.259 N 
ATOM     30  N   UNL     1       3.578   2.946   9.066  0.00  0.00    -0.327 N 
ATOM     31  H   UNL     1       3.855   3.804   9.423  0.00  0.00    +0.145 HD
ATOM     32  H   UNL     1       3.738   2.135   9.573  0.00  0.00    +0.145 HD
BRANCH  29  33
ATOM     33  C   UNL     1       2.954   5.286   7.278  0.00  0.00    +0.052 A 
ATOM     34  C   UNL     1       3.863   5.973   6.485  0.00  0.00    +0.026 A 
ATOM     35  C   UNL     1       4.140   7.301   6.747  0.00  0.00    +0.002 A 
ATOM     36  C   UNL     1       3.521   7.942   7.804  0.00  0.00    +0.000 A 
ATOM     37  C   UNL     1       2.619   7.258   8.598  0.00  0.00    +0.002 A 
ATOM     38  C   UNL     1       2.334   5.932   8.338  0.00  0.00    +0.026 A 
ENDBRANCH  29  33
ENDBRANCH  24  25
ENDBRANCH  23  24
ENDBRANCH   6  23
TORSDOF 7
