REMARK  Name = ZINC09153449
REMARK  15 active torsions:
REMARK  status: ('A' for Active; 'I' for Inactive)
REMARK    1  A    between atoms: C_1  and  C_2
REMARK    2  A    between atoms: C_2  and  C_3
REMARK    3  A    between atoms: C_3  and  N_4
REMARK    4  A    between atoms: N_15  and  C_18
REMARK    5  A    between atoms: C_18  and  C_19
REMARK    6  A    between atoms: N_21  and  C_22
REMARK    7  A    between atoms: C_22  and  C_23
REMARK    8  A    between atoms: C_23  and  C_24
REMARK    9  A    between atoms: C_24  and  N_70
REMARK   10  A    between atoms: C_25  and  C_26
REMARK   11  A    between atoms: C_25  and  N_70
REMARK   12  A    between atoms: C_31  and  C_33
REMARK   13  A    between atoms: C_31  and  C_34
REMARK   14  A    between atoms: C_31  and  N_70
REMARK   15  A    between atoms: C_34  and  C_35
REMARK                            x       y       z     vdW  Elec       q    Type
REMARK                         _______ _______ _______ _____ _____    ______ ____
ROOT
ATOM      1  C   UNL     1       3.794   8.631   5.553  0.00  0.00    +0.235 C 
ATOM      2  O   UNL     1       3.989   9.502   4.732  0.00  0.00    -0.274 OA
ATOM      3  N   UNL     1       3.465   7.388   5.151  0.00  0.00    -0.314 N 
ATOM      4  H   UNL     1       3.308   6.691   5.807  0.00  0.00    +0.149 HD
ENDROOT
BRANCH   1   5
ATOM      5  C   UNL     1       3.920   8.939   7.023  0.00  0.00    +0.243 C 
BRANCH   5  17
ATOM      6  N   UNL     1       2.929  13.787   7.625  0.00  0.00    -0.336 N 
ATOM      7  C   UNL     1       3.763  14.877   7.759  0.00  0.00    +0.050 A 
ATOM      8  C   UNL     1       3.515  16.238   7.927  0.00  0.00    +0.026 A 
ATOM      9  C   UNL     1       4.568  17.118   8.035  0.00  0.00    +0.002 A 
ATOM     10  C   UNL     1       5.878  16.664   7.979  0.00  0.00    +0.001 A 
ATOM     11  C   UNL     1       6.143  15.333   7.814  0.00  0.00    +0.010 A 
ATOM     12  C   UNL     1       5.092  14.424   7.702  0.00  0.00    +0.009 A 
ATOM     13  C   UNL     1       5.024  12.967   7.522  0.00  0.00    +0.033 A 
ATOM     14  C   UNL     1       3.671  12.635   7.481  0.00  0.00    +0.118 A 
ATOM     15  C   UNL     1       3.314  11.276   7.308  0.00  0.00    +0.292 A 
ATOM     16  O   UNL     1       2.139  10.948   7.263  0.00  0.00    -0.264 OA
ATOM     17  N   UNL     1       4.284  10.347   7.198  0.00  0.00    -0.219 N 
ATOM     18  N   UNL     1       5.634  10.710   7.242  0.00  0.00    -0.175 NA
ATOM     19  C   UNL     1       5.997  11.952   7.395  0.00  0.00    +0.143 A 
BRANCH   6  20
ATOM     20  C   UNL     1       1.466  13.845   7.633  0.00  0.00    +0.122 C 
BRANCH  20  22
ATOM     21  C   UNL     1      -0.572  13.749   9.076  0.00  0.00    +0.005 C 
ATOM     22  C   UNL     1       0.957  13.688   9.067  0.00  0.00    +0.018 C 
ENDBRANCH  20  22
ENDBRANCH   6  20
ENDBRANCH   5  17
ENDBRANCH   1   5
BRANCH   3  23
ATOM     23  C   UNL     1       3.342   7.089   3.722  0.00  0.00    +0.102 C 
BRANCH  23  24
ATOM     24  C   UNL     1       2.962   5.618   3.539  0.00  0.00    +0.000 C 
BRANCH  24  25
ATOM     25  C   UNL     1       2.834   5.306   2.047  0.00  0.00    -0.076 C 
BRANCH  25  26
ATOM     26  N   UNL     1       2.325   3.927   1.893  0.00  0.00    +0.386 N 
ATOM     27  H   UNL     1       1.538   3.787   2.538  0.00  0.00    -0.081 HD
BRANCH  26  28
ATOM     28  C   UNL     1       3.390   2.955   2.217  0.00  0.00    -0.071 C 
ATOM     29  C   UNL     1       2.738   1.659   2.702  0.00  0.00    -0.013 C 
BRANCH  28  30
ATOM     30  C   UNL     1       4.243   2.665   0.980  0.00  0.00    -0.019 C 
ATOM     31  C   UNL     1       4.936   3.951   0.526  0.00  0.00    +0.002 C 
ENDBRANCH  28  30
ENDBRANCH  26  28
BRANCH  26  32
ATOM     32  C   UNL     1       1.852   3.715   0.508  0.00  0.00    -0.003 C 
BRANCH  32  33
ATOM     33  C   UNL     1       0.959   2.502   0.483  0.00  0.00    +0.089 A 
ATOM     34  C   UNL     1      -0.346   2.478   0.812  0.00  0.00    +0.042 A 
ATOM     35  C   UNL     1      -0.786   1.145   0.646  0.00  0.00    +0.041 A 
ATOM     36  C   UNL     1       0.274   0.434   0.225  0.00  0.00    +0.195 A 
ATOM     37  O   UNL     1       1.329   1.260   0.128  0.00  0.00    -0.470 OA
ENDBRANCH  32  33
ENDBRANCH  26  32
ENDBRANCH  25  26
ENDBRANCH  24  25
ENDBRANCH  23  24
ENDBRANCH   3  23
TORSDOF 12
