REMARK  Name = ZINC05092327
REMARK  4 active torsions:
REMARK  status: ('A' for Active; 'I' for Inactive)
REMARK    1  A    between atoms: C_1  and  C_2
REMARK    2  A    between atoms: C_2  and  C_27
REMARK    3  A    between atoms: C_6  and  C_16
REMARK    4  A    between atoms: C_19  and  C_22
REMARK                            x       y       z     vdW  Elec       q    Type
REMARK                         _______ _______ _______ _____ _____    ______ ____
ROOT
ATOM      1  C   UNL     1      -0.191   1.076   2.594  0.00  0.00    +0.011 C 
ATOM      2  C   UNL     1      -0.835   1.629   1.321  0.00  0.00    -0.023 C 
ATOM      3  C   UNL     1      -2.280   1.135   1.206  0.00  0.00    +0.058 C 
ATOM      4  C   UNL     1      -2.913   1.669  -0.068  0.00  0.00    +0.017 C 
ATOM      5  C   UNL     1      -2.166   1.875  -1.166  0.00  0.00    +0.036 C 
ATOM      6  C   UNL     1      -2.665   2.400  -2.491  0.00  0.00    +0.136 C 
ATOM      7  N   UNL     1      -4.106   2.441  -2.617  0.00  0.00    -0.331 N 
ATOM      8  C   UNL     1      -4.874   3.278  -1.808  0.00  0.00    +0.049 A 
ATOM      9  C   UNL     1      -5.553   4.366  -2.332  0.00  0.00    +0.025 A 
ATOM     10  C   UNL     1      -6.210   5.234  -1.477  0.00  0.00    +0.002 A 
ATOM     11  C   UNL     1      -6.191   5.018  -0.111  0.00  0.00    +0.002 A 
ATOM     12  C   UNL     1      -5.532   3.919   0.414  0.00  0.00    +0.025 A 
ATOM     13  C   UNL     1      -4.890   3.041  -0.442  0.00  0.00    +0.052 A 
ATOM     14  N   UNL     1      -4.249   1.894   0.012  0.00  0.00    -0.316 N 
ATOM     15  C   UNL     1      -0.777   1.607  -1.143  0.00  0.00    +0.163 C 
ATOM     16  O   UNL     1      -0.130   1.775  -2.158  0.00  0.00    -0.292 OA
ATOM     17  C   UNL     1      -0.075   1.121   0.090  0.00  0.00    +0.086 C 
ATOM     18  C   UNL     1      -0.812   3.159   1.350  0.00  0.00    +0.011 C 
ATOM     19  H   UNL     1      -4.612   1.807  -3.360  0.00  0.00    +0.147 HD
ATOM     20  H   UNL     1      -4.909   1.138   0.464  0.00  0.00    +0.152 HD
ENDROOT
BRANCH   6  21
ATOM     21  C   UNL     1      -2.128   3.794  -2.684  0.00  0.00    -0.023 A 
ATOM     22  C   UNL     1      -1.261   4.060  -3.730  0.00  0.00    +0.007 A 
ATOM     23  C   UNL     1      -0.770   5.336  -3.916  0.00  0.00    +0.019 A 
ATOM     24  C   UNL     1      -1.141   6.358  -3.039  0.00  0.00    +0.052 A 
ATOM     25  C   UNL     1      -2.012   6.081  -1.983  0.00  0.00    +0.019 A 
ATOM     26  C   UNL     1      -2.500   4.802  -1.813  0.00  0.00    +0.007 A 
BRANCH  24  27
ATOM     27  C   UNL     1      -0.630   7.683  -3.222  0.00  0.00    +0.099 C 
ATOM     28  N   UNL     1      -0.225   8.734  -3.368  0.00  0.00    -0.191 NA
ENDBRANCH  24  27
ENDBRANCH   6  21
TORSDOF 2
