REMARK  Name = ZINC39325086
REMARK  8 active torsions:
REMARK  status: ('A' for Active; 'I' for Inactive)
REMARK    1  A    between atoms: C_1  and  O_2
REMARK    2  A    between atoms: O_2  and  C_3
REMARK    3  A    between atoms: C_8  and  C_15
REMARK    4  A    between atoms: C_15  and  N_16
REMARK    5  A    between atoms: N_16  and  C_17
REMARK    6  A    between atoms: N_16  and  S_24
REMARK    7  A    between atoms: C_17  and  C_18
REMARK    8  A    between atoms: S_24  and  C_27
REMARK                            x       y       z     vdW  Elec       q    Type
REMARK                         _______ _______ _______ _____ _____    ______ ____
ROOT
ATOM      1  N   UNL     1      -5.624  -6.158   1.397  0.00  0.00    -0.171 NA
ENDROOT
BRANCH   1   2
ATOM      2  S   UNL     1      -6.823  -6.927   0.551  0.00  0.00    +0.062 S 
ATOM      3  O   UNL     1      -6.926  -8.237   1.093  0.00  0.00    -0.153 OA
ATOM      4  O   UNL     1      -7.926  -6.032   0.506  0.00  0.00    -0.153 OA
BRANCH   2   5
ATOM      5  C   UNL     1      -6.254  -7.111  -1.106  0.00  0.00    +0.119 A 
ATOM      6  C   UNL     1      -5.975  -8.369  -1.606  0.00  0.00    +0.029 A 
ATOM      7  C   UNL     1      -5.530  -8.514  -2.906  0.00  0.00    +0.002 A 
ATOM      8  C   UNL     1      -5.364  -7.400  -3.708  0.00  0.00    +0.001 A 
ATOM      9  C   UNL     1      -5.642  -6.141  -3.210  0.00  0.00    +0.017 A 
ATOM     10  C   UNL     1      -6.093  -5.997  -1.910  0.00  0.00    +0.044 A 
ATOM     11 BR   UNL     1      -6.481  -4.276  -1.230  0.00  0.00    -0.048 Br
ENDBRANCH   2   5
ENDBRANCH   1   2
BRANCH   1  12
ATOM     12  C   UNL     1      -5.740  -4.728   1.696  0.00  0.00    +0.126 C 
BRANCH  12  18
ATOM     13  C   UNL     1      -9.875  -1.413   4.616  0.00  0.00    +0.122 A 
ATOM     14  C   UNL     1      -8.743  -0.591   4.508  0.00  0.00    +0.046 A 
ATOM     15  C   UNL     1      -7.544  -1.092   4.125  0.00  0.00    +0.013 A 
ATOM     16  C   UNL     1      -7.435  -2.521   3.820  0.00  0.00    -0.007 A 
ATOM     17  C   UNL     1      -6.247  -3.059   3.433  0.00  0.00    -0.003 C 
ATOM     18  C   UNL     1      -6.219  -4.546   3.138  0.00  0.00    +0.114 C 
ATOM     19  C   UNL     1      -7.513  -5.311   3.296  0.00  0.00    +0.225 C 
ATOM     20  O   UNL     1      -7.547  -6.507   3.072  0.00  0.00    -0.275 OA
ATOM     21  N   UNL     1      -8.607  -4.677   3.679  0.00  0.00    -0.284 N 
ATOM     22  C   UNL     1      -8.636  -3.368   3.941  0.00  0.00    +0.044 A 
ATOM     23  C   UNL     1      -9.832  -2.764   4.349  0.00  0.00    +0.069 A 
ATOM     24  H   UNL     1      -9.427  -5.186   3.775  0.00  0.00    +0.155 HD
BRANCH  13  26
ATOM     25  C   UNL     1     -11.049   0.544   5.270  0.00  0.00    +0.277 C 
ATOM     26  O   UNL     1     -11.050  -0.860   5.003  0.00  0.00    -0.495 OA
ENDBRANCH  13  26
ENDBRANCH  12  18
ENDBRANCH   1  12
BRANCH   1  27
ATOM     27  C   UNL     1      -4.449  -6.907   1.847  0.00  0.00    +0.144 C 
BRANCH  27  28
ATOM     28  C   UNL     1      -4.673  -7.396   3.255  0.00  0.00    -0.032 A 
ATOM     29  C   UNL     1      -4.300  -6.608   4.327  0.00  0.00    +0.005 A 
ATOM     30  C   UNL     1      -4.505  -7.056   5.619  0.00  0.00    +0.000 A 
ATOM     31  C   UNL     1      -5.084  -8.293   5.837  0.00  0.00    +0.000 A 
ATOM     32  C   UNL     1      -5.457  -9.081   4.764  0.00  0.00    +0.000 A 
ATOM     33  C   UNL     1      -5.255  -8.630   3.473  0.00  0.00    +0.005 A 
ENDBRANCH  27  28
ENDBRANCH   1  27
TORSDOF 7
