REMARK  Name = ZINC20358837
REMARK  5 active torsions:
REMARK  status: ('A' for Active; 'I' for Inactive)
REMARK    1  A    between atoms: C_5  and  C_7
REMARK    2  A    between atoms: C_7  and  O_8
REMARK    3  A    between atoms: O_8  and  C_9
REMARK    4  A    between atoms: C_12  and  C_15
REMARK    5  A    between atoms: C_27  and  C_28
REMARK                            x       y       z     vdW  Elec       q    Type
REMARK                         _______ _______ _______ _____ _____    ______ ____
ROOT
ATOM      1  C   UNL     1      -0.762  -8.226  -0.057  0.00  0.00    +0.025 C 
ATOM      2  C   UNL     1      -2.023  -8.768   0.052  0.00  0.00    +0.084 A 
ATOM      3  C   UNL     1      -2.240 -10.238   0.170  0.00  0.00    +0.139 A 
ATOM      4  N   UNL     1      -1.410 -11.040   0.782  0.00  0.00    -0.383 N 
ATOM      5  N   UNL     1      -3.430 -10.677  -0.446  0.00  0.00    -0.214 N 
ATOM      6  C   UNL     1      -4.452  -9.758  -0.590  0.00  0.00    +0.199 A 
ATOM      7  N   UNL     1      -4.407  -8.479  -0.337  0.00  0.00    -0.182 NA
ATOM      8  C   UNL     1      -3.241  -7.920   0.063  0.00  0.00    +0.283 A 
ATOM      9  O   UNL     1      -3.190  -6.755   0.418  0.00  0.00    -0.265 OA
ATOM     10  S   UNL     1      -5.795 -10.742  -1.201  0.00  0.00    -0.031 S 
ATOM     11  C   UNL     1      -4.920 -12.292  -1.353  0.00  0.00    +0.101 A 
ATOM     12  N   UNL     1      -3.660 -11.957  -0.909  0.00  0.00    -0.283 N 
ATOM     13  C   UNL     1      -5.380 -13.498  -1.796  0.00  0.00    +0.102 C 
ATOM     14  H   UNL     1      -0.605 -10.685   1.190  0.00  0.00    +0.157 HD
ATOM     15  H   UNL     1      -2.944 -12.611  -0.920  0.00  0.00    +0.188 HD
ATOM     16  H   UNL     1      -1.599 -11.990   0.830  0.00  0.00    +0.157 HD
ENDROOT
BRANCH  13  17
ATOM     17  C   UNL     1      -4.519 -14.606  -1.837  0.00  0.00    +0.242 C 
ATOM     18  O   UNL     1      -3.389 -14.517  -1.390  0.00  0.00    -0.271 OA
ATOM     19  N   UNL     1      -4.943 -15.769  -2.371  0.00  0.00    -0.294 N 
ATOM     20  C   UNL     1      -4.027 -16.910  -2.524  0.00  0.00    +0.136 C 
ATOM     21  C   UNL     1      -4.695 -18.151  -1.921  0.00  0.00    +0.179 C 
ATOM     22  O   UNL     1      -6.000 -18.304  -2.485  0.00  0.00    -0.377 OA
ATOM     23  C   UNL     1      -6.891 -17.223  -2.200  0.00  0.00    +0.179 C 
ATOM     24  C   UNL     1      -6.337 -15.936  -2.813  0.00  0.00    +0.136 C 
ENDBRANCH  13  17
BRANCH   1  28
ATOM     25  C   UNL     1      -0.296  -4.113  -0.916  0.00  0.00    +0.121 A 
ATOM     26  C   UNL     1      -1.261  -4.856  -1.589  0.00  0.00    +0.046 A 
ATOM     27  C   UNL     1      -1.416  -6.186  -1.315  0.00  0.00    +0.011 A 
ATOM     28  C   UNL     1      -0.600  -6.801  -0.355  0.00  0.00    -0.024 A 
ATOM     29  C   UNL     1       0.370  -6.046   0.320  0.00  0.00    +0.011 A 
ATOM     30  C   UNL     1       0.519  -4.719   0.034  0.00  0.00    +0.046 A 
BRANCH  25  31
ATOM     31  O   UNL     1      -0.147  -2.793  -1.192  0.00  0.00    -0.487 OA
BRANCH  31  32
ATOM     32  C   UNL     1      -1.018  -2.233  -2.177  0.00  0.00    +0.267 C 
BRANCH  32  37
ATOM     33  C   UNL     1       0.579   1.162  -1.755  0.00  0.00    +0.001 A 
ATOM     34  C   UNL     1      -0.138   1.920  -2.661  0.00  0.00    +0.003 A 
ATOM     35  C   UNL     1      -1.141   1.336  -3.412  0.00  0.00    +0.039 A 
ATOM     36  C   UNL     1      -1.426  -0.010  -3.256  0.00  0.00    +0.130 A 
ATOM     37  C   UNL     1      -0.707  -0.768  -2.348  0.00  0.00    +0.025 A 
ATOM     38  C   UNL     1       0.295  -0.182  -1.599  0.00  0.00    +0.010 A 
ATOM     39  F   UNL     1      -2.406  -0.582  -3.989  0.00  0.00    -0.205 F 
ENDBRANCH  32  37
ENDBRANCH  31  32
ENDBRANCH  25  31
ENDBRANCH   1  28
TORSDOF 5
