REMARK  Name = ZINC36680915
REMARK  8 active torsions:
REMARK  status: ('A' for Active; 'I' for Inactive)
REMARK    1  A    between atoms: C_1  and  C_2
REMARK    2  A    between atoms: C_2  and  O_3
REMARK    3  A    between atoms: O_3  and  C_4
REMARK    4  A    between atoms: C_7  and  C_13
REMARK    5  A    between atoms: C_9  and  O_10
REMARK    6  A    between atoms: O_10  and  C_11
REMARK    7  A    between atoms: C_11  and  C_12
REMARK    8  A    between atoms: C_19  and  C_21
REMARK                            x       y       z     vdW  Elec       q    Type
REMARK                         _______ _______ _______ _____ _____    ______ ____
ROOT
ATOM      1  C   UNL     1       1.105  -6.019  -1.841  0.00  0.00    +0.250 A 
ATOM      2  N   UNL     1       1.687  -6.640  -2.838  0.00  0.00    -0.106 NA
ATOM      3  N   UNL     1       1.595  -7.911  -2.661  0.00  0.00    -0.092 NA
ATOM      4  C   UNL     1       0.952  -8.152  -1.544  0.00  0.00    +0.314 A 
ATOM      5  O   UNL     1       0.633  -6.963  -0.998  0.00  0.00    -0.405 OA
ATOM      6  N   UNL     1       0.660  -9.401  -1.019  0.00  0.00    -0.238 N 
ATOM      7  C   UNL     1       1.047 -10.514  -1.672  0.00  0.00    +0.233 C 
ATOM      8  O   UNL     1       1.652 -10.423  -2.720  0.00  0.00    -0.274 OA
ATOM      9  H   UNL     1       0.176  -9.473  -0.181  0.00  0.00    +0.159 HD
ENDROOT
BRANCH   7  10
ATOM     10  C   UNL     1       0.729 -11.872  -1.101  0.00  0.00    +0.142 C 
ATOM     11  C   UNL     1       1.345 -11.993   0.266  0.00  0.00    +0.011 A 
ATOM     12  C   UNL     1       0.731 -11.381   1.344  0.00  0.00    +0.008 A 
ATOM     13  C   UNL     1       1.281 -11.481   2.607  0.00  0.00    +0.001 A 
ATOM     14  C   UNL     1       2.449 -12.196   2.799  0.00  0.00    +0.004 A 
ATOM     15  C   UNL     1       3.066 -12.809   1.727  0.00  0.00    +0.046 A 
ATOM     16  C   UNL     1       2.515 -12.710   0.454  0.00  0.00    +0.133 A 
ATOM     17  O   UNL     1       3.135 -13.320  -0.585  0.00  0.00    -0.455 OA
ATOM     18  C   UNL     1       2.443 -13.605  -1.714  0.00  0.00    +0.133 A 
ATOM     19  C   UNL     1       1.268 -12.936  -2.019  0.00  0.00    +0.011 A 
ATOM     20  C   UNL     1       0.580 -13.245  -3.178  0.00  0.00    +0.008 A 
ATOM     21  C   UNL     1       1.059 -14.220  -4.033  0.00  0.00    +0.001 A 
ATOM     22  C   UNL     1       2.230 -14.890  -3.731  0.00  0.00    +0.004 A 
ATOM     23  C   UNL     1       2.922 -14.584  -2.576  0.00  0.00    +0.046 A 
ENDBRANCH   7  10
BRANCH   1  27
ATOM     24  C   UNL     1       0.777  -1.810  -1.336  0.00  0.00    +0.162 A 
ATOM     25  C   UNL     1       0.242  -2.667  -0.385  0.00  0.00    +0.050 A 
ATOM     26  C   UNL     1       0.346  -4.032  -0.545  0.00  0.00    +0.017 A 
ATOM     27  C   UNL     1       0.991  -4.556  -1.667  0.00  0.00    +0.042 A 
ATOM     28  C   UNL     1       1.530  -3.695  -2.625  0.00  0.00    +0.062 A 
ATOM     29  C   UNL     1       1.417  -2.326  -2.461  0.00  0.00    +0.163 A 
BRANCH  24  30
ATOM     30  O   UNL     1       0.671  -0.465  -1.174  0.00  0.00    -0.489 OA
BRANCH  30  32
ATOM     31  C   UNL     1      -0.019   1.526   0.010  0.00  0.00    +0.048 C 
ATOM     32  C   UNL     1       0.002  -0.004   0.002  0.00  0.00    +0.226 C 
ENDBRANCH  30  32
ENDBRANCH  24  30
BRANCH  29  33
ATOM     33  O   UNL     1       1.936  -1.484  -3.394  0.00  0.00    -0.489 OA
BRANCH  33  34
ATOM     34  C   UNL     1       2.579  -2.082  -4.521  0.00  0.00    +0.226 C 
ATOM     35  C   UNL     1       3.095  -0.986  -5.455  0.00  0.00    +0.048 C 
ENDBRANCH  33  34
ENDBRANCH  29  33
ENDBRANCH   1  27
TORSDOF 6
