REMARK  Name = ZINC23259728
REMARK  11 active torsions:
REMARK  status: ('A' for Active; 'I' for Inactive)
REMARK    1  A    between atoms: C_1  and  C_2
REMARK    2  A    between atoms: C_2  and  C_4
REMARK    3  A    between atoms: C_2  and  N_14
REMARK    4  A    between atoms: C_7  and  S_10
REMARK    5  A    between atoms: S_10  and  N_13
REMARK    6  A    between atoms: N_14  and  C_15
REMARK    7  A    between atoms: N_14  and  C_16
REMARK    8  A    between atoms: C_16  and  C_17
REMARK    9  A    between atoms: N_19  and  C_20
REMARK   10  A    between atoms: C_20  and  C_22
REMARK   11  A    between atoms: C_20  and  C_23
REMARK                            x       y       z     vdW  Elec       q    Type
REMARK                         _______ _______ _______ _____ _____    ______ ____
ROOT
ATOM      1  N   UNL     1      -2.247   3.803   5.824  0.00  0.00    +0.388 N 
ATOM      2  C   UNL     1      -1.067   2.999   6.171  0.00  0.00    -0.095 C 
ATOM      3  H   UNL     1      -1.898   4.709   5.307  0.00  0.00    -0.081 HD
ENDROOT
BRANCH   1   5
ATOM      4  C   UNL     1      -4.294   3.974   4.490  0.00  0.00    -0.008 C 
ATOM      5  C   UNL     1      -3.131   3.072   4.906  0.00  0.00    -0.041 C 
BRANCH   5   6
ATOM      6  C   UNL     1      -2.353   2.659   3.683  0.00  0.00    -0.061 A 
ATOM      7  C   UNL     1      -2.559   1.412   3.122  0.00  0.00    +0.004 A 
ATOM      8  C   UNL     1      -1.846   1.033   2.000  0.00  0.00    +0.029 A 
ATOM      9  C   UNL     1      -0.927   1.900   1.439  0.00  0.00    +0.105 A 
ATOM     10  C   UNL     1      -0.717   3.145   2.004  0.00  0.00    +0.029 A 
ATOM     11  C   UNL     1      -1.434   3.526   3.123  0.00  0.00    +0.004 A 
BRANCH   9  12
ATOM     12  S   UNL     1      -0.017   1.417   0.010  0.00  0.00    +0.056 S 
ATOM     13  O   UNL     1       0.002  -0.004   0.002  0.00  0.00    -0.153 OA
ATOM     14  O   UNL     1       1.172   2.195   0.003  0.00  0.00    -0.153 OA
BRANCH  12  15
ATOM     15  N   UNL     1      -0.897   1.885  -1.312  0.00  0.00    -0.204 NA
ATOM     16  H   UNL     1      -0.361   1.601  -2.229  0.00  0.00    +0.144 HD
ATOM     17  H   UNL     1      -1.036   2.977  -1.292  0.00  0.00    +0.144 HD
ENDBRANCH  12  15
ENDBRANCH   9  12
ENDBRANCH   5   6
ENDBRANCH   1   5
BRANCH   1  18
ATOM     18  C   UNL     1      -2.972   4.223   7.031  0.00  0.00    +0.019 C 
BRANCH  18  19
ATOM     19  C   UNL     1      -2.114   5.171   7.828  0.00  0.00    +0.197 C 
ATOM     20  O   UNL     1      -1.008   5.468   7.430  0.00  0.00    -0.278 OA
ATOM     21  N   UNL     1      -2.577   5.689   8.983  0.00  0.00    -0.310 N 
ATOM     22  H   UNL     1      -3.580   5.419   9.344  0.00  0.00    +0.149 HD
BRANCH  21  23
ATOM     23  C   UNL     1      -1.743   6.611   9.758  0.00  0.00    +0.101 C 
ATOM     24  C   UNL     1      -0.804   5.811  10.663  0.00  0.00    +0.033 C 
BRANCH  23  25
ATOM     25  C   UNL     1      -2.623   7.495  10.604  0.00  0.00    -0.009 A 
ATOM     26  C   UNL     1      -3.886   7.065  10.969  0.00  0.00    +0.008 A 
ATOM     27  C   UNL     1      -4.691   7.873  11.749  0.00  0.00    +0.020 A 
ATOM     28  C   UNL     1      -4.240   9.116  12.155  0.00  0.00    +0.042 A 
ATOM     29  C   UNL     1      -2.979   9.548  11.785  0.00  0.00    +0.040 A 
ATOM     30  C   UNL     1      -2.171   8.737  11.009  0.00  0.00    +0.047 A 
ATOM     31 CL   UNL     1      -0.588   9.279  10.543  0.00  0.00    -0.083 Cl
ATOM     32 CL   UNL     1      -5.255  10.133  13.130  0.00  0.00    -0.083 Cl
ENDBRANCH  23  25
ENDBRANCH  21  23
ENDBRANCH  18  19
ENDBRANCH   1  18
TORSDOF 8
