REMARK  Name = ZINC13098091
REMARK  6 active torsions:
REMARK  status: ('A' for Active; 'I' for Inactive)
REMARK    1  A    between atoms: C_1  and  O_2
REMARK    2  A    between atoms: O_2  and  C_3
REMARK    3  A    between atoms: C_8  and  C_9
REMARK    4  A    between atoms: N_11  and  C_22
REMARK    5  A    between atoms: N_14  and  C_15
REMARK    6  A    between atoms: C_22  and  N_61
REMARK                            x       y       z     vdW  Elec       q    Type
REMARK                         _______ _______ _______ _____ _____    ______ ____
ROOT
ATOM      1  C   UNL     1      -3.675   7.235  -3.448  0.00  0.00    +0.171 A 
ATOM      2  N   UNL     1      -4.180   6.068  -3.159  0.00  0.00    -0.152 NA
ATOM      3  N   UNL     1      -3.253   5.088  -3.540  0.00  0.00    -0.257 N 
ATOM      4  C   UNL     1      -2.188   5.721  -4.073  0.00  0.00    +0.181 A 
ATOM      5  S   UNL     1      -0.779   4.976  -4.698  0.00  0.00    -0.011 S 
ATOM      6  N   UNL     1      -2.432   7.045  -4.024  0.00  0.00    -0.271 N 
ENDROOT
BRANCH   6   7
ATOM      7  C   UNL     1      -1.574   8.056  -4.478  0.00  0.00    +0.051 A 
ATOM      8  C   UNL     1      -0.995   8.935  -3.572  0.00  0.00    +0.028 A 
ATOM      9  C   UNL     1      -0.146   9.927  -4.022  0.00  0.00    +0.022 A 
ATOM     10  C   UNL     1       0.119  10.053  -5.374  0.00  0.00    +0.041 A 
ATOM     11  C   UNL     1      -0.461   9.181  -6.279  0.00  0.00    +0.022 A 
ATOM     12  C   UNL     1      -1.307   8.184  -5.834  0.00  0.00    +0.028 A 
ATOM     13 CL   UNL     1       1.182  11.305  -5.936  0.00  0.00    -0.084 Cl
ENDBRANCH   6   7
BRANCH   1  19
ATOM     14  C   UNL     1      -4.908   8.819  -1.966  0.00  0.00    +0.131 A 
ATOM     15  C   UNL     1      -5.510  10.048  -1.748  0.00  0.00    +0.046 A 
ATOM     16  C   UNL     1      -5.543  10.991  -2.757  0.00  0.00    +0.004 A 
ATOM     17  C   UNL     1      -4.973  10.719  -3.988  0.00  0.00    +0.001 A 
ATOM     18  C   UNL     1      -4.365   9.502  -4.219  0.00  0.00    +0.015 A 
ATOM     19  C   UNL     1      -4.325   8.542  -3.208  0.00  0.00    +0.061 A 
BRANCH  14  21
ATOM     20  C   UNL     1      -5.494   8.242   0.264  0.00  0.00    +0.277 C 
ATOM     21  O   UNL     1      -4.879   7.889  -0.976  0.00  0.00    -0.494 OA
ENDBRANCH  14  21
ENDBRANCH   1  19
BRANCH   3  22
ATOM     22  C   UNL     1      -3.416   3.640  -3.392  0.00  0.00    +0.072 C 
BRANCH  22  32
ATOM     23  C   UNL     1      -3.677   3.773  -0.989  0.00  0.00    -0.076 C 
ATOM     24  C   UNL     1      -3.013   3.432   0.347  0.00  0.00    -0.015 C 
ATOM     25  C   UNL     1      -2.902   1.912   0.481  0.00  0.00    -0.011 C 
ATOM     26  C   UNL     1      -2.202   1.559   1.793  0.00  0.00    +0.004 C 
ATOM     27  C   UNL     1      -0.803   2.180   1.801  0.00  0.00    +0.000 C 
ATOM     28  C   UNL     1       0.002   1.606   0.633  0.00  0.00    +0.000 C 
ATOM     29  C   UNL     1      -0.691   1.959  -0.684  0.00  0.00    +0.002 C 
ATOM     30  C   UNL     1      -2.100   1.360  -0.700  0.00  0.00    -0.025 C 
ATOM     31  C   UNL     1      -2.794   1.744  -2.010  0.00  0.00    -0.073 C 
ATOM     32  N   UNL     1      -2.851   3.230  -2.091  0.00  0.00    +0.393 N 
ATOM     33  H   UNL     1      -1.899   3.604  -2.007  0.00  0.00    -0.079 HD
ENDBRANCH  22  32
ENDBRANCH   3  22
TORSDOF 5
