REMARK  Name = ZINC36718265
REMARK  11 active torsions:
REMARK  status: ('A' for Active; 'I' for Inactive)
REMARK    1  A    between atoms: C_1  and  C_2
REMARK    2  A    between atoms: C_5  and  S_8
REMARK    3  A    between atoms: S_8  and  C_11
REMARK    4  A    between atoms: C_11  and  C_12
REMARK    5  A    between atoms: C_12  and  C_13
REMARK    6  A    between atoms: C_13  and  C_14
REMARK    7  A    between atoms: N_16  and  C_17
REMARK    8  A    between atoms: C_17  and  C_18
REMARK    9  A    between atoms: C_18  and  N_19
REMARK   10  A    between atoms: N_19  and  C_20
REMARK   11  A    between atoms: N_19  and  C_21
REMARK                            x       y       z     vdW  Elec       q    Type
REMARK                         _______ _______ _______ _____ _____    ______ ____
ROOT
ATOM      1  C   UNL     1       3.587  -8.372  -0.063  0.00  0.00    +0.221 C 
ATOM      2  O   UNL     1       2.597  -9.073  -0.062  0.00  0.00    -0.275 OA
ATOM      3  N   UNL     1       4.811  -8.934  -0.073  0.00  0.00    -0.252 N 
ATOM      4  C   UNL     1       4.940 -10.314  -0.081  0.00  0.00    +0.168 A 
ATOM      5  N   UNL     1       6.034 -11.039  -0.086  0.00  0.00    -0.224 NA
ATOM      6  C   UNL     1       6.010 -12.389  -0.094  0.00  0.00    +0.080 A 
ATOM      7  C   UNL     1       7.107 -13.282  -0.099  0.00  0.00    +0.030 A 
ATOM      8  C   UNL     1       6.907 -14.637  -0.108  0.00  0.00    +0.017 A 
ATOM      9  C   UNL     1       5.630 -15.182  -0.112  0.00  0.00    +0.019 A 
ATOM     10  C   UNL     1       4.534 -14.338  -0.106  0.00  0.00    +0.032 A 
ATOM     11  C   UNL     1       4.726 -12.979  -0.097  0.00  0.00    +0.042 A 
ATOM     12  S   UNL     1       3.658 -11.559  -0.081  0.00  0.00    -0.052 S 
ATOM     13 BR   UNL     1       5.392 -17.058  -0.126  0.00  0.00    -0.050 Br
ENDROOT
BRANCH   1  14
ATOM     14  C   UNL     1       3.447  -6.871  -0.054  0.00  0.00    +0.098 C 
BRANCH  14  15
ATOM     15  C   UNL     1       1.964  -6.497  -0.044  0.00  0.00    +0.032 C 
BRANCH  15  16
ATOM     16  C   UNL     1       1.822  -4.974  -0.035  0.00  0.00    +0.172 C 
BRANCH  16  17
ATOM     17  S   UNL     1       0.063  -4.530  -0.023  0.00  0.00    -0.003 S 
ATOM     18  O   UNL     1      -0.528  -4.907   1.213  0.00  0.00    -0.169 OA
ATOM     19  O   UNL     1      -0.542  -4.894  -1.256  0.00  0.00    -0.169 OA
BRANCH  17  24
ATOM     20  C   UNL     1      -0.018   1.503   0.010  0.00  0.00    +0.044 C 
ATOM     21  C   UNL     1       0.002  -0.004   0.002  0.00  0.00    -0.050 A 
ATOM     22  C   UNL     1       0.006  -0.689  -1.199  0.00  0.00    +0.005 A 
ATOM     23  C   UNL     1       0.025  -2.071  -1.206  0.00  0.00    +0.027 A 
ATOM     24  C   UNL     1       0.040  -2.768  -0.013  0.00  0.00    +0.088 A 
ATOM     25  C   UNL     1       0.037  -2.084   1.188  0.00  0.00    +0.027 A 
ATOM     26  C   UNL     1       0.023  -0.702   1.195  0.00  0.00    +0.005 A 
ENDBRANCH  17  24
ENDBRANCH  16  17
ENDBRANCH  15  16
ENDBRANCH  14  15
ENDBRANCH   1  14
BRANCH   3  27
ATOM     27  C   UNL     1       6.007  -8.087  -0.075  0.00  0.00    +0.097 C 
BRANCH  27  28
ATOM     28  C   UNL     1       6.431  -7.800   1.367  0.00  0.00    -0.060 C 
BRANCH  28  29
ATOM     29  N   UNL     1       7.629  -6.951   1.365  0.00  0.00    +0.377 N 
ATOM     30  C   UNL     1       7.300  -5.641   0.788  0.00  0.00    -0.097 C 
ATOM     31  C   UNL     1       8.106  -6.774   2.743  0.00  0.00    -0.097 C 
ATOM     32  H   UNL     1       8.351  -7.389   0.812  0.00  0.00    -0.083 HD
ENDBRANCH  28  29
ENDBRANCH  27  28
ENDBRANCH   3  27
TORSDOF 8
