REMARK  Name = ZINC64097993
REMARK  11 active torsions:
REMARK  status: ('A' for Active; 'I' for Inactive)
REMARK    1  A    between atoms: C_1  and  O_2
REMARK    2  A    between atoms: O_2  and  C_3
REMARK    3  A    between atoms: C_5  and  C_16
REMARK    4  A    between atoms: C_6  and  O_14
REMARK    5  A    between atoms: C_8  and  N_9
REMARK    6  A    between atoms: O_14  and  C_15
REMARK    7  A    between atoms: C_17  and  C_18
REMARK    8  A    between atoms: C_17  and  C_20
REMARK    9  A    between atoms: N_22  and  C_23
REMARK   10  A    between atoms: C_23  and  C_24
REMARK   11  A    between atoms: C_24  and  C_25
REMARK                            x       y       z     vdW  Elec       q    Type
REMARK                         _______ _______ _______ _____ _____    ______ ____
ROOT
ATOM      1  C   UNL     1      -4.808   0.194   0.038  0.00  0.00    +0.035 C 
ATOM      2  C   UNL     1      -4.761   1.570   0.144  0.00  0.00    +0.114 C 
ENDROOT
BRANCH   1   5
ATOM      3  C   UNL     1      -1.369  -0.877   0.888  0.00  0.00    +0.142 A 
ATOM      4  C   UNL     1      -2.530  -0.139   0.862  0.00  0.00    +0.059 A 
ATOM      5  C   UNL     1      -3.610  -0.561   0.068  0.00  0.00    +0.022 A 
ATOM      6  C   UNL     1      -3.495  -1.738  -0.698  0.00  0.00    +0.129 A 
ATOM      7  C   UNL     1      -2.323  -2.469  -0.663  0.00  0.00    +0.073 A 
ATOM      8  C   UNL     1      -1.258  -2.042   0.121  0.00  0.00    +0.075 A 
BRANCH   8   9
ATOM      9  N   UNL     1      -0.079  -2.779   0.147  0.00  0.00    -0.327 N 
ATOM     10  C   UNL     1       0.223  -3.880   1.074  0.00  0.00    +0.105 C 
ATOM     11  C   UNL     1       1.648  -4.375   0.749  0.00  0.00    +0.020 C 
ATOM     12  C   UNL     1       2.285  -3.155   0.033  0.00  0.00    +0.020 C 
ATOM     13  C   UNL     1       1.073  -2.590  -0.753  0.00  0.00    +0.105 C 
ENDBRANCH   8   9
BRANCH   3  15
ATOM     14  C   UNL     1      -0.503   0.729   2.415  0.00  0.00    +0.277 C 
ATOM     15  O   UNL     1      -0.323  -0.469   1.657  0.00  0.00    -0.493 OA
ENDBRANCH   3  15
BRANCH   6  16
ATOM     16  O   UNL     1      -4.533  -2.152  -1.467  0.00  0.00    -0.494 OA
ATOM     17  C   UNL     1      -4.345  -3.354  -2.217  0.00  0.00    +0.277 C 
ENDBRANCH   6  16
ENDBRANCH   1   5
BRANCH   2  18
ATOM     18  C   UNL     1      -6.006   2.341   0.265  0.00  0.00    +0.254 C 
ATOM     19  O   UNL     1      -7.079   1.768   0.272  0.00  0.00    -0.269 OA
ATOM     20  N   UNL     1      -5.959   3.684   0.369  0.00  0.00    -0.310 N 
ATOM     21  H   UNL     1      -5.104   4.142   0.363  0.00  0.00    +0.149 HD
BRANCH  20  22
ATOM     22  C   UNL     1      -7.200   4.453   0.489  0.00  0.00    +0.109 C 
BRANCH  22  23
ATOM     23  C   UNL     1      -6.869   5.944   0.591  0.00  0.00    +0.052 C 
BRANCH  23  24
ATOM     24  C   UNL     1      -8.146   6.734   0.715  0.00  0.00    -0.040 C 
ATOM     25  C   UNL     1      -8.730   7.161   1.858  0.00  0.00    -0.001 A 
ATOM     26  C   UNL     1      -8.366   7.021   3.273  0.00  0.00    +0.010 A 
ATOM     27  C   UNL     1      -9.169   7.569   4.214  0.00  0.00    +0.001 A 
ATOM     28  C   UNL     1     -10.336   8.265   3.872  0.00  0.00    +0.002 A 
ATOM     29  C   UNL     1     -10.736   8.436   2.594  0.00  0.00    +0.026 A 
ATOM     30  C   UNL     1      -9.968   7.901   1.523  0.00  0.00    +0.043 A 
ATOM     31  N   UNL     1     -10.142   7.931   0.224  0.00  0.00    -0.380 N 
ATOM     32  C   UNL     1      -9.030   7.217  -0.413  0.00  0.00    +0.144 C 
ATOM     33  H   UNL     1     -10.881   8.357  -0.238  0.00  0.00    +0.160 HD
ENDBRANCH  23  24
ENDBRANCH  22  23
ENDBRANCH  20  22
ENDBRANCH   2  18
BRANCH   2  34
ATOM     34  C   UNL     1      -3.498   2.246   0.136  0.00  0.00    +0.104 C 
ATOM     35  N   UNL     1      -2.496   2.782   0.129  0.00  0.00    -0.191 NA
ENDBRANCH   2  34
TORSDOF 9
