REMARK  Name = ZINC38903902
REMARK  13 active torsions:
REMARK  status: ('A' for Active; 'I' for Inactive)
REMARK    1  A    between atoms: C_1  and  C_2
REMARK    2  A    between atoms: C_2  and  C_4
REMARK    3  A    between atoms: C_2  and  N_14
REMARK    4  A    between atoms: C_7  and  S_10
REMARK    5  A    between atoms: S_10  and  C_13
REMARK    6  A    between atoms: C_15  and  C_17
REMARK    7  A    between atoms: N_22  and  C_24
REMARK    8  A    between atoms: C_24  and  C_25
REMARK    9  A    between atoms: C_27  and  C_30
REMARK   10  A    between atoms: C_33  and  C_36
REMARK   11  A    between atoms: C_36  and  C_37
REMARK   12  A    between atoms: C_36  and  C_38
REMARK   13  A    between atoms: C_36  and  C_39
REMARK                            x       y       z     vdW  Elec       q    Type
REMARK                         _______ _______ _______ _____ _____    ______ ____
ROOT
ATOM      1  C   UNL     1      -3.465  -1.164  -1.134  0.00  0.00    +0.058 C 
ATOM      2  C   UNL     1      -3.486  -2.573  -0.533  0.00  0.00    +0.009 C 
ATOM      3  C   UNL     1      -4.913  -3.124  -0.599  0.00  0.00    -0.018 C 
ATOM      4  C   UNL     1      -5.395  -3.106  -2.051  0.00  0.00    -0.078 C 
ATOM      5  N   UNL     1      -5.376  -1.729  -2.559  0.00  0.00    +0.386 N 
ATOM      6  C   UNL     1      -4.000  -1.218  -2.566  0.00  0.00    -0.065 C 
ATOM      7  H   UNL     1      -5.947  -1.145  -1.966  0.00  0.00    -0.081 HD
ENDROOT
BRANCH   1   9
ATOM      8  N   UNL     1      -1.372  -0.511   0.012  0.00  0.00    -0.309 N 
ATOM      9  C   UNL     1      -2.051  -0.643  -1.145  0.00  0.00    +0.215 C 
ATOM     10  O   UNL     1      -1.524  -0.341  -2.194  0.00  0.00    -0.276 OA
ATOM     11  H   UNL     1      -1.794  -0.752   0.852  0.00  0.00    +0.149 HD
BRANCH   8  13
ATOM     12  C   UNL     1      -0.019   1.526   0.010  0.00  0.00    +0.033 C 
ATOM     13  C   UNL     1       0.002  -0.004   0.002  0.00  0.00    +0.100 C 
BRANCH  13  14
ATOM     14  C   UNL     1       0.731  -0.503   1.223  0.00  0.00    -0.027 A 
ATOM     15  C   UNL     1       0.081  -0.558   2.442  0.00  0.00    +0.007 A 
ATOM     16  C   UNL     1       0.749  -1.016   3.562  0.00  0.00    +0.027 A 
ATOM     17  C   UNL     1       2.068  -1.420   3.463  0.00  0.00    +0.088 A 
ATOM     18  C   UNL     1       2.718  -1.365   2.244  0.00  0.00    +0.027 A 
ATOM     19  C   UNL     1       2.048  -0.911   1.123  0.00  0.00    +0.007 A 
BRANCH  17  20
ATOM     20  S   UNL     1       2.921  -2.002   4.890  0.00  0.00    -0.006 S 
ATOM     21  O   UNL     1       4.292  -1.740   4.626  0.00  0.00    -0.170 OA
ATOM     22  O   UNL     1       2.262  -1.380   5.985  0.00  0.00    -0.170 OA
ATOM     23  C   UNL     1       2.620  -3.791   4.915  0.00  0.00    +0.200 C 
ENDBRANCH  17  20
ENDBRANCH  13  14
ENDBRANCH   8  13
ENDBRANCH   1   9
BRANCH   5  24
ATOM     24  C   UNL     1      -5.913  -1.706  -3.926  0.00  0.00    +0.022 C 
BRANCH  24  25
ATOM     25  C   UNL     1      -7.366  -2.103  -3.903  0.00  0.00    +0.211 A 
ATOM     26  N   UNL     1      -8.376  -1.291  -3.771  0.00  0.00    -0.193 NA
ATOM     27  C   UNL     1      -9.529  -1.982  -3.792  0.00  0.00    +0.202 A 
ATOM     28  N   UNL     1      -9.252  -3.254  -3.940  0.00  0.00    -0.056 NA
ATOM     29  O   UNL     1      -7.838  -3.352  -4.019  0.00  0.00    -0.340 OA
BRANCH  27  30
ATOM     30  C   UNL     1     -10.889  -1.401  -3.668  0.00  0.00    +0.022 A 
ATOM     31  C   UNL     1     -11.051  -0.025  -3.520  0.00  0.00    +0.012 A 
ATOM     32  C   UNL     1     -12.318   0.510  -3.405  0.00  0.00    +0.005 A 
ATOM     33  C   UNL     1     -13.426  -0.317  -3.437  0.00  0.00    -0.042 A 
ATOM     34  C   UNL     1     -13.271  -1.684  -3.584  0.00  0.00    +0.005 A 
ATOM     35  C   UNL     1     -12.009  -2.229  -3.706  0.00  0.00    +0.012 A 
BRANCH  33  36
ATOM     36  C   UNL     1     -14.807   0.273  -3.310  0.00  0.00    -0.013 C 
ATOM     37  C   UNL     1     -15.047   1.259  -4.455  0.00  0.00    +0.015 C 
ATOM     38  C   UNL     1     -15.848  -0.847  -3.375  0.00  0.00    +0.015 C 
ATOM     39  C   UNL     1     -14.928   1.005  -1.972  0.00  0.00    +0.015 C 
ENDBRANCH  33  36
ENDBRANCH  27  30
ENDBRANCH  24  25
ENDBRANCH   5  24
TORSDOF 8
