REMARK  Name = ZINC14848050
REMARK  6 active torsions:
REMARK  status: ('A' for Active; 'I' for Inactive)
REMARK    1  A    between atoms: C_1  and  C_2
REMARK    2  A    between atoms: C_5  and  N_9
REMARK    3  A    between atoms: C_10  and  C_12
REMARK    4  A    between atoms: C_12  and  C_13
REMARK    5  A    between atoms: C_14  and  C_24
REMARK    6  A    between atoms: C_16  and  C_18
REMARK                            x       y       z     vdW  Elec       q    Type
REMARK                         _______ _______ _______ _____ _____    ______ ____
ROOT
ATOM      1  C   UNL     1       3.744  -0.963   0.176  0.00  0.00    +0.155 C 
ENDROOT
BRANCH   1   2
ATOM      2  C   UNL     1       3.495  -2.447   0.271  0.00  0.00    +0.091 A 
ATOM      3  C   UNL     1       3.331  -3.152   1.405  0.00  0.00    +0.126 A 
ATOM      4  O   UNL     1       3.131  -4.437   1.051  0.00  0.00    -0.440 OA
ATOM      5  C   UNL     1       3.183  -4.505  -0.290  0.00  0.00    +0.228 A 
ATOM      6  N   UNL     1       3.403  -3.300  -0.761  0.00  0.00    -0.213 NA
ATOM      7  C   UNL     1       3.363  -2.606   2.809  0.00  0.00    +0.088 C 
BRANCH   5   8
ATOM      8  C   UNL     1       3.020  -5.731  -1.100  0.00  0.00    +0.037 A 
ATOM      9  C   UNL     1       3.091  -5.666  -2.492  0.00  0.00    +0.013 A 
ATOM     10  C   UNL     1       2.943  -6.815  -3.242  0.00  0.00    +0.001 A 
ATOM     11  C   UNL     1       2.714  -8.027  -2.616  0.00  0.00    +0.000 A 
ATOM     12  C   UNL     1       2.637  -8.098  -1.237  0.00  0.00    +0.001 A 
ATOM     13  C   UNL     1       2.788  -6.957  -0.475  0.00  0.00    +0.013 A 
ENDBRANCH   5   8
ENDBRANCH   1   2
BRANCH   1  15
ATOM     14  N   UNL     1       2.403   1.106  -0.015  0.00  0.00    -0.284 N 
ATOM     15  C   UNL     1       2.426  -0.238   0.079  0.00  0.00    +0.223 C 
ATOM     16  O   UNL     1       1.388  -0.864   0.086  0.00  0.00    -0.275 OA
ATOM     17  H   UNL     1       3.233   1.602  -0.086  0.00  0.00    +0.155 HD
BRANCH  14  22
ATOM     18  C   UNL     1      -2.556   3.864   0.001  0.00  0.00    +0.044 C 
ATOM     19  C   UNL     1      -1.239   3.132  -0.002  0.00  0.00    -0.049 A 
ATOM     20  C   UNL     1      -1.141   1.892  -0.607  0.00  0.00    +0.005 A 
ATOM     21  C   UNL     1       0.064   1.216  -0.608  0.00  0.00    +0.024 A 
ATOM     22  C   UNL     1       1.179   1.786  -0.010  0.00  0.00    +0.047 A 
ATOM     23  C   UNL     1       1.079   3.034   0.592  0.00  0.00    +0.039 A 
ATOM     24  C   UNL     1      -0.130   3.703   0.594  0.00  0.00    +0.020 A 
ATOM     25 BR   UNL     1       2.595   3.817   1.407  0.00  0.00    -0.048 Br
ENDBRANCH  14  22
ENDBRANCH   1  15
TORSDOF 4
