REMARK  Name = ZINC13475849
REMARK  9 active torsions:
REMARK  status: ('A' for Active; 'I' for Inactive)
REMARK    1  A    between atoms: C_1  and  C_2
REMARK    2  A    between atoms: C_2  and  O_3
REMARK    3  A    between atoms: O_3  and  C_4
REMARK    4  A    between atoms: C_7  and  N_10
REMARK    5  A    between atoms: C_14  and  S_18
REMARK    6  A    between atoms: S_18  and  C_19
REMARK    7  A    between atoms: N_21  and  N_22
REMARK    8  A    between atoms: C_23  and  C_24
REMARK    9  A    between atoms: C_33  and  O_34
REMARK                            x       y       z     vdW  Elec       q    Type
REMARK                         _______ _______ _______ _____ _____    ______ ____
ROOT
ATOM      1  C   UNL     1       3.777  -8.483  -4.506  0.00  0.00    +0.146 C 
ATOM      2  N   UNL     1       2.967  -7.933  -5.368  0.00  0.00    -0.380 N 
ATOM      3  N   UNL     1       5.026  -8.902  -4.905  0.00  0.00    -0.217 N 
ATOM      4  H   UNL     1       3.245  -7.819  -6.290  0.00  0.00    +0.158 HD
ATOM      5  H   UNL     1       5.628  -9.311  -4.264  0.00  0.00    +0.176 HD
ATOM      6  H   UNL     1       2.087  -7.638  -5.087  0.00  0.00    +0.158 HD
ENDROOT
BRANCH   3   7
ATOM      7  N   UNL     1       5.428  -8.737  -6.237  0.00  0.00    -0.188 NA
ATOM      8  C   UNL     1       6.607  -9.132  -6.613  0.00  0.00    +0.142 C 
BRANCH   8   9
ATOM      9  C   UNL     1       7.028  -8.960  -8.011  0.00  0.00    +0.044 A 
ATOM     10  C   UNL     1       8.349  -9.404  -8.453  0.00  0.00    -0.006 A 
ATOM     11  C   UNL     1       9.252 -10.005  -7.568  0.00  0.00    +0.009 A 
ATOM     12  C   UNL     1      10.473 -10.406  -8.021  0.00  0.00    +0.001 A 
ATOM     13  C   UNL     1      10.837 -10.226  -9.353  0.00  0.00    +0.001 A 
ATOM     14  C   UNL     1       9.983  -9.645 -10.240  0.00  0.00    +0.008 A 
ATOM     15  C   UNL     1       8.715  -9.219  -9.809  0.00  0.00    -0.017 A 
ATOM     16  C   UNL     1       7.807  -8.616 -10.696  0.00  0.00    +0.012 A 
ATOM     17  C   UNL     1       6.583  -8.208 -10.268  0.00  0.00    +0.046 A 
ATOM     18  C   UNL     1       6.175  -8.373  -8.945  0.00  0.00    +0.126 A 
BRANCH  18  19
ATOM     19  O   UNL     1       4.941  -7.956  -8.563  0.00  0.00    -0.506 OA
ATOM     20  H   UNL     1       4.913  -7.040  -8.254  0.00  0.00    +0.292 HD
ENDBRANCH  18  19
ENDBRANCH   8   9
ENDBRANCH   3   7
BRANCH   1  21
ATOM     21  S   UNL     1       3.272  -8.690  -2.830  0.00  0.00    -0.078 S 
BRANCH  21  26
ATOM     22  N   UNL     1       1.101  -5.940  -1.835  0.00  0.00    -0.209 N 
ATOM     23  C   UNL     1       0.688  -6.816  -0.911  0.00  0.00    +0.228 C 
ATOM     24  O   UNL     1       0.184  -6.528   0.153  0.00  0.00    -0.275 OA
ATOM     25  C   UNL     1       0.951  -8.222  -1.405  0.00  0.00    +0.120 C 
ATOM     26  C   UNL     1       1.593  -8.004  -2.790  0.00  0.00    +0.149 C 
ATOM     27  C   UNL     1       1.621  -6.498  -2.935  0.00  0.00    +0.240 C 
ATOM     28  O   UNL     1       2.049  -5.893  -3.895  0.00  0.00    -0.274 OA
BRANCH  22  32
ATOM     29  C   UNL     1       0.775  -1.811  -1.336  0.00  0.00    +0.121 A 
ATOM     30  C   UNL     1       0.015  -2.454  -2.301  0.00  0.00    +0.047 A 
ATOM     31  C   UNL     1       0.122  -3.821  -2.467  0.00  0.00    +0.027 A 
ATOM     32  C   UNL     1       0.992  -4.551  -1.668  0.00  0.00    +0.044 A 
ATOM     33  C   UNL     1       1.752  -3.906  -0.702  0.00  0.00    +0.027 A 
ATOM     34  C   UNL     1       1.648  -2.539  -0.540  0.00  0.00    +0.047 A 
BRANCH  29  35
ATOM     35  O   UNL     1       0.669  -0.465  -1.173  0.00  0.00    -0.492 OA
BRANCH  35  37
ATOM     36  C   UNL     1      -0.230   1.716  -1.699  0.00  0.00    +0.048 C 
ATOM     37  C   UNL     1      -0.249   0.221  -2.027  0.00  0.00    +0.225 C 
ENDBRANCH  35  37
ENDBRANCH  29  35
ENDBRANCH  22  32
ENDBRANCH  21  26
ENDBRANCH   1  21
TORSDOF 8
