REMARK  Name = ZINC36213636
REMARK  6 active torsions:
REMARK  status: ('A' for Active; 'I' for Inactive)
REMARK    1  A    between atoms: C_4  and  C_7
REMARK    2  A    between atoms: C_8  and  C_9
REMARK    3  A    between atoms: C_9  and  N_10
REMARK    4  A    between atoms: N_13  and  C_16
REMARK    5  A    between atoms: C_19  and  N_25
REMARK    6  A    between atoms: C_21  and  N_22
REMARK                            x       y       z     vdW  Elec       q    Type
REMARK                         _______ _______ _______ _____ _____    ______ ____
ROOT
ATOM      1  C   UNL     1       5.609  -7.521   2.513  0.00  0.00    +0.060 A 
ATOM      2  C   UNL     1       5.605  -8.372   1.415  0.00  0.00    +0.027 A 
ATOM      3  C   UNL     1       5.821  -9.724   1.588  0.00  0.00    +0.026 A 
ATOM      4  C   UNL     1       6.041 -10.234   2.861  0.00  0.00    +0.046 A 
ATOM      5  C   UNL     1       6.045  -9.385   3.958  0.00  0.00    +0.058 A 
ATOM      6  C   UNL     1       5.836  -8.031   3.785  0.00  0.00    +0.149 A 
ENDROOT
BRANCH   4   7
ATOM      7  N   UNL     1       6.260 -11.610   3.037  0.00  0.00    -0.210 N 
ATOM      8  C   UNL     1       5.390 -12.405   3.669  0.00  0.00    +0.231 C 
ATOM      9  O   UNL     1       4.338 -12.047   4.153  0.00  0.00    -0.274 OA
ATOM     10  C   UNL     1       5.922 -13.820   3.687  0.00  0.00    +0.095 C 
ATOM     11  C   UNL     1       6.322 -14.174   5.153  0.00  0.00    +0.025 C 
ATOM     12  C   UNL     1       7.567 -15.099   4.894  0.00  0.00    +0.016 C 
ATOM     13  C   UNL     1       8.333 -13.994   4.079  0.00  0.00    +0.025 C 
ATOM     14  C   UNL     1       7.281 -13.700   2.936  0.00  0.00    +0.095 C 
ATOM     15  C   UNL     1       7.353 -12.232   2.581  0.00  0.00    +0.231 C 
ATOM     16  O   UNL     1       8.261 -11.702   1.978  0.00  0.00    -0.274 OA
ATOM     17  C   UNL     1       8.192 -12.811   5.044  0.00  0.00    -0.027 C 
ATOM     18  C   UNL     1       7.013 -12.907   5.670  0.00  0.00    -0.027 C 
ENDBRANCH   4   7
BRANCH   1  22
ATOM     19  N   UNL     1       4.886  -3.712   1.069  0.00  0.00    +0.384 N 
ATOM     20  C   UNL     1       3.817  -4.716   1.151  0.00  0.00    -0.059 C 
ATOM     21  C   UNL     1       4.032  -5.589   2.392  0.00  0.00    +0.086 C 
ATOM     22  N   UNL     1       5.390  -6.151   2.337  0.00  0.00    -0.332 N 
ATOM     23  C   UNL     1       6.512  -5.231   2.093  0.00  0.00    +0.086 C 
ATOM     24  C   UNL     1       6.180  -4.375   0.867  0.00  0.00    -0.059 C 
ATOM     25  H   UNL     1       4.912  -3.182   1.927  0.00  0.00    -0.081 HD
BRANCH  19  26
ATOM     26  C   UNL     1       4.619  -2.808  -0.057  0.00  0.00    -0.051 C 
BRANCH  26  28
ATOM     27  C   UNL     1       3.364  -0.711   0.171  0.00  0.00    +0.002 C 
ATOM     28  C   UNL     1       3.352  -2.036   0.207  0.00  0.00    -0.045 C 
BRANCH  27  32
ATOM     29  C   UNL     1      -0.207   1.465   0.915  0.00  0.00    +0.000 A 
ATOM     30  C   UNL     1       0.966   2.142   0.636  0.00  0.00    +0.001 A 
ATOM     31  C   UNL     1       2.130   1.441   0.394  0.00  0.00    +0.008 A 
ATOM     32  C   UNL     1       2.121   0.047   0.431  0.00  0.00    -0.025 A 
ATOM     33  C   UNL     1       0.934  -0.630   0.714  0.00  0.00    +0.008 A 
ATOM     34  C   UNL     1      -0.223   0.082   0.954  0.00  0.00    +0.001 A 
ENDBRANCH  27  32
ENDBRANCH  26  28
ENDBRANCH  19  26
ENDBRANCH   1  22
BRANCH   6  35
ATOM     35  N   UNL     1       5.846  -7.124   4.955  0.00  0.00    +0.058 N 
ATOM     36  O   UNL     1       6.044  -7.568   6.062  0.00  0.00    -0.126 OA
ATOM     37  O   UNL     1       5.657  -5.940   4.803  0.00  0.00    -0.126 OA
ENDBRANCH   6  35
TORSDOF 6
