REMARK  Name = ZINC59040825
REMARK  4 active torsions:
REMARK  status: ('A' for Active; 'I' for Inactive)
REMARK    1  A    between atoms: C_3  and  C_8
REMARK    2  A    between atoms: C_20  and  C_22
REMARK    3  A    between atoms: N_24  and  C_25
REMARK    4  A    between atoms: C_25  and  C_26
REMARK                            x       y       z     vdW  Elec       q    Type
REMARK                         _______ _______ _______ _____ _____    ______ ____
ROOT
ATOM      1  C   UNL     1       3.894   2.234  -0.174  0.00  0.00    +0.248 C 
ATOM      2  O   UNL     1       3.977   3.439  -0.311  0.00  0.00    -0.270 OA
ATOM      3  N   UNL     1       5.011   1.495  -0.027  0.00  0.00    -0.283 N 
ATOM      4  C   UNL     1       6.370   1.998   0.100  0.00  0.00    +0.080 C 
ATOM      5  C   UNL     1       6.711   3.293  -0.607  0.00  0.00    +0.023 C 
ATOM      6  C   UNL     1       8.178   3.619  -0.284  0.00  0.00    +0.002 C 
ATOM      7  C   UNL     1       9.106   2.482  -0.703  0.00  0.00    +0.000 C 
ATOM      8  C   UNL     1       8.677   1.145  -0.077  0.00  0.00    +0.005 C 
ATOM      9  C   UNL     1       7.247   0.886  -0.537  0.00  0.00    +0.012 C 
ATOM     10  C   UNL     1       6.593  -0.362   0.077  0.00  0.00    +0.037 C 
ATOM     11  C   UNL     1       5.086   0.016   0.040  0.00  0.00    +0.163 C 
ENDROOT
BRANCH   1  14
ATOM     12  C   UNL     1       0.192   1.691  -0.498  0.00  0.00    +0.002 A 
ATOM     13  C   UNL     1       1.426   2.307  -0.506  0.00  0.00    +0.013 A 
ATOM     14  C   UNL     1       2.568   1.580  -0.167  0.00  0.00    +0.038 A 
ATOM     15  C   UNL     1       2.454   0.232   0.178  0.00  0.00    +0.033 A 
ATOM     16  C   UNL     1       1.213  -0.373   0.181  0.00  0.00    +0.042 A 
ATOM     17  C   UNL     1       0.084   0.355  -0.156  0.00  0.00    +0.020 A 
ATOM     18 CL   UNL     1       1.067  -2.049   0.609  0.00  0.00    -0.084 Cl
ENDBRANCH   1  14
BRANCH  11  19
ATOM     19  C   UNL     1       4.437  -0.587  -1.179  0.00  0.00    +0.234 C 
ATOM     20  O   UNL     1       4.291   0.081  -2.181  0.00  0.00    -0.274 OA
ATOM     21  N   UNL     1       4.020  -1.868  -1.156  0.00  0.00    -0.310 N 
ATOM     22  H   UNL     1       4.205  -2.425  -0.383  0.00  0.00    +0.149 HD
BRANCH  21  23
ATOM     23  C   UNL     1       3.288  -2.421  -2.298  0.00  0.00    +0.139 C 
BRANCH  23  24
ATOM     24  C   UNL     1       2.877  -3.838  -1.993  0.00  0.00    -0.026 A 
ATOM     25  C   UNL     1       3.756  -4.893  -2.200  0.00  0.00    +0.023 A 
ATOM     26  C   UNL     1       3.349  -6.179  -1.910  0.00  0.00    +0.084 A 
ATOM     27  N   UNL     1       2.139  -6.417  -1.441  0.00  0.00    -0.350 N 
ATOM     28  C   UNL     1       1.271  -5.439  -1.231  0.00  0.00    +0.099 A 
ATOM     29  C   UNL     1       1.617  -4.117  -1.496  0.00  0.00    +0.047 A 
ATOM     30  N   UNL     1       0.006  -5.735  -0.737  0.00  0.00    -0.317 N 
ATOM     31  C   UNL     1      -1.057  -4.757  -0.463  0.00  0.00    +0.106 C 
ATOM     32  C   UNL     1      -2.265  -5.538   0.095  0.00  0.00    +0.020 C 
ATOM     33  C   UNL     1      -1.618  -6.840   0.635  0.00  0.00    +0.020 C 
ATOM     34  C   UNL     1      -0.494  -7.082  -0.407  0.00  0.00    +0.106 C 
ATOM     35  H   UNL     1       1.878  -7.331  -1.246  0.00  0.00    +0.166 HD
ENDBRANCH  23  24
ENDBRANCH  21  23
ENDBRANCH  11  19
TORSDOF 4
