REMARK  Name = ZINC35574520
REMARK  5 active torsions:
REMARK  status: ('A' for Active; 'I' for Inactive)
REMARK    1  A    between atoms: C_4  and  C_7
REMARK    2  A    between atoms: C_8  and  C_9
REMARK    3  A    between atoms: C_23  and  C_25
REMARK    4  A    between atoms: C_25  and  N_26
REMARK    5  A    between atoms: N_29  and  C_32
REMARK                            x       y       z     vdW  Elec       q    Type
REMARK                         _______ _______ _______ _____ _____    ______ ____
ROOT
ATOM      1  C   UNL     1       4.973  -2.726  -2.452  0.00  0.00    +0.240 C 
ATOM      2  O   UNL     1       3.913  -2.140  -2.333  0.00  0.00    -0.271 OA
ATOM      3  N   UNL     1       4.992  -4.069  -2.561  0.00  0.00    -0.295 N 
ATOM      4  C   UNL     1       6.267  -4.800  -2.581  0.00  0.00    +0.127 C 
ATOM      5  C   UNL     1       6.244  -5.856  -1.470  0.00  0.00    +0.127 C 
ATOM      6  N   UNL     1       4.990  -6.616  -1.570  0.00  0.00    -0.298 N 
ATOM      7  C   UNL     1       3.715  -5.886  -1.549  0.00  0.00    +0.127 C 
ATOM      8  C   UNL     1       3.738  -4.830  -2.655  0.00  0.00    +0.127 C 
ATOM      9  C   UNL     1       5.009  -7.981  -1.681  0.00  0.00    +0.199 A 
ATOM     10  N   UNL     1       6.194  -8.643  -1.582  0.00  0.00    -0.295 N 
ATOM     11  H   UNL     1       7.016  -8.150  -1.434  0.00  0.00    +0.172 HD
ATOM     12  C   UNL     1       6.221  -9.988  -1.690  0.00  0.00    +0.253 A 
ATOM     13  O   UNL     1       7.274 -10.598  -1.603  0.00  0.00    -0.268 OA
ATOM     14  C   UNL     1       5.012 -10.674  -1.903  0.00  0.00    +0.094 A 
ATOM     15  C   UNL     1       3.854  -9.956  -1.994  0.00  0.00    +0.064 A 
ATOM     16  N   UNL     1       3.879  -8.631  -1.876  0.00  0.00    -0.219 NA
ENDROOT
BRANCH   1  18
ATOM     17  C   UNL     1       6.204  -0.624  -2.469  0.00  0.00    +0.013 C 
ATOM     18  C   UNL     1       6.228  -1.972  -2.477  0.00  0.00    +0.068 C 
BRANCH  17  22
ATOM     19  C   UNL     1       9.839   1.562  -2.539  0.00  0.00    +0.000 A 
ATOM     20  C   UNL     1       8.631   2.236  -2.508  0.00  0.00    +0.001 A 
ATOM     21  C   UNL     1       7.445   1.533  -2.485  0.00  0.00    +0.008 A 
ATOM     22  C   UNL     1       7.465   0.135  -2.494  0.00  0.00    -0.025 A 
ATOM     23  C   UNL     1       8.690  -0.539  -2.525  0.00  0.00    +0.008 A 
ATOM     24  C   UNL     1       9.868   0.178  -2.547  0.00  0.00    +0.001 A 
ENDBRANCH  17  22
ENDBRANCH   1  18
BRANCH  15  25
ATOM     25  C   UNL     1       2.545 -10.667  -2.222  0.00  0.00    +0.140 C 
BRANCH  25  26
ATOM     26  N   UNL     1       1.679 -10.486  -1.050  0.00  0.00    -0.300 NA
ATOM     27  C   UNL     1       2.238 -11.165   0.128  0.00  0.00    +0.066 C 
ATOM     28  C   UNL     1       1.339 -10.903   1.338  0.00  0.00    -0.063 C 
ATOM     29  N   UNL     1      -0.014 -11.403   1.061  0.00  0.00    +0.383 N 
ATOM     30  C   UNL     1      -0.569 -10.698  -0.102  0.00  0.00    -0.063 C 
ATOM     31  C   UNL     1       0.314 -10.958  -1.325  0.00  0.00    +0.066 C 
ATOM     32  H   UNL     1       0.026 -12.392   0.867  0.00  0.00    -0.081 HD
BRANCH  29  33
ATOM     33  C   UNL     1      -0.872 -11.168   2.230  0.00  0.00    -0.068 C 
ATOM     34  C   UNL     1      -0.295 -11.903   3.442  0.00  0.00    -0.015 C 
ATOM     35  C   UNL     1      -1.189 -11.658   4.659  0.00  0.00    -0.002 C 
ATOM     36  C   UNL     1      -2.598 -12.178   4.370  0.00  0.00    -0.000 C 
ATOM     37  C   UNL     1      -3.175 -11.443   3.159  0.00  0.00    -0.002 C 
ATOM     38  C   UNL     1      -2.281 -11.687   1.941  0.00  0.00    -0.015 C 
ENDBRANCH  29  33
ENDBRANCH  25  26
ENDBRANCH  15  25
TORSDOF 5
