REMARK  Name = ZINC08870247
REMARK  7 active torsions:
REMARK  status: ('A' for Active; 'I' for Inactive)
REMARK    1  A    between atoms: C_1  and  C_2
REMARK    2  A    between atoms: C_2  and  C_10
REMARK    3  A    between atoms: C_3  and  C_4
REMARK    4  A    between atoms: N_14  and  N_18
REMARK    5  A    between atoms: N_18  and  C_19
REMARK    6  A    between atoms: C_22  and  N_28
REMARK    7  A    between atoms: C_24  and  N_25
REMARK                            x       y       z     vdW  Elec       q    Type
REMARK                         _______ _______ _______ _____ _____    ______ ____
ROOT
ATOM      1  C   UNL     1       0.724   2.157   0.250  0.00  0.00    +0.023 C 
ATOM      2  C   UNL     1       1.982   1.637   0.159  0.00  0.00    +0.078 C 
ATOM      3  C   UNL     1       2.412   0.230   0.054  0.00  0.00    +0.275 C 
ATOM      4  O   UNL     1       1.609  -0.684   0.037  0.00  0.00    -0.267 OA
ATOM      5  N   UNL     1       3.714   0.012  -0.026  0.00  0.00    -0.172 N 
ATOM      6  C   UNL     1       4.601   1.028   0.001  0.00  0.00    +0.138 C 
ATOM      7  S   UNL     1       6.309   0.950  -0.082  0.00  0.00    -0.026 S 
ATOM      8  S   UNL     1       3.562   2.473   0.143  0.00  0.00    -0.060 S 
ENDROOT
BRANCH   1  10
ATOM      9  C   UNL     1      -1.421   1.258   1.236  0.00  0.00    +0.044 C 
ATOM     10  C   UNL     1      -0.398   1.313   0.131  0.00  0.00    -0.049 C 
ATOM     11  C   UNL     1      -0.554   0.547  -0.975  0.00  0.00    +0.011 C 
BRANCH  11  12
ATOM     12  C   UNL     1      -1.801  -0.205  -1.178  0.00  0.00    -0.025 A 
ATOM     13  C   UNL     1      -1.779  -1.436  -1.844  0.00  0.00    +0.008 A 
ATOM     14  C   UNL     1      -2.952  -2.137  -2.027  0.00  0.00    +0.001 A 
ATOM     15  C   UNL     1      -4.150  -1.622  -1.562  0.00  0.00    +0.000 A 
ATOM     16  C   UNL     1      -4.181  -0.403  -0.907  0.00  0.00    +0.001 A 
ATOM     17  C   UNL     1      -3.016   0.308  -0.712  0.00  0.00    +0.008 A 
ENDBRANCH  11  12
ENDBRANCH   1  10
BRANCH   5  18
ATOM     18  N   UNL     1       4.183  -1.304  -0.133  0.00  0.00    -0.254 N 
ATOM     19  H   UNL     1       4.104  -1.780  -0.974  0.00  0.00    +0.171 HD
BRANCH  18  20
ATOM     20  C   UNL     1       4.764  -1.930   0.972  0.00  0.00    +0.075 A 
ATOM     21  C   UNL     1       4.774  -1.295   2.207  0.00  0.00    +0.029 A 
ATOM     22  C   UNL     1       5.345  -1.919   3.299  0.00  0.00    +0.035 A 
ATOM     23  C   UNL     1       5.916  -3.171   3.161  0.00  0.00    +0.128 A 
ATOM     24  C   UNL     1       5.912  -3.804   1.932  0.00  0.00    +0.067 A 
ATOM     25  C   UNL     1       5.338  -3.188   0.837  0.00  0.00    +0.151 A 
BRANCH  25  26
ATOM     26  N   UNL     1       5.335  -3.866  -0.479  0.00  0.00    +0.058 N 
ATOM     27  O   UNL     1       5.152  -5.069  -0.543  0.00  0.00    -0.126 OA
ATOM     28  O   UNL     1       5.516  -3.222  -1.496  0.00  0.00    -0.126 OA
ENDBRANCH  25  26
BRANCH  23  29
ATOM     29  N   UNL     1       6.532  -3.835   4.332  0.00  0.00    +0.056 N 
ATOM     30  O   UNL     1       7.035  -4.937   4.212  0.00  0.00    -0.126 OA
ATOM     31  O   UNL     1       6.536  -3.278   5.415  0.00  0.00    -0.126 OA
ENDBRANCH  23  29
ENDBRANCH  18  20
ENDBRANCH   5  18
TORSDOF 6
