REMARK  Name = ZINC59039208
REMARK  12 active torsions:
REMARK  status: ('A' for Active; 'I' for Inactive)
REMARK    1  A    between atoms: C_1  and  C_2
REMARK    2  A    between atoms: C_2  and  N_3
REMARK    3  A    between atoms: N_3  and  C_4
REMARK    4  A    between atoms: N_3  and  C_6
REMARK    5  A    between atoms: C_4  and  C_5
REMARK    6  A    between atoms: C_9  and  C_13
REMARK    7  A    between atoms: C_10  and  O_12
REMARK    8  A    between atoms: N_14  and  N_15
REMARK    9  A    between atoms: C_18  and  S_21
REMARK   10  A    between atoms: S_21  and  C_22
REMARK   11  A    between atoms: C_22  and  C_23
REMARK   12  A    between atoms: N_25  and  C_26
REMARK                            x       y       z     vdW  Elec       q    Type
REMARK                         _______ _______ _______ _____ _____    ______ ____
ROOT
ATOM      1  N   UNL     1      -5.800  -2.273   6.155  0.00  0.00    -0.205 N 
ATOM      2  C   UNL     1      -7.098  -2.747   6.170  0.00  0.00    +0.232 A 
ATOM      3  N   UNL     1      -7.837  -3.012   5.113  0.00  0.00    -0.186 NA
ATOM      4  C   UNL     1      -9.038  -3.452   5.503  0.00  0.00    +0.211 A 
ATOM      5  N   UNL     1      -9.079  -3.473   6.814  0.00  0.00    -0.144 NA
ATOM      6  N   UNL     1      -7.830  -3.025   7.270  0.00  0.00    -0.245 N 
ATOM      7  H   UNL     1      -5.333  -2.111   6.990  0.00  0.00    +0.177 HD
ATOM      8  H   UNL     1      -7.548  -2.932   8.193  0.00  0.00    +0.192 HD
ENDROOT
BRANCH   1  10
ATOM      9  C   UNL     1      -3.938  -1.580   4.921  0.00  0.00    +0.142 C 
ATOM     10  N   UNL     1      -5.158  -2.026   4.935  0.00  0.00    -0.187 NA
BRANCH   9  14
ATOM     11  C   UNL     1      -1.990  -0.833   1.220  0.00  0.00    +0.033 A 
ATOM     12  C   UNL     1      -1.322  -0.600   2.419  0.00  0.00    +0.024 A 
ATOM     13  C   UNL     1      -1.950  -0.842   3.620  0.00  0.00    +0.015 A 
ATOM     14  C   UNL     1      -3.263  -1.321   3.638  0.00  0.00    +0.036 A 
ATOM     15  C   UNL     1      -3.935  -1.554   2.429  0.00  0.00    +0.127 A 
ATOM     16  C   UNL     1      -3.296  -1.304   1.228  0.00  0.00    +0.069 A 
BRANCH  15  17
ATOM     17  O   UNL     1      -5.211  -2.020   2.438  0.00  0.00    -0.506 OA
ATOM     18  H   UNL     1      -5.883  -1.325   2.449  0.00  0.00    +0.292 HD
ENDBRANCH  15  17
BRANCH  11  19
ATOM     19  N   UNL     1      -1.347  -0.586   0.007  0.00  0.00    -0.330 N 
BRANCH  19  21
ATOM     20  C   UNL     1       0.021   1.442   0.009  0.00  0.00    +0.024 C 
ATOM     21  C   UNL     1       0.031  -0.088  -0.004  0.00  0.00    +0.102 C 
ENDBRANCH  19  21
BRANCH  19  22
ATOM     22  C   UNL     1      -2.050  -0.824  -1.256  0.00  0.00    +0.102 C 
ATOM     23  C   UNL     1      -1.805  -2.263  -1.713  0.00  0.00    +0.024 C 
ENDBRANCH  19  22
ENDBRANCH  11  19
ENDBRANCH   9  14
ENDBRANCH   1  10
BRANCH   4  24
ATOM     24  S   UNL     1     -10.352  -3.927   4.429  0.00  0.00    -0.075 S 
BRANCH  24  25
ATOM     25  C   UNL     1     -11.685  -4.419   5.558  0.00  0.00    +0.173 C 
BRANCH  25  26
ATOM     26  C   UNL     1     -12.886  -4.853   4.758  0.00  0.00    +0.228 C 
ATOM     27  O   UNL     1     -12.847  -4.833   3.546  0.00  0.00    -0.275 OA
ATOM     28  N   UNL     1     -14.003  -5.264   5.390  0.00  0.00    -0.284 N 
ATOM     29  H   UNL     1     -14.013  -5.342   6.357  0.00  0.00    +0.155 HD
BRANCH  28  30
ATOM     30  C   UNL     1     -15.150  -5.579   4.650  0.00  0.00    +0.052 A 
ATOM     31  C   UNL     1     -15.031  -6.164   3.397  0.00  0.00    +0.026 A 
ATOM     32  C   UNL     1     -16.163  -6.473   2.669  0.00  0.00    +0.022 A 
ATOM     33  C   UNL     1     -17.417  -6.199   3.188  0.00  0.00    +0.042 A 
ATOM     34  C   UNL     1     -17.540  -5.617   4.437  0.00  0.00    +0.041 A 
ATOM     35  C   UNL     1     -16.410  -5.311   5.172  0.00  0.00    +0.064 A 
ATOM     36 CL   UNL     1     -16.564  -4.586   6.742  0.00  0.00    -0.082 Cl
ATOM     37 CL   UNL     1     -18.838  -6.588   2.270  0.00  0.00    -0.083 Cl
ENDBRANCH  28  30
ENDBRANCH  25  26
ENDBRANCH  24  25
ENDBRANCH   4  24
TORSDOF 10
