REMARK  Name = ZINC13239639
REMARK  12 active torsions:
REMARK  status: ('A' for Active; 'I' for Inactive)
REMARK    1  A    between atoms: C_1  and  O_2
REMARK    2  A    between atoms: O_2  and  C_3
REMARK    3  A    between atoms: C_8  and  N_9
REMARK    4  A    between atoms: N_9  and  C_10
REMARK    5  A    between atoms: C_10  and  C_11
REMARK    6  A    between atoms: C_15  and  C_17
REMARK    7  A    between atoms: C_17  and  N_18
REMARK    8  A    between atoms: N_21  and  CA_22
REMARK    9  A    between atoms: CA_22  and  C_24
REMARK   10  A    between atoms: CA_22  and  C_32
REMARK   11  A    between atoms: C_24  and  C_25
REMARK   12  A    between atoms: C_25  and  C_26
REMARK                            x       y       z     vdW  Elec       q    Type
REMARK                         _______ _______ _______ _____ _____    ______ ____
ROOT
ATOM      1  N   UNL     1       6.182  -4.898   0.159  0.00  0.00    -0.291 N 
ATOM      2  C   UNL     1       6.347  -3.671  -0.373  0.00  0.00    +0.301 C 
ATOM      3  O   UNL     1       7.441  -3.142  -0.355  0.00  0.00    -0.253 OA
ATOM      4  N   UNL     1       5.298  -3.029  -0.926  0.00  0.00    -0.286 N 
ATOM      5  H   UNL     1       5.309  -5.319   0.144  0.00  0.00    +0.151 HD
ATOM      6  H   UNL     1       4.425  -3.451  -0.941  0.00  0.00    +0.151 HD
ENDROOT
BRANCH   1   7
ATOM      7  C   UNL     1       7.322  -5.595   0.760  0.00  0.00    +0.202 C 
BRANCH   7   9
ATOM      8  N   UNL     1       7.759  -7.759   1.874  0.00  0.00    -0.258 N 
ATOM      9  C   UNL     1       6.874  -6.937   1.277  0.00  0.00    +0.237 C 
ATOM     10  O   UNL     1       5.716  -7.279   1.156  0.00  0.00    -0.274 OA
BRANCH   8  16
ATOM     11  C   UNL     1       6.877  -9.132   3.662  0.00  0.00    +0.141 A 
ATOM     12  C   UNL     1       6.466 -10.369   4.133  0.00  0.00    +0.047 A 
ATOM     13  C   UNL     1       6.519 -11.476   3.305  0.00  0.00    +0.004 A 
ATOM     14  C   UNL     1       6.981 -11.352   2.008  0.00  0.00    +0.002 A 
ATOM     15  C   UNL     1       7.388 -10.121   1.530  0.00  0.00    +0.027 A 
ATOM     16  C   UNL     1       7.343  -9.008   2.355  0.00  0.00    +0.078 A 
BRANCH  11  18
ATOM     17  C   UNL     1       6.336  -8.246   5.802  0.00  0.00    +0.277 C 
ATOM     18  O   UNL     1       6.825  -8.043   4.474  0.00  0.00    -0.493 OA
ENDBRANCH  11  18
ENDBRANCH   8  16
BRANCH   8  19
ATOM     19  C   UNL     1       9.158  -7.347   2.021  0.00  0.00    +0.227 C 
BRANCH  19  20
ATOM     20  C   UNL     1       9.335  -6.609   3.349  0.00  0.00    +0.406 C 
ATOM     21  F   UNL     1       8.986  -7.457   4.405  0.00  0.00    -0.169 F 
ATOM     22  F   UNL     1      10.671  -6.215   3.489  0.00  0.00    -0.169 F 
ATOM     23  F   UNL     1       8.512  -5.478   3.367  0.00  0.00    -0.169 F 
ENDBRANCH  19  20
ENDBRANCH   8  19
ENDBRANCH   7   9
ENDBRANCH   1   7
BRANCH   4  24
ATOM     24  CA  UNL     1       5.477  -1.695  -1.504  0.00  0.00    +0.188 C 
BRANCH  24  25
ATOM     25  C   UNL     1       5.962  -1.825  -2.925  0.00  0.00    +0.376 C 
ATOM     26  O   UNL     1       6.139  -2.919  -3.406  0.00  0.00    -0.244 OA
ATOM     27  OXT UNL     1       6.196  -0.724  -3.657  0.00  0.00    -0.244 OA
ENDBRANCH  24  25
BRANCH  24  28
ATOM     28  C   UNL     1       4.142  -0.948  -1.487  0.00  0.00    +0.038 C 
BRANCH  28  29
ATOM     29  C   UNL     1       3.711  -0.707  -0.039  0.00  0.00    +0.037 C 
BRANCH  29  30
ATOM     30  C   UNL     1       2.396   0.029  -0.022  0.00  0.00    -0.047 A 
ATOM     31  C   UNL     1       1.208  -0.679  -0.014  0.00  0.00    +0.003 A 
ATOM     32  C   UNL     1       0.002  -0.004   0.002  0.00  0.00    +0.000 A 
ATOM     33  C   UNL     1      -0.017   1.378   0.010  0.00  0.00    +0.000 A 
ATOM     34  C   UNL     1       1.171   2.086   0.002  0.00  0.00    +0.000 A 
ATOM     35  C   UNL     1       2.377   1.411  -0.014  0.00  0.00    +0.003 A 
ENDBRANCH  29  30
ENDBRANCH  28  29
ENDBRANCH  24  28
ENDBRANCH   4  24
TORSDOF 11
