REMARK  Name = ZINC00940655
REMARK  4 active torsions:
REMARK  status: ('A' for Active; 'I' for Inactive)
REMARK    1  A    between atoms: C_1  and  C_2
REMARK    2  A    between atoms: C_3  and  C_26
REMARK    3  A    between atoms: C_4  and  C_19
REMARK    4  A    between atoms: C_10  and  C_12
REMARK                            x       y       z     vdW  Elec       q    Type
REMARK                         _______ _______ _______ _____ _____    ______ ____
ROOT
ATOM      1  C   UNL     1       0.570   1.262   0.688  0.00  0.00    +0.066 C 
ATOM      2  C   UNL     1       0.322  -0.168   0.281  0.00  0.00    +0.052 C 
ATOM      3  C   UNL     1      -0.966  -0.610   0.164  0.00  0.00    +0.062 C 
ATOM      4  C   UNL     1      -1.168  -2.057  -0.248  0.00  0.00    +0.165 C 
ATOM      5  N   UNL     1       0.052  -2.838  -0.480  0.00  0.00    -0.207 N 
ATOM      6  C   UNL     1       1.274  -2.229  -0.315  0.00  0.00    +0.237 C 
ATOM      7  N   UNL     1       1.358  -0.956   0.043  0.00  0.00    -0.218 NA
ATOM      8  N   UNL     1       2.219  -3.143  -0.583  0.00  0.00    -0.196 NA
ATOM      9  C   UNL     1       1.664  -4.294  -0.908  0.00  0.00    +0.146 C 
ATOM     10  N   UNL     1       0.302  -4.160  -0.860  0.00  0.00    -0.244 N 
ATOM     11  H   UNL     1      -0.358  -4.845  -1.050  0.00  0.00    +0.172 HD
ENDROOT
BRANCH   9  12
ATOM     12  C   UNL     1       2.392  -5.527  -1.265  0.00  0.00    +0.016 A 
ATOM     13  C   UNL     1       1.687  -6.687  -1.598  0.00  0.00    +0.013 A 
ATOM     14  C   UNL     1       2.373  -7.835  -1.931  0.00  0.00    +0.021 A 
ATOM     15  C   UNL     1       3.758  -7.841  -1.937  0.00  0.00    +0.041 A 
ATOM     16  C   UNL     1       4.463  -6.694  -1.607  0.00  0.00    +0.021 A 
ATOM     17  C   UNL     1       3.789  -5.538  -1.278  0.00  0.00    +0.013 A 
ATOM     18 CL   UNL     1       4.615  -9.291  -2.358  0.00  0.00    -0.084 Cl
ENDBRANCH   9  12
BRANCH   4  19
ATOM     19  C   UNL     1      -1.980  -2.075  -1.518  0.00  0.00    -0.002 A 
ATOM     20  C   UNL     1      -1.471  -1.513  -2.673  0.00  0.00    +0.007 A 
ATOM     21  C   UNL     1      -2.216  -1.530  -3.837  0.00  0.00    +0.000 A 
ATOM     22  C   UNL     1      -3.471  -2.109  -3.847  0.00  0.00    +0.001 A 
ATOM     23  C   UNL     1      -3.982  -2.671  -2.692  0.00  0.00    +0.020 A 
ATOM     24  C   UNL     1      -3.234  -2.660  -1.528  0.00  0.00    +0.046 A 
ATOM     25 CL   UNL     1      -3.873  -3.372  -0.079  0.00  0.00    -0.083 Cl
ENDBRANCH   4  19
BRANCH   3  26
ATOM     26  C   UNL     1      -2.059   0.240   0.415  0.00  0.00    +0.241 C 
ATOM     27  O   UNL     1      -1.872   1.425   0.630  0.00  0.00    -0.271 OA
ATOM     28  N   UNL     1      -3.312  -0.256   0.417  0.00  0.00    -0.325 N 
ATOM     29  H   UNL     1      -3.456  -1.210   0.321  0.00  0.00    +0.145 HD
ATOM     30  H   UNL     1      -4.070   0.342   0.516  0.00  0.00    +0.145 HD
ENDBRANCH   3  26
TORSDOF 3
