REMARK  Name = ZINC39662871
REMARK  7 active torsions:
REMARK  status: ('A' for Active; 'I' for Inactive)
REMARK    1  A    between atoms: C_1  and  C_2
REMARK    2  A    between atoms: C_6  and  C_8
REMARK    3  A    between atoms: C_8  and  C_9
REMARK    4  A    between atoms: C_13  and  C_22
REMARK    5  A    between atoms: N_24  and  C_25
REMARK    6  A    between atoms: C_25  and  C_26
REMARK    7  A    between atoms: C_29  and  C_32
REMARK                            x       y       z     vdW  Elec       q    Type
REMARK                         _______ _______ _______ _____ _____    ______ ____
ROOT
ATOM      1  C   UNL     1       1.181  -3.002   3.004  0.00  0.00    +0.220 C 
ATOM      2  O   UNL     1       2.024  -2.526   2.275  0.00  0.00    -0.275 OA
ATOM      3  N   UNL     1       1.551  -3.688   4.104  0.00  0.00    -0.300 N 
ATOM      4  C   UNL     1       0.675  -4.343   5.104  0.00  0.00    +0.121 C 
ATOM      5  C   UNL     1       1.397  -5.665   5.449  0.00  0.00    +0.100 C 
ATOM      6  C   UNL     1       2.874  -5.405   5.110  0.00  0.00    -0.004 C 
ATOM      7  C   UNL     1       2.927  -3.964   4.583  0.00  0.00    +0.115 C 
ATOM      8  C   UNL     1       3.346  -6.373   4.029  0.00  0.00    -0.010 C 
ATOM      9  C   UNL     1       4.832  -6.133   3.749  0.00  0.00    -0.082 C 
ATOM     10  N   UNL     1       5.603  -6.333   4.982  0.00  0.00    +0.379 N 
ATOM     11  C   UNL     1       5.207  -5.337   5.986  0.00  0.00    -0.082 C 
ATOM     12  C   UNL     1       3.737  -5.543   6.360  0.00  0.00    -0.010 C 
ATOM     13  H   UNL     1       5.426  -7.259   5.341  0.00  0.00    -0.086 HD
ATOM     14  H   UNL     1       6.587  -6.234   4.782  0.00  0.00    -0.086 HD
ENDROOT
BRANCH   5  15
ATOM     15  C   UNL     1       0.854  -6.794   4.612  0.00  0.00    +0.218 C 
ATOM     16  O   UNL     1       0.423  -6.572   3.501  0.00  0.00    -0.275 OA
ATOM     17  N   UNL     1       0.848  -8.051   5.099  0.00  0.00    -0.315 N 
ATOM     18  H   UNL     1       1.193  -8.229   5.988  0.00  0.00    +0.149 HD
BRANCH  17  19
ATOM     19  C   UNL     1       0.320  -9.149   4.285  0.00  0.00    +0.107 C 
BRANCH  19  20
ATOM     20  C   UNL     1       0.428 -10.460   5.066  0.00  0.00    +0.006 C 
ATOM     21  C   UNL     1       1.903 -10.798   5.294  0.00  0.00    +0.006 C 
ATOM     22  C   UNL     1       2.606 -10.949   3.944  0.00  0.00    +0.015 C 
ATOM     23  C   UNL     1       1.943 -12.073   3.146  0.00  0.00    +0.102 C 
ATOM     24  C   UNL     1       0.468 -11.736   2.918  0.00  0.00    +0.015 C 
ATOM     25  C   UNL     1      -0.235 -11.585   4.269  0.00  0.00    +0.006 C 
BRANCH  23  26
ATOM     26  C   UNL     1       2.636 -12.222   1.816  0.00  0.00    +0.359 C 
ATOM     27  O   UNL     1       2.842 -13.333   1.357  0.00  0.00    -0.246 OA
ATOM     28  O   UNL     1       2.989 -11.232   1.199  0.00  0.00    -0.246 OA
ENDBRANCH  23  26
ENDBRANCH  19  20
ENDBRANCH  17  19
ENDBRANCH   5  15
BRANCH   1  29
ATOM     29  C   UNL     1      -0.281  -2.827   2.682  0.00  0.00    +0.131 C 
BRANCH  29  35
ATOM     30  C   UNL     1      -0.734   1.585   0.363  0.00  0.00    +0.044 C 
ATOM     31  C   UNL     1      -0.640   0.082   0.303  0.00  0.00    -0.050 A 
ATOM     32  C   UNL     1      -0.685  -0.565  -0.919  0.00  0.00    +0.003 A 
ATOM     33  C   UNL     1      -0.599  -1.943  -0.975  0.00  0.00    +0.001 A 
ATOM     34  C   UNL     1      -0.469  -2.675   0.191  0.00  0.00    +0.004 A 
ATOM     35  C   UNL     1      -0.423  -2.029   1.412  0.00  0.00    -0.038 A 
ATOM     36  C   UNL     1      -0.504  -0.650   1.467  0.00  0.00    +0.007 A 
ENDBRANCH  29  35
ENDBRANCH   1  29
TORSDOF 6
