REMARK  Name = ZINC36145943
REMARK  13 active torsions:
REMARK  status: ('A' for Active; 'I' for Inactive)
REMARK    1  A    between atoms: C_1  and  C_2
REMARK    2  A    between atoms: C_7  and  C_8
REMARK    3  A    between atoms: C_11  and  C_14
REMARK    4  A    between atoms: C_14  and  N_15
REMARK    5  A    between atoms: N_15  and  C_16
REMARK    6  A    between atoms: N_15  and  C_25
REMARK    7  A    between atoms: C_16  and  C_17
REMARK    8  A    between atoms: C_25  and  C_26
REMARK    9  A    between atoms: C_26  and  C_28
REMARK   10  A    between atoms: C_26  and  O_37
REMARK   11  A    between atoms: C_28  and  O_29
REMARK   12  A    between atoms: O_29  and  C_30
REMARK   13  A    between atoms: C_35  and  C_36
REMARK                            x       y       z     vdW  Elec       q    Type
REMARK                         _______ _______ _______ _____ _____    ______ ____
ROOT
ATOM      1  N   UNL     1      -0.074   1.928   6.882  0.00  0.00    +0.387 N 
ATOM      2  H   UNL     1       0.877   1.710   6.626  0.00  0.00    -0.081 HD
ENDROOT
BRANCH   1   3
ATOM      3  C   UNL     1      -0.991   1.022   6.177  0.00  0.00    -0.030 C 
BRANCH   3   7
ATOM      4  C   UNL     1      -1.817   0.851   2.606  0.00  0.00    +0.091 C 
ATOM      5  N   UNL     1      -1.403   2.061   2.779  0.00  0.00    -0.089 NA
ATOM      6  O   UNL     1      -0.914   2.294   4.085  0.00  0.00    -0.392 OA
ATOM      7  C   UNL     1      -0.649   1.010   4.686  0.00  0.00    +0.194 C 
ATOM      8  C   UNL     1      -1.621   0.091   3.905  0.00  0.00    +0.104 C 
BRANCH   4  15
ATOM      9  C   UNL     1      -2.068   2.550   0.278  0.00  0.00    +0.044 C 
ATOM     10  C   UNL     1      -2.515   1.111   0.230  0.00  0.00    -0.041 A 
ATOM     11  C   UNL     1      -3.045   0.590  -0.932  0.00  0.00    +0.004 A 
ATOM     12  C   UNL     1      -3.455  -0.730  -0.978  0.00  0.00    +0.000 A 
ATOM     13  C   UNL     1      -3.338  -1.537   0.141  0.00  0.00    +0.001 A 
ATOM     14  C   UNL     1      -2.811  -1.028   1.310  0.00  0.00    +0.010 A 
ATOM     15  C   UNL     1      -2.389   0.302   1.361  0.00  0.00    +0.002 A 
ENDBRANCH   4  15
ENDBRANCH   3   7
ENDBRANCH   1   3
BRANCH   1  16
ATOM     16  C   UNL     1      -0.376   3.317   6.511  0.00  0.00    -0.040 C 
BRANCH  16  17
ATOM     17  C   UNL     1      -1.817   3.620   6.830  0.00  0.00    -0.029 A 
ATOM     18  C   UNL     1      -2.782   3.503   5.846  0.00  0.00    +0.007 A 
ATOM     19  C   UNL     1      -4.104   3.780   6.137  0.00  0.00    +0.039 A 
ATOM     20  C   UNL     1      -4.464   4.177   7.415  0.00  0.00    +0.126 A 
ATOM     21  C   UNL     1      -3.499   4.295   8.400  0.00  0.00    +0.076 A 
ATOM     22  C   UNL     1      -2.176   4.011   8.108  0.00  0.00    +0.127 A 
ATOM     23  F   UNL     1      -1.234   4.121   9.071  0.00  0.00    -0.205 F 
ATOM     24  F   UNL     1      -5.756   4.449   7.698  0.00  0.00    -0.205 F 
ENDBRANCH  16  17
ENDBRANCH   1  16
BRANCH   1  25
ATOM     25  C   UNL     1      -0.241   1.762   8.332  0.00  0.00    -0.043 C 
BRANCH  25  26
ATOM     26  C   UNL     1       0.831   2.571   9.065  0.00  0.00    +0.135 C 
BRANCH  26  27
ATOM     27  O   UNL     1       2.126   2.099   8.687  0.00  0.00    -0.390 OA
ATOM     28  H   UNL     1       2.281   1.167   8.894  0.00  0.00    +0.210 HD
ENDBRANCH  26  27
BRANCH  26  29
ATOM     29  C   UNL     1       0.650   2.409  10.575  0.00  0.00    +0.258 C 
BRANCH  29  30
ATOM     30  O   UNL     1       1.575   3.255  11.260  0.00  0.00    -0.489 OA
BRANCH  30  31
ATOM     31  C   UNL     1       1.546   3.230  12.618  0.00  0.00    +0.124 A 
ATOM     32  C   UNL     1       0.647   2.404  13.279  0.00  0.00    +0.046 A 
ATOM     33  C   UNL     1       0.619   2.380  14.660  0.00  0.00    +0.004 A 
ATOM     34  C   UNL     1       1.485   3.179  15.384  0.00  0.00    +0.000 A 
ATOM     35  C   UNL     1       2.381   4.004  14.728  0.00  0.00    +0.007 A 
ATOM     36  C   UNL     1       2.417   4.027  13.347  0.00  0.00    -0.009 A 
ATOM     37  C   UNL     1       3.397   4.921  12.633  0.00  0.00    +0.047 C 
ENDBRANCH  30  31
ENDBRANCH  29  30
ENDBRANCH  26  29
ENDBRANCH  25  26
ENDBRANCH   1  25
TORSDOF 11
