REMARK  Name = ZINC14475706
REMARK  6 active torsions:
REMARK  status: ('A' for Active; 'I' for Inactive)
REMARK    1  A    between atoms: C_1  and  C_2
REMARK    2  A    between atoms: N_4  and  C_5
REMARK    3  A    between atoms: N_4  and  C_6
REMARK    4  A    between atoms: C_19  and  C_22
REMARK    5  A    between atoms: C_24  and  N_29
REMARK    6  A    between atoms: C_27  and  O_28
REMARK                            x       y       z     vdW  Elec       q    Type
REMARK                         _______ _______ _______ _____ _____    ______ ____
ROOT
ATOM      1  C   UNL     1      -2.124   4.817  -2.351  0.00  0.00    +0.036 A 
ATOM      2  C   UNL     1      -2.235   5.502  -1.148  0.00  0.00    +0.025 A 
ATOM      3  C   UNL     1      -1.819   4.899   0.022  0.00  0.00    +0.025 A 
ATOM      4  C   UNL     1      -1.292   3.613  -0.007  0.00  0.00    +0.031 A 
ATOM      5  C   UNL     1      -1.176   2.926  -1.202  0.00  0.00    -0.018 A 
ATOM      6  C   UNL     1      -1.597   3.536  -2.376  0.00  0.00    +0.029 A 
ATOM      7  C   UNL     1      -0.611   1.534  -1.294  0.00  0.00    +0.049 C 
ATOM      8  C   UNL     1       0.601   1.594  -2.215  0.00  0.00    -0.023 C 
ATOM      9  C   UNL     1       1.702   1.704  -1.514  0.00  0.00    -0.030 C 
ATOM     10  C   UNL     1       1.387   1.730  -0.029  0.00  0.00    +0.033 C 
ATOM     11  C   UNL     1      -0.005   1.058   0.039  0.00  0.00    +0.029 C 
ATOM     12  C   UNL     1      -0.787   1.546   1.244  0.00  0.00    +0.108 C 
ATOM     13  N   UNL     1      -0.879   3.019   1.194  0.00  0.00    -0.336 N 
ATOM     14  H   UNL     1      -0.627   3.616   2.083  0.00  0.00    +0.147 HD
ENDROOT
BRANCH  12  15
ATOM     15  C   UNL     1      -2.175   0.960   1.212  0.00  0.00    +0.017 A 
ATOM     16  C   UNL     1      -3.237   1.723   0.766  0.00  0.00    +0.041 A 
ATOM     17  C   UNL     1      -4.511   1.187   0.736  0.00  0.00    +0.127 A 
ATOM     18  C   UNL     1      -4.726  -0.115   1.151  0.00  0.00    +0.036 A 
ATOM     19  C   UNL     1      -3.668  -0.882   1.598  0.00  0.00    +0.048 A 
ATOM     20  C   UNL     1      -2.387  -0.347   1.624  0.00  0.00    +0.122 A 
BRANCH  17  21
ATOM     21  N   UNL     1      -5.647   2.006   0.258  0.00  0.00    +0.056 N 
ATOM     22  O   UNL     1      -5.459   3.152  -0.109  0.00  0.00    -0.126 OA
ATOM     23  O   UNL     1      -6.770   1.535   0.231  0.00  0.00    -0.126 OA
ENDBRANCH  17  21
BRANCH  20  24
ATOM     24  O   UNL     1      -1.344  -1.102   2.058  0.00  0.00    -0.506 OA
ATOM     25  H   UNL     1      -1.513  -2.138   2.385  0.00  0.00    +0.292 HD
ENDBRANCH  20  24
ENDBRANCH  12  15
BRANCH   1  29
ATOM     26  C   UNL     1      -3.497   7.335  -4.790  0.00  0.00    +0.109 C 
ATOM     27  C   UNL     1      -2.909   6.721  -3.546  0.00  0.00    +0.216 C 
ATOM     28  O   UNL     1      -2.762   7.395  -2.548  0.00  0.00    -0.276 OA
ATOM     29  N   UNL     1      -2.546   5.423  -3.542  0.00  0.00    -0.275 N 
ATOM     30  C   UNL     1      -2.593   4.646  -4.782  0.00  0.00    +0.138 C 
ENDBRANCH   1  29
TORSDOF 4
