REMARK  Name = ZINC02072848
REMARK  16 active torsions:
REMARK  status: ('A' for Active; 'I' for Inactive)
REMARK    1  A    between atoms: C_1  and  C_2
REMARK    2  A    between atoms: C_3  and  C_37
REMARK    3  A    between atoms: C_4  and  C_25
REMARK    4  A    between atoms: C_10  and  C_15
REMARK    5  A    between atoms: C_18  and  O_23
REMARK    6  A    between atoms: C_19  and  O_21
REMARK    7  A    between atoms: O_21  and  C_22
REMARK    8  A    between atoms: O_23  and  C_24
REMARK    9  A    between atoms: C_28  and  O_35
REMARK   10  A    between atoms: C_29  and  O_33
REMARK   11  A    between atoms: C_30  and  O_31
REMARK   12  A    between atoms: O_31  and  C_32
REMARK   13  A    between atoms: O_33  and  C_34
REMARK   14  A    between atoms: O_35  and  C_36
REMARK   15  A    between atoms: C_37  and  O_39
REMARK   16  A    between atoms: O_39  and  C_40
REMARK                            x       y       z     vdW  Elec       q    Type
REMARK                         _______ _______ _______ _____ _____    ______ ____
ROOT
ATOM      1  C   UNL     1      -2.911   0.665  -1.243  0.00  0.00    +0.061 C 
ATOM      2  C   UNL     1      -1.488   0.959  -0.842  0.00  0.00    +0.016 C 
ATOM      3  C   UNL     1      -1.058   2.231  -0.793  0.00  0.00    +0.065 C 
ATOM      4  C   UNL     1       0.353   2.562  -0.405  0.00  0.00    +0.096 C 
ATOM      5  C   UNL     1       1.006   1.398   0.299  0.00  0.00    +0.024 C 
ATOM      6  C   UNL     1       0.492   0.154   0.197  0.00  0.00    +0.016 C 
ATOM      7  N   UNL     1      -0.644  -0.070  -0.532  0.00  0.00    -0.321 N 
ATOM      8  C   UNL     1       1.154  -1.018   0.878  0.00  0.00    +0.059 C 
ATOM      9  C   UNL     1       1.843  -0.544   2.161  0.00  0.00    +0.032 C 
ATOM     10  C   UNL     1       2.865   0.536   1.793  0.00  0.00    +0.088 C 
ATOM     11  C   UNL     1       2.163   1.645   1.058  0.00  0.00    +0.162 C 
ATOM     12  O   UNL     1       2.605   2.776   1.122  0.00  0.00    -0.292 OA
ATOM     13  H   UNL     1      -0.875  -1.092  -0.870  0.00  0.00    +0.152 HD
ENDROOT
BRANCH   9  14
ATOM     14  C   UNL     1       2.546  -1.705   2.816  0.00  0.00    -0.040 A 
ATOM     15  C   UNL     1       3.537  -2.386   2.133  0.00  0.00    +0.008 A 
ATOM     16  C   UNL     1       4.189  -3.448   2.731  0.00  0.00    +0.049 A 
ATOM     17  C   UNL     1       3.842  -3.839   4.015  0.00  0.00    +0.161 A 
ATOM     18  C   UNL     1       2.841  -3.157   4.700  0.00  0.00    +0.162 A 
ATOM     19  C   UNL     1       2.195  -2.090   4.096  0.00  0.00    +0.053 A 
BRANCH  18  20
ATOM     20  O   UNL     1       2.498  -3.537   5.960  0.00  0.00    -0.491 OA
ATOM     21  C   UNL     1       1.462  -2.791   6.603  0.00  0.00    +0.277 C 
ENDBRANCH  18  20
BRANCH  17  22
ATOM     22  O   UNL     1       4.478  -4.887   4.603  0.00  0.00    -0.491 OA
ATOM     23  C   UNL     1       5.495  -5.540   3.840  0.00  0.00    +0.277 C 
ENDBRANCH  17  22
ENDBRANCH   9  14
BRANCH   4  24
ATOM     24  C   UNL     1       1.142   2.896  -1.644  0.00  0.00    +0.010 A 
ATOM     25  C   UNL     1       1.125   2.035  -2.726  0.00  0.00    +0.012 A 
ATOM     26  C   UNL     1       1.843   2.340  -3.868  0.00  0.00    +0.050 A 
ATOM     27  C   UNL     1       2.591   3.506  -3.928  0.00  0.00    +0.165 A 
ATOM     28  C   UNL     1       2.615   4.371  -2.840  0.00  0.00    +0.204 A 
ATOM     29  C   UNL     1       1.888   4.063  -1.696  0.00  0.00    +0.169 A 
BRANCH  29  30
ATOM     30  O   UNL     1       1.907   4.907  -0.630  0.00  0.00    -0.491 OA
ATOM     31  C   UNL     1       1.012   6.020  -0.666  0.00  0.00    +0.277 C 
ENDBRANCH  29  30
BRANCH  28  32
ATOM     32  O   UNL     1       3.348   5.516  -2.896  0.00  0.00    -0.488 OA
ATOM     33  C   UNL     1       4.731   5.418  -2.551  0.00  0.00    +0.277 C 
ENDBRANCH  28  32
BRANCH  27  34
ATOM     34  O   UNL     1       3.301   3.802  -5.049  0.00  0.00    -0.491 OA
ATOM     35  C   UNL     1       3.230   2.868  -6.128  0.00  0.00    +0.277 C 
ENDBRANCH  27  34
ENDBRANCH   4  24
BRANCH   3  36
ATOM     36  C   UNL     1      -1.952   3.279  -1.118  0.00  0.00    +0.337 C 
ATOM     37  O   UNL     1      -3.061   3.021  -1.546  0.00  0.00    -0.245 OA
BRANCH  36  38
ATOM     38  O   UNL     1      -1.573   4.564  -0.954  0.00  0.00    -0.465 OA
ATOM     39  C   UNL     1      -2.525   5.570  -1.303  0.00  0.00    +0.280 C 
ENDBRANCH  36  38
ENDBRANCH   3  36
TORSDOF 9
