REMARK  Name = ZINC03831125
REMARK  16 active torsions:
REMARK  status: ('A' for Active; 'I' for Inactive)
REMARK    1  A    between atoms: C_1  and  C_2
REMARK    2  A    between atoms: C_2  and  C_3
REMARK    3  A    between atoms: C_2  and  C_4
REMARK    4  A    between atoms: C_14  and  C_15
REMARK    5  A    between atoms: C_14  and  O_31
REMARK    6  A    between atoms: C_15  and  C_16
REMARK    7  A    between atoms: C_16  and  N_74
REMARK    8  A    between atoms: C_17  and  N_74
REMARK    9  A    between atoms: C_18  and  C_19
REMARK   10  A    between atoms: C_18  and  N_74
REMARK   11  A    between atoms: C_19  and  C_20
REMARK   12  A    between atoms: C_20  and  C_21
REMARK   13  A    between atoms: O_31  and  C_32
REMARK   14  A    between atoms: C_32  and  C_34
REMARK   15  A    between atoms: C_34  and  O_35
REMARK   16  A    between atoms: O_35  and  C_36
REMARK                            x       y       z     vdW  Elec       q    Type
REMARK                         _______ _______ _______ _____ _____    ______ ____
ROOT
ATOM      1  C   UNL     1       3.580   1.355  -0.178  0.00  0.00    +0.066 C 
ATOM      2  C   UNL     1       2.382   0.565   0.279  0.00  0.00    -0.037 A 
ATOM      3  C   UNL     1       2.568  -0.781   0.570  0.00  0.00    +0.007 A 
ATOM      4  C   UNL     1       1.513  -1.558   1.000  0.00  0.00    +0.038 A 
ATOM      5  C   UNL     1       0.257  -0.993   1.144  0.00  0.00    +0.124 A 
ATOM      6  C   UNL     1       0.071   0.345   0.854  0.00  0.00    +0.042 A 
ATOM      7  C   UNL     1       1.133   1.127   0.418  0.00  0.00    -0.041 A 
ATOM      8  C   UNL     1       0.856   2.574   0.105  0.00  0.00    +0.039 C 
ATOM      9  C   UNL     1       2.156   3.373   0.067  0.00  0.00    +0.053 C 
ATOM     10  C   UNL     1       3.142   2.650  -0.859  0.00  0.00    +0.119 C 
ATOM     11  F   UNL     1      -0.782  -1.746   1.567  0.00  0.00    -0.205 F 
ENDROOT
BRANCH   1  13
ATOM     12  C   UNL     1       3.560   2.029   2.228  0.00  0.00    +0.008 C 
ATOM     13  C   UNL     1       4.453   1.692   1.032  0.00  0.00    -0.006 C 
ATOM     14  C   UNL     1       5.334   0.488   1.377  0.00  0.00    +0.008 C 
ENDBRANCH   1  13
BRANCH  10  15
ATOM     15  C   UNL     1       4.362   3.539  -1.109  0.00  0.00    +0.030 C 
BRANCH  15  16
ATOM     16  C   UNL     1       5.407   2.758  -1.908  0.00  0.00    -0.075 C 
BRANCH  16  18
ATOM     17  C   UNL     1       6.353   4.757  -2.892  0.00  0.00    -0.096 C 
ATOM     18  N   UNL     1       6.625   3.584  -2.035  0.00  0.00    +0.378 N 
ATOM     19  H   UNL     1       6.905   3.911  -1.102  0.00  0.00    -0.082 HD
BRANCH  18  20
ATOM     20  C   UNL     1       7.723   2.781  -2.612  0.00  0.00    -0.079 C 
BRANCH  20  21
ATOM     21  C   UNL     1       9.022   3.585  -2.525  0.00  0.00    -0.011 C 
BRANCH  21  22
ATOM     22  C   UNL     1      10.173   2.757  -3.099  0.00  0.00    +0.072 C 
BRANCH  22  23
ATOM     23  C   UNL     1      11.453   3.549  -3.014  0.00  0.00    +0.108 A 
ATOM     24  N   UNL     1      12.592   3.124  -2.404  0.00  0.00    -0.342 N 
ATOM     25  H   UNL     1      12.726   2.249  -1.940  0.00  0.00    +0.167 HD
ATOM     26  C   UNL     1      13.531   4.127  -2.545  0.00  0.00    +0.066 A 
ATOM     27  C   UNL     1      14.852   4.278  -2.145  0.00  0.00    +0.028 A 
ATOM     28  C   UNL     1      15.528   5.441  -2.447  0.00  0.00    +0.002 A 
ATOM     29  C   UNL     1      14.897   6.460  -3.147  0.00  0.00    +0.002 A 
ATOM     30  C   UNL     1      13.598   6.329  -3.547  0.00  0.00    +0.030 A 
ATOM     31  C   UNL     1      12.893   5.159  -3.253  0.00  0.00    +0.089 A 
ATOM     32  N   UNL     1      11.626   4.740  -3.507  0.00  0.00    -0.232 NA
ENDBRANCH  22  23
ENDBRANCH  21  22
ENDBRANCH  20  21
ENDBRANCH  18  20
ENDBRANCH  16  18
ENDBRANCH  15  16
ENDBRANCH  10  15
BRANCH  10  33
ATOM     33  O   UNL     1       2.492   2.343  -2.120  0.00  0.00    -0.456 OA
BRANCH  33  34
ATOM     34  C   UNL     1       1.950   3.371  -2.792  0.00  0.00    +0.334 C 
ATOM     35  O   UNL     1       2.089   4.500  -2.385  0.00  0.00    -0.248 OA
BRANCH  34  36
ATOM     36  C   UNL     1       1.166   3.117  -4.054  0.00  0.00    +0.279 C 
BRANCH  36  37
ATOM     37  O   UNL     1       0.694   4.359  -4.580  0.00  0.00    -0.372 OA
ATOM     38  C   UNL     1      -0.065   4.230  -5.784  0.00  0.00    +0.194 C 
ENDBRANCH  36  37
ENDBRANCH  34  36
ENDBRANCH  33  34
ENDBRANCH  10  33
TORSDOF 12
