REMARK  Name = ZINC34829941
REMARK  10 active torsions:
REMARK  status: ('A' for Active; 'I' for Inactive)
REMARK    1  A    between atoms: C_1  and  C_2
REMARK    2  A    between atoms: C_2  and  C_3
REMARK    3  A    between atoms: C_3  and  C_4
REMARK    4  A    between atoms: C_4  and  N_5
REMARK    5  A    between atoms: C_13  and  C_15
REMARK    6  A    between atoms: C_16  and  C_18
REMARK    7  A    between atoms: C_18  and  N_19
REMARK    8  A    between atoms: C_27  and  C_29
REMARK    9  A    between atoms: C_32  and  O_35
REMARK   10  A    between atoms: O_35  and  C_36
REMARK                            x       y       z     vdW  Elec       q    Type
REMARK                         _______ _______ _______ _____ _____    ______ ____
ROOT
ATOM      1  C   UNL     1      -8.917  -4.650   1.634  0.00  0.00    +0.020 C 
ENDROOT
BRANCH   1  12
ATOM      2  N   UNL     1      -2.787  -2.571   0.016  0.00  0.00    -0.299 N 
ATOM      3  C   UNL     1      -3.015  -3.899   0.010  0.00  0.00    +0.303 C 
ATOM      4  O   UNL     1      -2.085  -4.675  -0.096  0.00  0.00    -0.253 OA
ATOM      5  N   UNL     1      -4.274  -4.367   0.121  0.00  0.00    -0.280 N 
ATOM      6  C   UNL     1      -5.417  -3.443   0.132  0.00  0.00    +0.128 C 
ATOM      7  C   UNL     1      -6.241  -3.698   1.400  0.00  0.00    +0.126 C 
ATOM      8  N   UNL     1      -6.496  -5.141   1.512  0.00  0.00    -0.300 N 
ATOM      9  C   UNL     1      -5.353  -6.065   1.501  0.00  0.00    +0.130 C 
ATOM     10  C   UNL     1      -4.529  -5.810   0.227  0.00  0.00    +0.092 C 
ATOM     11  C   UNL     1      -5.312  -6.285  -0.999  0.00  0.00    +0.030 C 
ATOM     12  C   UNL     1      -7.755  -5.609   1.623  0.00  0.00    +0.199 C 
ATOM     13  O   UNL     1      -7.953  -6.802   1.715  0.00  0.00    -0.278 OA
ATOM     14  H   UNL     1      -3.533  -1.950   0.027  0.00  0.00    +0.150 HD
BRANCH   2  15
ATOM     15  C   UNL     1      -1.412  -2.064   0.007  0.00  0.00    +0.106 C 
BRANCH  15  16
ATOM     16  C   UNL     1      -1.433  -0.534   0.017  0.00  0.00    +0.018 C 
BRANCH  16  18
ATOM     17  C   UNL     1      -0.018   1.525   0.018  0.00  0.00    +0.004 C 
ATOM     18  C   UNL     1       0.003  -0.004   0.008  0.00  0.00    -0.002 C 
ENDBRANCH  16  18
ENDBRANCH  15  16
ENDBRANCH   2  15
ENDBRANCH   1  12
BRANCH   1  19
ATOM     19  N   UNL     1     -10.172  -5.402   1.764  0.00  0.00    +0.393 N 
ATOM     20  C   UNL     1     -10.189  -6.095   3.059  0.00  0.00    -0.072 C 
ATOM     21  C   UNL     1     -11.327  -7.130   3.055  0.00  0.00    +0.024 C 
ATOM     22  C   UNL     1     -12.550  -6.453   2.530  0.00  0.00    -0.010 A 
ATOM     23  C   UNL     1     -12.597  -5.250   1.891  0.00  0.00    -0.047 A 
ATOM     24  C   UNL     1     -13.856  -4.807   1.491  0.00  0.00    +0.010 A 
ATOM     25  C   UNL     1     -14.950  -5.565   1.739  0.00  0.00    +0.045 A 
ATOM     26  S   UNL     1     -14.239  -6.978   2.572  0.00  0.00    -0.101 S 
ATOM     27  C   UNL     1     -11.305  -4.475   1.653  0.00  0.00    -0.005 C 
ATOM     28  H   UNL     1     -10.228  -6.085   1.022  0.00  0.00    -0.080 HD
BRANCH  27  29
ATOM     29  C   UNL     1     -11.327  -3.866   0.275  0.00  0.00    -0.056 A 
ATOM     30  C   UNL     1     -11.043  -4.648  -0.830  0.00  0.00    +0.006 A 
ATOM     31  C   UNL     1     -11.062  -4.092  -2.094  0.00  0.00    +0.046 A 
ATOM     32  C   UNL     1     -11.367  -2.748  -2.255  0.00  0.00    +0.120 A 
ATOM     33  C   UNL     1     -11.652  -1.966  -1.146  0.00  0.00    +0.046 A 
ATOM     34  C   UNL     1     -11.636  -2.528   0.116  0.00  0.00    +0.006 A 
BRANCH  32  35
ATOM     35  O   UNL     1     -11.386  -2.199  -3.498  0.00  0.00    -0.495 OA
ATOM     36  C   UNL     1     -11.708  -0.810  -3.589  0.00  0.00    +0.277 C 
ENDBRANCH  32  35
ENDBRANCH  27  29
ENDBRANCH   1  19
TORSDOF 7
