REMARK  Name = ZINC09509068
REMARK  8 active torsions:
REMARK  status: ('A' for Active; 'I' for Inactive)
REMARK    1  A    between atoms: C_1  and  C_2
REMARK    2  A    between atoms: C_2  and  C_3
REMARK    3  A    between atoms: C_3  and  C_5
REMARK    4  A    between atoms: C_3  and  N_6
REMARK    5  A    between atoms: C_16  and  S_17
REMARK    6  A    between atoms: S_17  and  C_18
REMARK    7  A    between atoms: C_18  and  C_19
REMARK    8  A    between atoms: N_21  and  C_22
REMARK                            x       y       z     vdW  Elec       q    Type
REMARK                         _______ _______ _______ _____ _____    ______ ____
ROOT
ATOM      1  C   UNL     1      -5.219  -2.006   0.045  0.00  0.00    +0.228 C 
ATOM      2  O   UNL     1      -5.434  -3.199   0.051  0.00  0.00    -0.275 OA
ATOM      3  N   UNL     1      -6.248  -1.135   0.059  0.00  0.00    -0.284 N 
ATOM      4  H   UNL     1      -6.077  -0.183   0.135  0.00  0.00    +0.155 HD
ENDROOT
BRANCH   3   5
ATOM      5  C   UNL     1      -7.555  -1.602  -0.036  0.00  0.00    +0.045 A 
ATOM      6  C   UNL     1      -7.820  -2.826  -0.648  0.00  0.00    +0.024 A 
ATOM      7  C   UNL     1      -9.114  -3.293  -0.743  0.00  0.00    +0.003 A 
ATOM      8  C   UNL     1     -10.171  -2.553  -0.233  0.00  0.00    +0.012 A 
ATOM      9  C   UNL     1      -9.930  -1.329   0.380  0.00  0.00    +0.035 A 
ATOM     10  C   UNL     1      -8.610  -0.848   0.487  0.00  0.00    +0.054 A 
ATOM     11  C   UNL     1      -8.355   0.448   1.144  0.00  0.00    +0.196 C 
ATOM     12  O   UNL     1      -7.225   0.763   1.464  0.00  0.00    -0.287 OA
ATOM     13  C   UNL     1      -9.490   1.359   1.409  0.00  0.00    +0.033 A 
ATOM     14  C   UNL     1      -9.265   2.686   1.758  0.00  0.00    +0.012 A 
ATOM     15  C   UNL     1     -10.339   3.525   2.002  0.00  0.00    +0.001 A 
ATOM     16  C   UNL     1     -11.634   3.053   1.901  0.00  0.00    +0.001 A 
ATOM     17  C   UNL     1     -11.876   1.735   1.555  0.00  0.00    +0.012 A 
ATOM     18  C   UNL     1     -10.808   0.878   1.308  0.00  0.00    +0.033 A 
ATOM     19  C   UNL     1     -11.047  -0.528   0.925  0.00  0.00    +0.195 C 
ATOM     20  O   UNL     1     -12.146  -1.024   1.071  0.00  0.00    -0.287 OA
ENDBRANCH   3   5
BRANCH   1  21
ATOM     21  C   UNL     1      -3.801  -1.496   0.023  0.00  0.00    +0.173 C 
BRANCH  21  22
ATOM     22  S   UNL     1      -2.656  -2.897   0.008  0.00  0.00    -0.078 S 
BRANCH  22  33
ATOM     23  N   UNL     1       0.036  -2.766  -0.033  0.00  0.00    -0.284 N 
ATOM     24  C   UNL     1       1.239  -2.147  -0.052  0.00  0.00    +0.263 A 
ATOM     25  O   UNL     1       2.276  -2.782  -0.066  0.00  0.00    -0.267 OA
ATOM     26  C   UNL     1       1.245  -0.677  -0.056  0.00  0.00    +0.065 A 
ATOM     27  C   UNL     1       2.431   0.054  -0.075  0.00  0.00    +0.015 A 
ATOM     28  C   UNL     1       2.380   1.421  -0.077  0.00  0.00    +0.001 A 
ATOM     29  C   UNL     1       1.161   2.086  -0.060  0.00  0.00    +0.002 A 
ATOM     30  C   UNL     1      -0.017   1.393  -0.042  0.00  0.00    +0.028 A 
ATOM     31  C   UNL     1       0.002  -0.004  -0.039  0.00  0.00    +0.079 A 
ATOM     32  N   UNL     1      -1.137  -0.727  -0.020  0.00  0.00    -0.223 NA
ATOM     33  C   UNL     1      -1.119  -2.037  -0.017  0.00  0.00    +0.173 A 
BRANCH  23  34
ATOM     34  C   UNL     1      -0.029  -4.230  -0.028  0.00  0.00    +0.089 C 
ATOM     35  C   UNL     1       0.651  -4.774  -1.286  0.00  0.00    +0.031 C 
BRANCH  34  37
ATOM     36  C   UNL     1      -0.065  -4.326   2.468  0.00  0.00    +0.006 C 
ATOM     37  C   UNL     1       0.688  -4.768   1.212  0.00  0.00    +0.021 C 
ENDBRANCH  34  37
ENDBRANCH  23  34
ENDBRANCH  22  33
ENDBRANCH  21  22
ENDBRANCH   1  21
TORSDOF 6
