REMARK  Name = ZINC01444412
REMARK  4 active torsions:
REMARK  status: ('A' for Active; 'I' for Inactive)
REMARK    1  A    between atoms: C_3  and  C_6
REMARK    2  A    between atoms: C_13  and  N_27
REMARK    3  A    between atoms: C_14  and  C_25
REMARK    4  A    between atoms: C_15  and  C_17
REMARK                            x       y       z     vdW  Elec       q    Type
REMARK                         _______ _______ _______ _____ _____    ______ ____
ROOT
ATOM      1  C   UNL     1       3.740   1.825  -0.024  0.00  0.00    +0.107 A 
ATOM      2  C   UNL     1       4.835   1.222   0.607  0.00  0.00    +0.055 A 
ATOM      3  C   UNL     1       5.938   1.986   0.358  0.00  0.00    +0.223 A 
ATOM      4  N   UNL     1       5.552   3.033  -0.401  0.00  0.00    -0.246 N 
ATOM      5  H   UNL     1       6.127   3.741  -0.729  0.00  0.00    +0.192 HD
ATOM      6  N   UNL     1       4.174   2.913  -0.636  0.00  0.00    -0.170 NA
ATOM      7  O   UNL     1       7.170   1.668   0.831  0.00  0.00    -0.423 OA
ATOM      8  C   UNL     1       7.346   0.428   1.331  0.00  0.00    +0.200 C 
ATOM      9  C   UNL     1       6.332  -0.414   1.629  0.00  0.00    +0.098 C 
ATOM     10  C   UNL     1       4.885  -0.038   1.431  0.00  0.00    +0.104 C 
ENDROOT
BRANCH  10  11
ATOM     11  C   UNL     1       4.235   0.204   2.769  0.00  0.00    +0.001 A 
ATOM     12  C   UNL     1       4.734   1.177   3.614  0.00  0.00    +0.010 A 
ATOM     13  C   UNL     1       4.139   1.400   4.841  0.00  0.00    +0.039 A 
ATOM     14  C   UNL     1       3.041   0.648   5.225  0.00  0.00    +0.126 A 
ATOM     15  C   UNL     1       2.540  -0.327   4.380  0.00  0.00    +0.077 A 
ATOM     16  C   UNL     1       3.134  -0.545   3.149  0.00  0.00    +0.130 A 
ATOM     17  F   UNL     1       2.643  -1.493   2.320  0.00  0.00    -0.205 F 
ATOM     18  F   UNL     1       2.460   0.865   6.425  0.00  0.00    -0.205 F 
ENDBRANCH  10  11
BRANCH   1  21
ATOM     19  C   UNL     1      -0.016   1.353   0.009  0.00  0.00    +0.008 A 
ATOM     20  C   UNL     1       1.178   2.041   0.002  0.00  0.00    +0.018 A 
ATOM     21  C   UNL     1       2.347   1.329  -0.013  0.00  0.00    +0.040 A 
ATOM     22  S   UNL     1       1.752  -0.354  -0.017  0.00  0.00    -0.095 S 
ATOM     23  C   UNL     1       0.002  -0.004   0.002  0.00  0.00    +0.046 A 
ENDBRANCH   1  21
BRANCH   8  24
ATOM     24  N   UNL     1       8.631  -0.004   1.550  0.00  0.00    -0.328 N 
ATOM     25  H   UNL     1       9.380   0.578   1.345  0.00  0.00    +0.145 HD
ATOM     26  H   UNL     1       8.790  -0.890   1.909  0.00  0.00    +0.145 HD
ENDBRANCH   8  24
BRANCH   9  27
ATOM     27  C   UNL     1       6.643  -1.710   2.152  0.00  0.00    +0.101 C 
ATOM     28  N   UNL     1       6.889  -2.739   2.567  0.00  0.00    -0.191 NA
ENDBRANCH   9  27
TORSDOF 4
