REMARK  Name = ZINC39404658
REMARK  3 active torsions:
REMARK  status: ('A' for Active; 'I' for Inactive)
REMARK    1  A    between atoms: C_4  and  N_19
REMARK    2  A    between atoms: C_5  and  C_7
REMARK    3  A    between atoms: C_20  and  C_22
REMARK                            x       y       z     vdW  Elec       q    Type
REMARK                         _______ _______ _______ _____ _____    ______ ____
ROOT
ATOM      1  C   UNL     1      -0.007   1.395   0.036  0.00  0.00    +0.000 A 
ATOM      2  C   UNL     1       1.182   2.100   0.024  0.00  0.00    +0.002 A 
ATOM      3  C   UNL     1       2.387   1.425  -0.001  0.00  0.00    +0.023 A 
ATOM      4  C   UNL     1       2.403   0.036  -0.012  0.00  0.00    +0.039 A 
ATOM      5  C   UNL     1       1.207  -0.669   0.001  0.00  0.00    +0.005 A 
ATOM      6  C   UNL     1       0.005   0.012   0.025  0.00  0.00    +0.008 A 
ENDROOT
BRANCH   5   7
ATOM      7  C   UNL     1       1.219  -2.176  -0.011  0.00  0.00    +0.198 C 
ATOM      8  C   UNL     1       1.552  -2.623  -1.417  0.00  0.00    +0.244 C 
ATOM      9  O   UNL     1       2.585  -2.267  -1.947  0.00  0.00    -0.273 OA
ATOM     10  N   UNL     1       0.695  -3.413  -2.067  0.00  0.00    -0.282 N 
ATOM     11  C   UNL     1      -0.436  -3.815  -1.511  0.00  0.00    +0.057 A 
ATOM     12  C   UNL     1      -1.321  -4.652  -2.228  0.00  0.00    +0.025 A 
ATOM     13  C   UNL     1      -2.480  -5.065  -1.664  0.00  0.00    +0.002 A 
ATOM     14  C   UNL     1      -2.867  -4.698  -0.365  0.00  0.00    +0.002 A 
ATOM     15  C   UNL     1      -2.095  -3.901   0.407  0.00  0.00    +0.027 A 
ATOM     16  C   UNL     1      -0.818  -3.409  -0.135  0.00  0.00    +0.058 A 
ATOM     17  N   UNL     1      -0.047  -2.640   0.577  0.00  0.00    -0.369 N 
ATOM     18  H   UNL     1       0.907  -3.700  -2.969  0.00  0.00    +0.155 HD
ATOM     19  H   UNL     1      -0.301  -2.379   1.476  0.00  0.00    +0.161 HD
ENDBRANCH   5   7
BRANCH   4  20
ATOM     20  N   UNL     1       3.621  -0.650  -0.036  0.00  0.00    -0.279 N 
ATOM     21  C   UNL     1       4.668  -0.140  -0.714  0.00  0.00    +0.284 C 
ATOM     22  O   UNL     1       4.580   0.956  -1.235  0.00  0.00    -0.266 OA
ATOM     23  H   UNL     1       3.712  -1.494   0.434  0.00  0.00    +0.155 HD
BRANCH  21  24
ATOM     24  C   UNL     1       5.914  -0.905  -0.822  0.00  0.00    +0.189 A 
ATOM     25  C   UNL     1       7.048  -0.505  -1.471  0.00  0.00    +0.054 A 
ATOM     26  C   UNL     1       7.984  -1.540  -1.321  0.00  0.00    +0.042 A 
ATOM     27  C   UNL     1       7.390  -2.513  -0.597  0.00  0.00    +0.196 A 
ATOM     28  O   UNL     1       6.144  -2.125  -0.294  0.00  0.00    -0.458 OA
ENDBRANCH  21  24
ENDBRANCH   4  20
TORSDOF 3
