REMARK  Name = ZINC36312988
REMARK  13 active torsions:
REMARK  status: ('A' for Active; 'I' for Inactive)
REMARK    1  A    between atoms: C_4  and  C_7
REMARK    2  A    between atoms: C_8  and  C_18
REMARK    3  A    between atoms: C_9  and  N_12
REMARK    4  A    between atoms: C_18  and  N_19
REMARK    5  A    between atoms: N_19  and  C_20
REMARK    6  A    between atoms: N_19  and  C_26
REMARK    7  A    between atoms: C_20  and  C_21
REMARK    8  A    between atoms: C_26  and  C_27
REMARK    9  A    between atoms: C_27  and  C_29
REMARK   10  A    between atoms: C_27  and  O_37
REMARK   11  A    between atoms: C_29  and  O_30
REMARK   12  A    between atoms: O_30  and  C_31
REMARK   13  A    between atoms: C_31  and  C_32
REMARK                            x       y       z     vdW  Elec       q    Type
REMARK                         _______ _______ _______ _____ _____    ______ ____
ROOT
ATOM      1  N   UNL     1       2.727  -4.063   0.995  0.00  0.00    +0.389 N 
ATOM      2  H   UNL     1       3.101  -4.903   0.580  0.00  0.00    -0.081 HD
ENDROOT
BRANCH   1   3
ATOM      3  C   UNL     1       3.832  -3.207   1.448  0.00  0.00    -0.035 C 
BRANCH   3   5
ATOM      4  C   UNL     1       5.321  -1.937  -0.265  0.00  0.00    +0.117 A 
ATOM      5  C   UNL     1       4.876  -3.119   0.364  0.00  0.00    +0.025 A 
ATOM      6  C   UNL     1       5.554  -4.162  -0.178  0.00  0.00    +0.222 A 
ATOM      7  O   UNL     1       6.392  -3.675  -1.108  0.00  0.00    -0.339 OA
ATOM      8  N   UNL     1       6.229  -2.269  -1.154  0.00  0.00    -0.076 NA
BRANCH   4  12
ATOM      9  C   UNL     1       3.951   2.004   0.558  0.00  0.00    +0.000 A 
ATOM     10  C   UNL     1       5.299   1.771   0.355  0.00  0.00    +0.001 A 
ATOM     11  C   UNL     1       5.749   0.494   0.088  0.00  0.00    +0.010 A 
ATOM     12  C   UNL     1       4.843  -0.562   0.023  0.00  0.00    +0.004 A 
ATOM     13  C   UNL     1       3.486  -0.322   0.228  0.00  0.00    +0.010 A 
ATOM     14  C   UNL     1       3.047   0.959   0.495  0.00  0.00    +0.001 A 
ENDBRANCH   4  12
BRANCH   6  15
ATOM     15  N   UNL     1       5.408  -5.493   0.168  0.00  0.00    -0.299 N 
ATOM     16  C   UNL     1       4.574  -6.390  -0.645  0.00  0.00    +0.108 C 
ATOM     17  C   UNL     1       5.407  -7.614  -1.039  0.00  0.00    +0.019 C 
ATOM     18  C   UNL     1       5.983  -8.262   0.222  0.00  0.00    +0.003 C 
ATOM     19  C   UNL     1       6.898  -7.265   0.937  0.00  0.00    +0.019 C 
ATOM     20  C   UNL     1       6.087  -6.039   1.350  0.00  0.00    +0.108 C 
ENDBRANCH   6  15
ENDBRANCH   3   5
ENDBRANCH   1   3
BRANCH   1  21
ATOM     21  C   UNL     1       1.925  -3.340  -0.001  0.00  0.00    -0.003 C 
BRANCH  21  22
ATOM     22  C   UNL     1       2.680  -3.273  -1.303  0.00  0.00    +0.089 A 
ATOM     23  C   UNL     1       2.735  -4.244  -2.232  0.00  0.00    +0.042 A 
ATOM     24  C   UNL     1       3.549  -3.761  -3.282  0.00  0.00    +0.041 A 
ATOM     25  C   UNL     1       3.943  -2.524  -2.932  0.00  0.00    +0.195 A 
ATOM     26  O   UNL     1       3.409  -2.231  -1.735  0.00  0.00    -0.470 OA
ENDBRANCH  21  22
ENDBRANCH   1  21
BRANCH   1  27
ATOM     27  C   UNL     1       1.881  -4.418   2.142  0.00  0.00    -0.044 C 
BRANCH  27  28
ATOM     28  C   UNL     1       0.965  -5.581   1.759  0.00  0.00    +0.124 C 
BRANCH  28  29
ATOM     29  O   UNL     1       0.006  -5.136   0.797  0.00  0.00    -0.391 OA
ATOM     30  H   UNL     1      -0.561  -4.418   1.111  0.00  0.00    +0.210 HD
ENDBRANCH  28  29
BRANCH  28  31
ATOM     31  C   UNL     1       0.238  -6.090   3.006  0.00  0.00    +0.189 C 
BRANCH  31  32
ATOM     32  O   UNL     1      -0.528  -7.249   2.671  0.00  0.00    -0.370 OA
BRANCH  32  33
ATOM     33  C   UNL     1      -1.250  -7.807   3.771  0.00  0.00    +0.234 C 
BRANCH  33  34
ATOM     34  C   UNL     1      -2.018  -9.017   3.306  0.00  0.00    +0.130 A 
ATOM     35  C   UNL     1      -1.565 -10.284   3.308  0.00  0.00    +0.047 A 
ATOM     36  C   UNL     1      -2.606 -11.091   2.792  0.00  0.00    +0.041 A 
ATOM     37  C   UNL     1      -3.632 -10.269   2.507  0.00  0.00    +0.195 A 
ATOM     38  O   UNL     1      -3.272  -9.015   2.825  0.00  0.00    -0.465 OA
ENDBRANCH  33  34
ENDBRANCH  32  33
ENDBRANCH  31  32
ENDBRANCH  28  31
ENDBRANCH  27  28
ENDBRANCH   1  27
TORSDOF 13
