REMARK  Name = ZINC09284435
REMARK  7 active torsions:
REMARK  status: ('A' for Active; 'I' for Inactive)
REMARK    1  A    between atoms: C_3  and  C_6
REMARK    2  A    between atoms: C_6  and  O_8
REMARK    3  A    between atoms: O_8  and  C_9
REMARK    4  A    between atoms: C_9  and  C_10
REMARK    5  A    between atoms: N_12  and  C_13
REMARK    6  A    between atoms: C_15  and  S_20
REMARK    7  A    between atoms: S_20  and  N_23
REMARK                            x       y       z     vdW  Elec       q    Type
REMARK                         _______ _______ _______ _____ _____    ______ ____
ROOT
ATOM      1  C   UNL     1       2.338   1.173   0.079  0.00  0.00    +0.054 A 
ATOM      2  C   UNL     1       2.310  -0.216   0.070  0.00  0.00    +0.053 A 
ATOM      3  C   UNL     1       3.491  -0.929   0.142  0.00  0.00    +0.107 A 
ATOM      4  C   UNL     1       4.699  -0.263   0.234  0.00  0.00    +0.030 A 
ATOM      5  C   UNL     1       4.731   1.119   0.248  0.00  0.00    +0.024 A 
ATOM      6  C   UNL     1       3.553   1.840   0.171  0.00  0.00    +0.062 A 
ATOM      7 CL   UNL     1       3.593   3.575   0.189  0.00  0.00    -0.082 Cl
ENDROOT
BRANCH   1  10
ATOM      8  C   UNL     1       0.054   1.345  -0.567  0.00  0.00    +0.255 C 
ATOM      9  O   UNL     1       0.134   0.258  -1.100  0.00  0.00    -0.272 OA
ATOM     10  N   UNL     1       1.143   1.898   0.001  0.00  0.00    -0.281 N 
ATOM     11  H   UNL     1       1.100   2.800   0.356  0.00  0.00    +0.155 HD
BRANCH   8  12
ATOM     12  C   UNL     1      -1.262   2.078  -0.545  0.00  0.00    +0.328 C 
BRANCH  12  13
ATOM     13  O   UNL     1      -2.271   1.282  -1.222  0.00  0.00    -0.450 OA
BRANCH  13  14
ATOM     14  C   UNL     1      -3.515   1.800  -1.291  0.00  0.00    +0.375 C 
ATOM     15  O   UNL     1      -3.749   2.887  -0.798  0.00  0.00    -0.241 OA
BRANCH  14  18
ATOM     16  C   UNL     1      -6.548   0.441  -2.797  0.00  0.00    +0.042 A 
ATOM     17  C   UNL     1      -5.880   1.458  -2.099  0.00  0.00    +0.056 A 
ATOM     18  C   UNL     1      -4.583   1.053  -1.958  0.00  0.00    +0.211 A 
ATOM     19  O   UNL     1      -4.457  -0.155  -2.548  0.00  0.00    -0.456 OA
ATOM     20  C   UNL     1      -5.641  -0.529  -3.050  0.00  0.00    +0.196 A 
ENDBRANCH  14  18
ENDBRANCH  13  14
ENDBRANCH  12  13
ENDBRANCH   8  12
ENDBRANCH   1  10
BRANCH   3  21
ATOM     21  S   UNL     1       3.457  -2.691   0.124  0.00  0.00    +0.061 S 
ATOM     22  O   UNL     1       2.246  -3.067  -0.518  0.00  0.00    -0.153 OA
ATOM     23  O   UNL     1       4.730  -3.117  -0.342  0.00  0.00    -0.153 OA
BRANCH  21  24
ATOM     24  N   UNL     1       3.335  -3.194   1.697  0.00  0.00    -0.177 NA
ATOM     25  C   UNL     1       4.549  -3.436   2.443  0.00  0.00    +0.109 C 
ATOM     26  C   UNL     1       4.999  -4.900   2.254  0.00  0.00    +0.017 C 
ATOM     27  C   UNL     1       4.090  -5.809   2.968  0.00  0.00    +0.001 C 
ATOM     28  C   UNL     1       2.651  -5.786   2.460  0.00  0.00    +0.001 C 
ATOM     29  C   UNL     1       1.902  -4.661   3.131  0.00  0.00    +0.017 C 
ATOM     30  C   UNL     1       1.991  -3.383   2.277  0.00  0.00    +0.109 C 
ENDBRANCH  21  24
ENDBRANCH   3  21
TORSDOF 7
