REMARK  Name = ZINC13455753
REMARK  16 active torsions:
REMARK  status: ('A' for Active; 'I' for Inactive)
REMARK    1  A    between atoms: C_1  and  C_2
REMARK    2  A    between atoms: C_2  and  C_4
REMARK    3  A    between atoms: C_2  and  C_14
REMARK    4  A    between atoms: C_4  and  C_5
REMARK    5  A    between atoms: C_5  and  C_6
REMARK    6  A    between atoms: C_6  and  C_7
REMARK    7  A    between atoms: C_16  and  O_35
REMARK    8  A    between atoms: C_17  and  C_21
REMARK    9  A    between atoms: C_18  and  O_20
REMARK   10  A    between atoms: C_22  and  C_31
REMARK   11  A    between atoms: C_26  and  C_27
REMARK   12  A    between atoms: C_26  and  N_72
REMARK   13  A    between atoms: N_29  and  C_30
REMARK   14  A    between atoms: C_31  and  C_32
REMARK   15  A    between atoms: C_31  and  C_33
REMARK   16  A    between atoms: C_31  and  O_34
REMARK                            x       y       z     vdW  Elec       q    Type
REMARK                         _______ _______ _______ _____ _____    ______ ____
ROOT
ATOM      1  C   UNL     1      -6.369  -0.689   1.030  0.00  0.00    -0.038 A 
ATOM      2  C   UNL     1      -6.038   0.362   0.195  0.00  0.00    +0.050 A 
ATOM      3  C   UNL     1      -4.709   0.690  -0.020  0.00  0.00    +0.128 A 
ATOM      4  C   UNL     1      -3.701  -0.047   0.611  0.00  0.00    +0.059 A 
ATOM      5  C   UNL     1      -4.045  -1.112   1.451  0.00  0.00    +0.128 A 
ATOM      6  C   UNL     1      -5.380  -1.422   1.658  0.00  0.00    +0.050 A 
ENDROOT
BRANCH   4   7
ATOM      7  C   UNL     1      -2.281   0.295   0.389  0.00  0.00    -0.048 C 
ATOM      8  C   UNL     1      -1.687   1.097   1.246  0.00  0.00    -0.039 C 
ATOM      9  C   UNL     1      -0.245   1.514   1.108  0.00  0.00    +0.015 C 
ATOM     10  C   UNL     1       0.466   0.574   0.130  0.00  0.00    -0.073 C 
ATOM     11  C   UNL     1      -1.583  -0.290  -0.805  0.00  0.00    -0.041 C 
ATOM     12  N   UNL     1      -0.358   0.479  -1.092  0.00  0.00    +0.388 N 
ATOM     13  H   UNL     1      -0.618   1.425  -1.395  0.00  0.00    -0.081 HD
BRANCH   8  14
ATOM     14  C   UNL     1      -2.481   1.621   2.415  0.00  0.00    +0.082 C 
ATOM     15  C   UNL     1      -2.027   0.917   3.696  0.00  0.00    +0.046 C 
ATOM     16  C   UNL     1      -2.252   3.127   2.553  0.00  0.00    +0.046 C 
BRANCH  14  17
ATOM     17  O   UNL     1      -3.870   1.368   2.200  0.00  0.00    -0.385 OA
ATOM     18  H   UNL     1      -4.301   2.009   1.618  0.00  0.00    +0.211 HD
ENDBRANCH  14  17
ENDBRANCH   8  14
BRANCH  12  19
ATOM     19  C   UNL     1       0.411  -0.178  -2.173  0.00  0.00    +0.019 C 
BRANCH  19  20
ATOM     20  C   UNL     1       1.524   0.740  -2.609  0.00  0.00    +0.196 C 
ATOM     21  O   UNL     1       1.679   1.809  -2.058  0.00  0.00    -0.278 OA
ATOM     22  N   UNL     1       2.346   0.373  -3.612  0.00  0.00    -0.320 N 
ATOM     23  C   UNL     1       3.428   1.265  -4.036  0.00  0.00    +0.128 C 
ATOM     24  H   UNL     1       2.222  -0.483  -4.052  0.00  0.00    +0.148 HD
ENDBRANCH  19  20
ENDBRANCH  12  19
ENDBRANCH   4   7
BRANCH   1  26
ATOM     25  C   UNL     1      -8.146  -0.907   2.746  0.00  0.00    +0.012 C 
ATOM     26  C   UNL     1      -7.818  -1.037   1.257  0.00  0.00    +0.016 C 
BRANCH  26  27
ATOM     27  C   UNL     1      -8.074  -2.475   0.802  0.00  0.00    +0.008 C 
BRANCH  27  28
ATOM     28  C   UNL     1      -9.567  -2.788   0.916  0.00  0.00    +0.005 C 
BRANCH  28  29
ATOM     29  C   UNL     1      -9.823  -4.226   0.461  0.00  0.00    +0.035 C 
BRANCH  29  30
ATOM     30  C   UNL     1     -11.294  -4.534   0.573  0.00  0.00    -0.047 A 
ATOM     31  C   UNL     1     -11.801  -5.065   1.744  0.00  0.00    +0.006 A 
ATOM     32  C   UNL     1     -13.151  -5.343   1.850  0.00  0.00    +0.038 A 
ATOM     33  C   UNL     1     -13.993  -5.100   0.778  0.00  0.00    +0.123 A 
ATOM     34  C   UNL     1     -13.483  -4.573  -0.396  0.00  0.00    +0.038 A 
ATOM     35  C   UNL     1     -12.134  -4.290  -0.498  0.00  0.00    +0.006 A 
ATOM     36  F   UNL     1     -15.312  -5.376   0.879  0.00  0.00    -0.205 F 
ENDBRANCH  29  30
ENDBRANCH  28  29
ENDBRANCH  27  28
ENDBRANCH  26  27
ENDBRANCH   1  26
BRANCH   5  37
ATOM     37  O   UNL     1      -3.074  -1.838   2.064  0.00  0.00    -0.506 OA
ATOM     38  H   UNL     1      -2.818  -1.496   2.932  0.00  0.00    +0.292 HD
ENDBRANCH   5  37
BRANCH   3  39
ATOM     39  O   UNL     1      -4.386   1.723  -0.841  0.00  0.00    -0.506 OA
ATOM     40  H   UNL     1      -4.267   1.468  -1.766  0.00  0.00    +0.292 HD
ENDBRANCH   3  39
TORSDOF 12
