REMARK  Name = ZINC43262581
REMARK  8 active torsions:
REMARK  status: ('A' for Active; 'I' for Inactive)
REMARK    1  A    between atoms: C_1  and  C_2
REMARK    2  A    between atoms: C_2  and  C_3
REMARK    3  A    between atoms: C_3  and  C_5
REMARK    4  A    between atoms: C_3  and  N_23
REMARK    5  A    between atoms: C_5  and  C_7
REMARK    6  A    between atoms: C_5  and  N_13
REMARK    7  A    between atoms: C_16  and  C_19
REMARK    8  A    between atoms: C_19  and  C_20
REMARK                            x       y       z     vdW  Elec       q    Type
REMARK                         _______ _______ _______ _____ _____    ______ ____
ROOT
ATOM      1  C   UNL     1       0.629  -2.085   1.302  0.00  0.00    +0.079 C 
ENDROOT
BRANCH   1   2
ATOM      2  C   UNL     1       1.187  -2.615   0.006  0.00  0.00    +0.006 A 
ATOM      3  C   UNL     1       0.524  -3.067  -1.087  0.00  0.00    +0.014 A 
ATOM      4  C   UNL     1       1.251  -3.511  -2.176  0.00  0.00    +0.023 A 
ATOM      5  C   UNL     1       2.606  -3.480  -2.118  0.00  0.00    +0.055 A 
ATOM      6  S   UNL     1       2.891  -2.802  -0.491  0.00  0.00    -0.085 S 
ATOM      7 BR   UNL     1       3.865  -4.011  -3.425  0.00  0.00    -0.043 Br
ENDBRANCH   1   2
BRANCH   1   8
ATOM      8  N   UNL     1       1.442  -2.577   2.422  0.00  0.00    -0.296 NA
ATOM      9  C   UNL     1       0.977  -2.016   3.697  0.00  0.00    +0.085 C 
ATOM     10  C   UNL     1       1.931  -2.432   4.818  0.00  0.00    +0.019 C 
ATOM     11  C   UNL     1       1.979  -3.961   4.899  0.00  0.00    +0.000 C 
ATOM     12  C   UNL     1       2.420  -4.522   3.545  0.00  0.00    +0.019 C 
ATOM     13  C   UNL     1       1.451  -4.045   2.461  0.00  0.00    +0.085 C 
BRANCH  11  14
ATOM     14  C   UNL     1       2.978  -4.384   5.978  0.00  0.00    +0.099 C 
BRANCH  14  15
ATOM     15  C   UNL     1       2.935  -5.881   6.143  0.00  0.00    +0.211 C 
ATOM     16  O   UNL     1       2.179  -6.545   5.464  0.00  0.00    -0.276 OA
ATOM     17  N   UNL     1       3.735  -6.484   7.044  0.00  0.00    -0.329 N 
ATOM     18  H   UNL     1       4.340  -5.953   7.587  0.00  0.00    +0.145 HD
ATOM     19  H   UNL     1       3.707  -7.448   7.150  0.00  0.00    +0.145 HD
ENDBRANCH  14  15
ENDBRANCH  11  14
ENDBRANCH   1   8
BRANCH   1  20
ATOM     20  C   UNL     1       0.660  -0.555   1.283  0.00  0.00    -0.053 C 
BRANCH  20  21
ATOM     21  N   UNL     1      -0.062  -0.066   0.101  0.00  0.00    +0.381 N 
ATOM     22  H   UNL     1       0.439  -0.331  -0.733  0.00  0.00    -0.090 HD
ATOM     23  H   UNL     1      -0.987  -0.470   0.081  0.00  0.00    -0.090 HD
ATOM     24  H   UNL     1      -0.136   0.940   0.145  0.00  0.00    -0.090 HD
ENDBRANCH  20  21
BRANCH  20  26
ATOM     25  C   UNL     1       2.148   1.451   1.336  0.00  0.00    +0.002 C 
ATOM     26  C   UNL     1       2.111  -0.075   1.229  0.00  0.00    -0.018 C 
ENDBRANCH  20  26
ENDBRANCH   1  20
TORSDOF 7
