REMARK  Name = ZINC38595817
REMARK  11 active torsions:
REMARK  status: ('A' for Active; 'I' for Inactive)
REMARK    1  A    between atoms: C_1  and  C_2
REMARK    2  A    between atoms: C_2  and  C_3
REMARK    3  A    between atoms: C_3  and  C_4
REMARK    4  A    between atoms: C_4  and  C_5
REMARK    5  A    between atoms: C_5  and  N_6
REMARK    6  A    between atoms: C_7  and  C_24
REMARK    7  A    between atoms: C_13  and  C_23
REMARK    8  A    between atoms: C_15  and  C_22
REMARK    9  A    between atoms: C_26  and  O_32
REMARK   10  A    between atoms: C_27  and  O_31
REMARK   11  A    between atoms: O_32  and  C_33
REMARK                            x       y       z     vdW  Elec       q    Type
REMARK                         _______ _______ _______ _____ _____    ______ ____
ROOT
ATOM      1  N   UNL     1      -2.828  -4.058   0.007  0.00  0.00    -0.284 N 
ATOM      2  C   UNL     1      -2.822  -4.916  -1.189  0.00  0.00    +0.145 C 
ATOM      3  C   UNL     1      -2.803  -6.321  -0.682  0.00  0.00    +0.072 A 
ATOM      4  C   UNL     1      -2.799  -7.604  -1.392  0.00  0.00    +0.199 A 
ATOM      5  O   UNL     1      -2.635  -7.701  -2.595  0.00  0.00    -0.287 OA
ATOM      6  C   UNL     1      -3.013  -8.775  -0.504  0.00  0.00    +0.067 A 
ATOM      7  C   UNL     1      -3.233 -10.041  -1.045  0.00  0.00    -0.036 A 
ATOM      8  C   UNL     1      -3.433 -11.108  -0.214  0.00  0.00    +0.007 A 
ATOM      9  C   UNL     1      -3.418 -10.934   1.163  0.00  0.00    -0.047 A 
ATOM     10  C   UNL     1      -3.200  -9.692   1.714  0.00  0.00    +0.050 A 
ATOM     11  C   UNL     1      -2.991  -8.588   0.888  0.00  0.00    +0.140 A 
ATOM     12  O   UNL     1      -2.769  -7.378   1.451  0.00  0.00    -0.450 OA
ATOM     13  C   UNL     1      -2.793  -6.271   0.683  0.00  0.00    +0.199 A 
ATOM     14  C   UNL     1      -2.806  -4.856   1.094  0.00  0.00    +0.283 C 
ATOM     15  O   UNL     1      -2.801  -4.465   2.244  0.00  0.00    -0.267 OA
ATOM     16  C   UNL     1      -3.643 -12.120   2.065  0.00  0.00    +0.044 C 
ATOM     17  C   UNL     1      -3.251 -10.233  -2.540  0.00  0.00    +0.044 C 
ENDROOT
BRANCH   2  18
ATOM     18  C   UNL     1      -4.063  -4.675  -2.009  0.00  0.00    -0.018 A 
ATOM     19  C   UNL     1      -3.983  -4.643  -3.389  0.00  0.00    +0.055 A 
ATOM     20  C   UNL     1      -5.123  -4.421  -4.144  0.00  0.00    +0.163 A 
ATOM     21  C   UNL     1      -6.347  -4.231  -3.511  0.00  0.00    +0.173 A 
ATOM     22  C   UNL     1      -6.421  -4.264  -2.128  0.00  0.00    +0.063 A 
ATOM     23  C   UNL     1      -5.280  -4.491  -1.379  0.00  0.00    +0.025 A 
ATOM     24 BR   UNL     1      -8.083  -4.006  -1.263  0.00  0.00    -0.046 Br
BRANCH  21  25
ATOM     25  O   UNL     1      -7.469  -4.012  -4.249  0.00  0.00    -0.503 OA
ATOM     26  H   UNL     1      -7.944  -4.819  -4.491  0.00  0.00    +0.292 HD
ENDBRANCH  21  25
BRANCH  20  27
ATOM     27  O   UNL     1      -5.045  -4.389  -5.502  0.00  0.00    -0.491 OA
ATOM     28  C   UNL     1      -3.755  -4.592  -6.082  0.00  0.00    +0.277 C 
ENDBRANCH  20  27
ENDBRANCH   2  18
BRANCH   1  29
ATOM     29  C   UNL     1      -2.848  -2.593   0.015  0.00  0.00    +0.109 C 
BRANCH  29  30
ATOM     30  C   UNL     1      -1.413  -2.063   0.004  0.00  0.00    +0.019 C 
BRANCH  30  31
ATOM     31  C   UNL     1      -1.433  -0.534   0.013  0.00  0.00    +0.001 C 
BRANCH  31  33
ATOM     32  C   UNL     1      -0.019   1.526   0.010  0.00  0.00    +0.004 C 
ATOM     33  C   UNL     1       0.002  -0.004   0.002  0.00  0.00    -0.003 C 
ENDBRANCH  31  33
ENDBRANCH  30  31
ENDBRANCH  29  30
ENDBRANCH   1  29
TORSDOF 7
