REMARK  Name = ZINC09128408
REMARK  10 active torsions:
REMARK  status: ('A' for Active; 'I' for Inactive)
REMARK    1  A    between atoms: C_1  and  C_2
REMARK    2  A    between atoms: C_5  and  S_8
REMARK    3  A    between atoms: S_8  and  N_11
REMARK    4  A    between atoms: N_11  and  C_12
REMARK    5  A    between atoms: N_11  and  C_13
REMARK    6  A    between atoms: C_16  and  O_19
REMARK    7  A    between atoms: O_19  and  C_20
REMARK    8  A    between atoms: C_20  and  C_21
REMARK    9  A    between atoms: N_23  and  C_24
REMARK   10  A    between atoms: C_25  and  C_29
REMARK                            x       y       z     vdW  Elec       q    Type
REMARK                         _______ _______ _______ _____ _____    ______ ____
ROOT
ATOM      1  C   UNL     1      -0.262  -3.103   0.267  0.00  0.00    +0.051 A 
ATOM      2  C   UNL     1      -1.548  -2.593   0.385  0.00  0.00    +0.028 A 
ATOM      3  C   UNL     1      -1.736  -1.248   0.637  0.00  0.00    +0.047 A 
ATOM      4  C   UNL     1      -0.641  -0.408   0.772  0.00  0.00    +0.121 A 
ATOM      5  C   UNL     1       0.643  -0.916   0.650  0.00  0.00    +0.047 A 
ATOM      6  C   UNL     1       0.834  -2.261   0.403  0.00  0.00    +0.028 A 
ENDROOT
BRANCH   1   7
ATOM      7  N   UNL     1      -0.070  -4.466   0.011  0.00  0.00    -0.206 N 
ATOM      8  C   UNL     1      -1.086  -5.438   0.422  0.00  0.00    +0.157 C 
BRANCH   7   9
ATOM      9  S   UNL     1       1.305  -4.979  -0.756  0.00  0.00    +0.074 S 
ATOM     10  O   UNL     1       0.980  -6.207  -1.393  0.00  0.00    -0.150 OA
ATOM     11  O   UNL     1       1.813  -3.860  -1.470  0.00  0.00    -0.150 OA
BRANCH   9  16
ATOM     12  C   UNL     1       5.356  -6.276   3.523  0.00  0.00    +0.044 C 
ATOM     13  C   UNL     1       4.344  -5.952   2.454  0.00  0.00    -0.050 A 
ATOM     14  C   UNL     1       3.390  -6.887   2.100  0.00  0.00    +0.005 A 
ATOM     15  C   UNL     1       2.462  -6.590   1.119  0.00  0.00    +0.029 A 
ATOM     16  C   UNL     1       2.488  -5.358   0.494  0.00  0.00    +0.109 A 
ATOM     17  C   UNL     1       3.445  -4.424   0.845  0.00  0.00    +0.029 A 
ATOM     18  C   UNL     1       4.370  -4.720   1.829  0.00  0.00    +0.005 A 
ENDBRANCH   9  16
ENDBRANCH   7   9
ENDBRANCH   1   7
BRANCH   4  19
ATOM     19  O   UNL     1      -0.828   0.917   1.021  0.00  0.00    -0.483 OA
BRANCH  19  20
ATOM     20  C   UNL     1       0.344   1.724   1.149  0.00  0.00    +0.324 C 
BRANCH  20  21
ATOM     21  C   UNL     1      -0.056   3.151   1.420  0.00  0.00    +0.255 C 
ATOM     22  O   UNL     1      -1.229   3.448   1.496  0.00  0.00    -0.272 OA
ATOM     23  N   UNL     1       0.890   4.098   1.578  0.00  0.00    -0.277 N 
ATOM     24  H   UNL     1       1.829   3.861   1.517  0.00  0.00    +0.155 HD
BRANCH  23  25
ATOM     25  C   UNL     1       0.522   5.411   1.827  0.00  0.00    +0.084 A 
ATOM     26  C   UNL     1       1.343   6.516   2.022  0.00  0.00    +0.065 A 
ATOM     27  C   UNL     1       0.685   7.779   2.262  0.00  0.00    +0.022 A 
ATOM     28  C   UNL     1      -0.659   7.776   2.286  0.00  0.00    +0.048 A 
ATOM     29  S   UNL     1      -1.072   6.071   1.978  0.00  0.00    -0.081 S 
BRANCH  26  30
ATOM     30  C   UNL     1       2.804   6.405   1.983  0.00  0.00    +0.244 C 
ATOM     31  O   UNL     1       3.327   5.325   1.775  0.00  0.00    -0.270 OA
ATOM     32  N   UNL     1       3.568   7.498   2.177  0.00  0.00    -0.325 N 
ATOM     33  H   UNL     1       3.152   8.358   2.342  0.00  0.00    +0.145 HD
ATOM     34  H   UNL     1       4.535   7.424   2.151  0.00  0.00    +0.145 HD
ENDBRANCH  26  30
ENDBRANCH  23  25
ENDBRANCH  20  21
ENDBRANCH  19  20
ENDBRANCH   4  19
TORSDOF 8
