REMARK  Name = ZINC14542890
REMARK  11 active torsions:
REMARK  status: ('A' for Active; 'I' for Inactive)
REMARK    1  A    between atoms: C_1  and  N_2
REMARK    2  A    between atoms: N_2  and  C_3
REMARK    3  A    between atoms: N_2  and  C_4
REMARK    4  A    between atoms: C_7  and  C_10
REMARK    5  A    between atoms: C_11  and  C_12
REMARK    6  A    between atoms: C_12  and  N_66
REMARK    7  A    between atoms: C_17  and  C_24
REMARK    8  A    between atoms: N_19  and  C_20
REMARK    9  A    between atoms: C_20  and  C_21
REMARK   10  A    between atoms: N_26  and  C_27
REMARK   11  A    between atoms: C_27  and  C_28
REMARK                            x       y       z     vdW  Elec       q    Type
REMARK                         _______ _______ _______ _____ _____    ______ ____
ROOT
ATOM      1  C   UNL     1      -2.631   0.993   2.455  0.00  0.00    -0.072 C 
ATOM      2  C   UNL     1      -3.278   1.759   3.618  0.00  0.00    +0.037 C 
ATOM      3  C   UNL     1      -4.773   1.606   3.495  0.00  0.00    +0.040 A 
ATOM      4  C   UNL     1      -5.380   1.177   2.358  0.00  0.00    -0.011 A 
ATOM      5  C   UNL     1      -6.754   1.160   2.639  0.00  0.00    +0.149 A 
ATOM      6  N   UNL     1      -6.890   1.570   3.889  0.00  0.00    -0.166 NA
ATOM      7  N   UNL     1      -5.736   1.835   4.399  0.00  0.00    -0.267 N 
ATOM      8  C   UNL     1      -4.642   0.816   1.099  0.00  0.00    -0.038 C 
ATOM      9  N   UNL     1      -3.280   1.399   1.188  0.00  0.00    +0.385 N 
ATOM     10  H   UNL     1      -3.354   2.422   1.167  0.00  0.00    -0.081 HD
ENDROOT
BRANCH   5  11
ATOM     11  C   UNL     1      -7.838   0.762   1.718  0.00  0.00    +0.265 C 
ATOM     12  O   UNL     1      -7.573   0.403   0.587  0.00  0.00    -0.268 OA
ATOM     13  N   UNL     1      -9.120   0.797   2.131  0.00  0.00    -0.304 N 
ATOM     14  H   UNL     1      -9.332   1.083   3.034  0.00  0.00    +0.149 HD
BRANCH  13  15
ATOM     15  C   UNL     1     -10.195   0.402   1.218  0.00  0.00    +0.167 C 
BRANCH  15  16
ATOM     16  C   UNL     1     -11.523   0.531   1.919  0.00  0.00    +0.095 A 
ATOM     17  N   UNL     1     -12.325   1.568   1.983  0.00  0.00    -0.251 NA
ATOM     18  C   UNL     1     -13.465   1.516   2.640  0.00  0.00    +0.119 A 
ATOM     19  C   UNL     1     -13.795   0.359   3.269  0.00  0.00    +0.066 A 
ATOM     20  S   UNL     1     -12.381  -0.653   2.856  0.00  0.00    -0.079 S 
ENDBRANCH  15  16
ENDBRANCH  13  15
ENDBRANCH   5  11
BRANCH   9  21
ATOM     21  C   UNL     1      -2.465   0.953   0.040  0.00  0.00    -0.051 C 
BRANCH  21  23
ATOM     22  C   UNL     1      -0.013   1.076   0.013  0.00  0.00    +0.002 C 
ATOM     23  C   UNL     1      -1.170   1.724   0.037  0.00  0.00    -0.045 C 
BRANCH  22  27
ATOM     24  C   UNL     1       3.638   3.250  -0.015  0.00  0.00    +0.029 A 
ATOM     25  C   UNL     1       3.658   1.860  -0.036  0.00  0.00    +0.023 A 
ATOM     26  C   UNL     1       2.475   1.152  -0.027  0.00  0.00    +0.010 A 
ATOM     27  C   UNL     1       1.257   1.832   0.004  0.00  0.00    -0.025 A 
ATOM     28  C   UNL     1       1.240   3.228   0.020  0.00  0.00    +0.010 A 
ATOM     29  C   UNL     1       2.425   3.930   0.015  0.00  0.00    +0.023 A 
BRANCH  24  31
ATOM     30  C   UNL     1       6.114   3.253   0.070  0.00  0.00    +0.129 C 
ATOM     31  N   UNL     1       4.836   3.964  -0.024  0.00  0.00    -0.336 N 
ATOM     32  C   UNL     1       4.818   5.425  -0.129  0.00  0.00    +0.129 C 
ENDBRANCH  24  31
ENDBRANCH  22  27
ENDBRANCH  21  23
ENDBRANCH   9  21
BRANCH   7  33
ATOM     33  C   UNL     1      -5.510   2.315   5.764  0.00  0.00    +0.147 C 
BRANCH  33  34
ATOM     34  C   UNL     1      -5.540   3.845   5.778  0.00  0.00    +0.010 C 
ATOM     35  C   UNL     1      -4.254   4.573   6.172  0.00  0.00    +0.005 C 
ATOM     36  C   UNL     1      -5.440   4.541   7.137  0.00  0.00    +0.005 C 
ENDBRANCH  33  34
ENDBRANCH   7  33
TORSDOF 9
