REMARK  Name = ZINC12798939
REMARK  2 active torsions:
REMARK  status: ('A' for Active; 'I' for Inactive)
REMARK    1  A    between atoms: C_8  and  N_12
REMARK    2  A    between atoms: C_16  and  C_19
REMARK                            x       y       z     vdW  Elec       q    Type
REMARK                         _______ _______ _______ _____ _____    ______ ____
ROOT
ATOM      1  N   UNL     1       2.394  -4.067  -0.040  0.00  0.00    -0.312 N 
ATOM      2  C   UNL     1       3.646  -4.829  -0.161  0.00  0.00    +0.121 C 
ATOM      3  C   UNL     1       3.695  -5.866   0.967  0.00  0.00    +0.100 C 
ATOM      4  N   UNL     1       2.470  -6.676   0.937  0.00  0.00    -0.303 NA
ATOM      5  C   UNL     1       1.280  -5.852   1.192  0.00  0.00    +0.158 C 
ATOM      6  C   UNL     1       1.133  -4.815   0.080  0.00  0.00    +0.134 C 
ATOM      7  H   UNL     1       2.385  -7.172   0.062  0.00  0.00    +0.123 HD
ENDROOT
BRANCH   1  15
ATOM      8  C   UNL     1       0.473   1.349   1.450  0.00  0.00    +0.005 A 
ATOM      9  C   UNL     1       1.443   2.062   0.731  0.00  0.00    +0.018 A 
ATOM     10  C   UNL     1       2.383   1.401   0.019  0.00  0.00    +0.096 A 
ATOM     11  N   UNL     1       2.405   0.038  -0.011  0.00  0.00    -0.268 N 
ATOM     12  C   UNL     1       1.473  -0.684   0.681  0.00  0.00    +0.142 A 
ATOM     13  C   UNL     1       0.485  -0.013   1.427  0.00  0.00    +0.047 A 
ATOM     14  N   UNL     1       1.485  -2.014   0.659  0.00  0.00    -0.214 NA
ATOM     15  C   UNL     1       2.402  -2.684  -0.034  0.00  0.00    +0.129 A 
ATOM     16  C   UNL     1       3.370  -1.989  -0.754  0.00  0.00    +0.114 A 
ATOM     17  C   UNL     1       3.355  -0.596  -0.729  0.00  0.00    +0.260 A 
ATOM     18  O   UNL     1       4.191   0.043  -1.350  0.00  0.00    -0.267 OA
ENDBRANCH   1  15
BRANCH   5  19
ATOM     19  C   UNL     1       0.058  -6.732   1.227  0.00  0.00    +0.229 C 
ATOM     20  O   UNL     1       0.086  -7.831   0.715  0.00  0.00    -0.274 OA
ATOM     21  N   UNL     1      -1.068  -6.298   1.829  0.00  0.00    -0.328 N 
ATOM     22  H   UNL     1      -1.091  -5.420   2.239  0.00  0.00    +0.145 HD
ATOM     23  H   UNL     1      -1.855  -6.865   1.852  0.00  0.00    +0.145 HD
ENDBRANCH   5  19
TORSDOF 2
