REMARK  Name = ZINC52094213
REMARK  3 active torsions:
REMARK  status: ('A' for Active; 'I' for Inactive)
REMARK    1  A    between atoms: C_3  and  C_6
REMARK    2  A    between atoms: C_6  and  C_8
REMARK    3  A    between atoms: C_6  and  N_21
REMARK                            x       y       z     vdW  Elec       q    Type
REMARK                         _______ _______ _______ _____ _____    ______ ____
ROOT
ATOM      1  C   UNL     1       4.330   1.776   1.369  0.00  0.00    -0.010 A 
ATOM      2  C   UNL     1       5.166   0.733   1.720  0.00  0.00    +0.034 A 
ATOM      3  C   UNL     1       5.690   0.669   3.001  0.00  0.00    +0.067 A 
ATOM      4  C   UNL     1       5.372   1.659   3.933  0.00  0.00    +0.068 A 
ATOM      5  C   UNL     1       4.533   2.703   3.573  0.00  0.00    +0.043 A 
ATOM      6  C   UNL     1       4.019   2.761   2.291  0.00  0.00    +0.025 A 
ATOM      7 BR   UNL     1       2.881   4.188   1.797  0.00  0.00    -0.050 Br
ATOM      8  N   UNL     1       6.036   1.331   5.112  0.00  0.00    -0.306 N 
ATOM      9  H   UNL     1       6.006   1.835   5.941  0.00  0.00    +0.170 HD
ATOM     10  C   UNL     1       6.726   0.193   4.908  0.00  0.00    +0.325 A 
ATOM     11  O   UNL     1       7.416  -0.367   5.739  0.00  0.00    -0.247 OA
ATOM     12  N   UNL     1       6.538  -0.230   3.644  0.00  0.00    -0.306 N 
ATOM     13  H   UNL     1       6.926  -1.026   3.248  0.00  0.00    +0.170 HD
ENDROOT
BRANCH   1  14
ATOM     14  C   UNL     1       3.761   1.845  -0.024  0.00  0.00    +0.120 C 
BRANCH  14  17
ATOM     15  C   UNL     1      -0.016   1.351   0.009  0.00  0.00    +0.008 A 
ATOM     16  C   UNL     1       1.183   2.038   0.002  0.00  0.00    +0.013 A 
ATOM     17  C   UNL     1       2.343   1.336  -0.013  0.00  0.00    +0.011 A 
ATOM     18  S   UNL     1       1.754  -0.349  -0.017  0.00  0.00    -0.100 S 
ATOM     19  C   UNL     1       0.002  -0.004   0.002  0.00  0.00    +0.045 A 
ENDBRANCH  14  17
BRANCH  14  20
ATOM     20  N   UNL     1       4.572   1.017  -0.927  0.00  0.00    -0.320 NA
ATOM     21  H   UNL     1       5.511   1.377  -1.002  0.00  0.00    +0.119 HD
ATOM     22  H   UNL     1       4.576   0.054  -0.627  0.00  0.00    +0.119 HD
ENDBRANCH  14  20
ENDBRANCH   1  14
TORSDOF 3
