REMARK  Name = ZINC02348453
REMARK  2 active torsions:
REMARK  status: ('A' for Active; 'I' for Inactive)
REMARK    1  A    between atoms: C_3  and  C_8
REMARK    2  A    between atoms: N_16  and  C_18
REMARK                            x       y       z     vdW  Elec       q    Type
REMARK                         _______ _______ _______ _____ _____    ______ ____
ROOT
ATOM      1  C   UNL     1      -5.909   2.530  -1.664  0.00  0.00    +0.028 C 
ATOM      2  C   UNL     1      -4.729   1.898  -1.448  0.00  0.00    +0.081 A 
ATOM      3  C   UNL     1      -4.277   1.139  -0.268  0.00  0.00    +0.268 A 
ATOM      4  O   UNL     1      -4.998   0.999   0.702  0.00  0.00    -0.266 OA
ATOM      5  N   UNL     1      -3.054   0.610  -0.295  0.00  0.00    -0.270 N 
ATOM      6  C   UNL     1      -2.285   0.792  -1.441  0.00  0.00    +0.175 A 
ATOM      7  N   UNL     1      -1.093   0.331  -1.626  0.00  0.00    -0.241 NA
ATOM      8  C   UNL     1      -0.486  -0.470  -0.550  0.00  0.00    +0.252 C 
ATOM      9  N   UNL     1      -1.005  -0.024   0.749  0.00  0.00    -0.292 N 
ATOM     10  C   UNL     1      -2.467  -0.158   0.836  0.00  0.00    +0.237 C 
ATOM     11  S   UNL     1      -3.304   1.760  -2.519  0.00  0.00    -0.046 S 
ENDROOT
BRANCH   1  14
ATOM     12  C   UNL     1      -7.511   4.556  -4.383  0.00  0.00    +0.002 A 
ATOM     13  C   UNL     1      -7.237   4.030  -3.138  0.00  0.00    +0.008 A 
ATOM     14  C   UNL     1      -6.210   3.092  -2.989  0.00  0.00    -0.023 A 
ATOM     15  C   UNL     1      -5.476   2.686  -4.109  0.00  0.00    +0.023 A 
ATOM     16  C   UNL     1      -5.765   3.217  -5.348  0.00  0.00    +0.018 A 
ATOM     17  C   UNL     1      -6.780   4.150  -5.486  0.00  0.00    +0.015 A 
ATOM     18 BR   UNL     1      -4.774   2.671  -6.863  0.00  0.00    -0.050 Br
ENDBRANCH   1  14
BRANCH   9  19
ATOM     19  C   UNL     1      -0.378  -0.701   1.799  0.00  0.00    +0.033 A 
ATOM     20  C   UNL     1      -1.137  -1.397   2.730  0.00  0.00    +0.026 A 
ATOM     21  C   UNL     1      -0.515  -2.069   3.763  0.00  0.00    +0.040 A 
ATOM     22  C   UNL     1       0.865  -2.042   3.877  0.00  0.00    +0.124 A 
ATOM     23  C   UNL     1       1.624  -1.344   2.953  0.00  0.00    +0.040 A 
ATOM     24  C   UNL     1       1.006  -0.674   1.915  0.00  0.00    +0.026 A 
ATOM     25  F   UNL     1       1.471  -2.696   4.892  0.00  0.00    -0.205 F 
ENDBRANCH   9  19
TORSDOF 2
