REMARK  Name = ZINC65239242
REMARK  7 active torsions:
REMARK  status: ('A' for Active; 'I' for Inactive)
REMARK    1  A    between atoms: C_1  and  C_2
REMARK    2  A    between atoms: C_3  and  C_23
REMARK    3  A    between atoms: C_12  and  N_15
REMARK    4  A    between atoms: C_16  and  C_18
REMARK    5  A    between atoms: C_26  and  C_29
REMARK    6  A    between atoms: C_29  and  C_30
REMARK    7  A    between atoms: C_29  and  C_31
REMARK                            x       y       z     vdW  Elec       q    Type
REMARK                         _______ _______ _______ _____ _____    ______ ____
ROOT
ATOM      1  C   UNL     1      -2.359   0.099   0.333  0.00  0.00    +0.049 C 
ATOM      2  C   UNL     1      -1.071  -0.663   0.153  0.00  0.00    +0.018 C 
ATOM      3  C   UNL     1      -0.703  -1.202  -1.032  0.00  0.00    +0.126 C 
ATOM      4  S   UNL     1       0.862  -1.950  -0.627  0.00  0.00    +0.101 S 
ATOM      5  O   UNL     1       0.704  -3.360  -0.711  0.00  0.00    -0.146 OA
ATOM      6  O   UNL     1       1.877  -1.233  -1.317  0.00  0.00    -0.146 OA
ATOM      7  N   UNL     1       0.961  -1.544   0.994  0.00  0.00    -0.113 NA
ATOM      8  C   UNL     1      -0.128  -0.868   1.234  0.00  0.00    +0.148 C 
ATOM      9  N   UNL     1      -0.380  -0.363   2.495  0.00  0.00    -0.314 N 
ATOM     10  C   UNL     1      -1.088   0.913   2.662  0.00  0.00    +0.108 C 
ATOM     11  C   UNL     1      -0.243   1.833   3.549  0.00  0.00    +0.041 C 
ATOM     12  C   UNL     1       0.077   1.115   4.862  0.00  0.00    +0.076 C 
ATOM     13  C   UNL     1       0.887  -0.150   4.570  0.00  0.00    +0.041 C 
ATOM     14  C   UNL     1       0.050  -1.095   3.694  0.00  0.00    +0.108 C 
ENDROOT
BRANCH   3  15
ATOM     15  C   UNL     1      -1.413  -1.178  -2.322  0.00  0.00    +0.002 A 
ATOM     16  C   UNL     1      -2.220  -0.088  -2.659  0.00  0.00    +0.010 A 
ATOM     17  C   UNL     1      -2.881  -0.073  -3.869  0.00  0.00    +0.004 A 
ATOM     18  C   UNL     1      -2.748  -1.133  -4.749  0.00  0.00    -0.045 A 
ATOM     19  C   UNL     1      -1.951  -2.216  -4.422  0.00  0.00    +0.004 A 
ATOM     20  C   UNL     1      -1.278  -2.243  -3.218  0.00  0.00    +0.010 A 
BRANCH  18  21
ATOM     21  C   UNL     1      -3.474  -1.108  -6.069  0.00  0.00    +0.013 C 
ATOM     22  C   UNL     1      -2.459  -1.181  -7.211  0.00  0.00    +0.012 C 
ATOM     23  C   UNL     1      -4.422  -2.307  -6.152  0.00  0.00    +0.012 C 
ENDBRANCH  18  21
ENDBRANCH   3  15
BRANCH  12  24
ATOM     24  N   UNL     1       0.857   2.004   5.727  0.00  0.00    -0.308 N 
ATOM     25  C   UNL     1       0.834   1.834   7.064  0.00  0.00    +0.247 C 
ATOM     26  O   UNL     1       0.166   0.943   7.552  0.00  0.00    -0.270 OA
ATOM     27  H   UNL     1       1.390   2.715   5.337  0.00  0.00    +0.149 HD
BRANCH  25  28
ATOM     28  C   UNL     1       1.619   2.729   7.934  0.00  0.00    +0.074 A 
ATOM     29  C   UNL     1       1.714   2.684   9.400  0.00  0.00    +0.054 A 
ATOM     30  C   UNL     1       2.537   3.685   9.747  0.00  0.00    +0.195 A 
ATOM     31  O   UNL     1       2.944   4.324   8.639  0.00  0.00    -0.470 OA
ATOM     32  C   UNL     1       2.413   3.768   7.546  0.00  0.00    +0.207 A 
ENDBRANCH  25  28
ENDBRANCH  12  24
TORSDOF 4
