REMARK  Name = ZINC02131503
REMARK  10 active torsions:
REMARK  status: ('A' for Active; 'I' for Inactive)
REMARK    1  A    between atoms: C_1  and  C_2
REMARK    2  A    between atoms: C_2  and  C_3
REMARK    3  A    between atoms: C_3  and  O_4
REMARK    4  A    between atoms: O_4  and  C_5
REMARK    5  A    between atoms: C_8  and  C_14
REMARK    6  A    between atoms: C_10  and  O_11
REMARK    7  A    between atoms: O_11  and  C_12
REMARK    8  A    between atoms: C_12  and  C_13
REMARK    9  A    between atoms: N_20  and  C_35
REMARK   10  A    between atoms: C_23  and  C_34
REMARK                            x       y       z     vdW  Elec       q    Type
REMARK                         _______ _______ _______ _____ _____    ______ ____
ROOT
ATOM      1  C   UNL     1      -0.754   6.473   0.461  0.00  0.00    +0.069 C 
ATOM      2  C   UNL     1      -0.752   7.563   1.543  0.00  0.00    +0.123 C 
ATOM      3  N   UNL     1       0.205   8.593   1.135  0.00  0.00    -0.265 N 
ATOM      4  C   UNL     1       1.350   8.991   1.689  0.00  0.00    +0.317 C 
ATOM      5  O   UNL     1       1.682   8.730   2.829  0.00  0.00    -0.252 OA
ATOM      6  N   UNL     1       2.091   9.715   0.835  0.00  0.00    -0.192 N 
ATOM      7  C   UNL     1       1.421   9.969  -0.311  0.00  0.00    +0.257 C 
ATOM      8  O   UNL     1       1.837  10.547  -1.292  0.00  0.00    -0.272 OA
ATOM      9  C   UNL     1       0.045   9.379  -0.113  0.00  0.00    +0.153 C 
ATOM     10  C   UNL     1      -0.285   8.368  -1.185  0.00  0.00    +0.054 A 
ATOM     11  C   UNL     1      -0.644   7.094  -0.908  0.00  0.00    -0.008 A 
ATOM     12  C   UNL     1      -0.894   6.449  -2.185  0.00  0.00    +0.004 A 
ATOM     13  C   UNL     1      -1.297   5.154  -2.524  0.00  0.00    +0.010 A 
ATOM     14  C   UNL     1      -1.434   4.878  -3.862  0.00  0.00    +0.001 A 
ATOM     15  C   UNL     1      -1.188   5.829  -4.839  0.00  0.00    +0.002 A 
ATOM     16  C   UNL     1      -0.789   7.118  -4.531  0.00  0.00    +0.026 A 
ATOM     17  C   UNL     1      -0.643   7.427  -3.180  0.00  0.00    +0.047 A 
ATOM     18  N   UNL     1      -0.275   8.574  -2.537  0.00  0.00    -0.356 N 
ATOM     19  H   UNL     1      -0.042   9.408  -2.974  0.00  0.00    +0.166 HD
ATOM     20  C   UNL     1      -1.029  10.461   0.019  0.00  0.00    +0.048 C 
ENDROOT
BRANCH   1  24
ATOM     21  C   UNL     1       2.562   3.849   1.099  0.00  0.00    +0.162 A 
ATOM     22  C   UNL     1       2.777   5.197   0.862  0.00  0.00    +0.050 A 
ATOM     23  C   UNL     1       1.703   6.043   0.658  0.00  0.00    +0.008 A 
ATOM     24  C   UNL     1       0.413   5.546   0.684  0.00  0.00    -0.035 A 
ATOM     25  C   UNL     1       0.192   4.201   0.914  0.00  0.00    +0.053 A 
ATOM     26  C   UNL     1       1.264   3.348   1.119  0.00  0.00    +0.162 A 
BRANCH  21  27
ATOM     27  O   UNL     1       3.618   3.017   1.305  0.00  0.00    -0.488 OA
BRANCH  27  28
ATOM     28  C   UNL     1       4.921   3.601   1.270  0.00  0.00    +0.229 C 
BRANCH  28  30
ATOM     29  C   UNL     1       7.368   3.143   1.483  0.00  0.00    +0.007 C 
ATOM     30  C   UNL     1       5.972   2.518   1.521  0.00  0.00    +0.038 C 
ENDBRANCH  28  30
ENDBRANCH  27  28
ENDBRANCH  21  27
BRANCH  26  31
ATOM     31  O   UNL     1       1.048   2.024   1.345  0.00  0.00    -0.489 OA
BRANCH  31  32
ATOM     32  C   UNL     1      -0.310   1.581   1.358  0.00  0.00    +0.226 C 
ATOM     33  C   UNL     1      -0.353   0.076   1.625  0.00  0.00    +0.048 C 
ENDBRANCH  31  32
ENDBRANCH  26  31
ENDBRANCH   1  24
BRANCH   6  34
ATOM     34  C   UNL     1       3.396  10.154   1.099  0.00  0.00    +0.045 A 
ATOM     35  C   UNL     1       4.039  11.001   0.206  0.00  0.00    +0.024 A 
ATOM     36  C   UNL     1       5.323  11.435   0.472  0.00  0.00    +0.002 A 
ATOM     37  C   UNL     1       5.971  11.020   1.621  0.00  0.00    +0.000 A 
ATOM     38  C   UNL     1       5.335  10.172   2.509  0.00  0.00    +0.002 A 
ATOM     39  C   UNL     1       4.050   9.738   2.251  0.00  0.00    +0.024 A 
ENDBRANCH   6  34
TORSDOF 7
