REMARK  Name = ZINC40014625
REMARK  17 active torsions:
REMARK  status: ('A' for Active; 'I' for Inactive)
REMARK    1  A    between atoms: C_1  and  C_2
REMARK    2  A    between atoms: C_2  and  C_3
REMARK    3  A    between atoms: C_3  and  C_4
REMARK    4  A    between atoms: C_4  and  N_5
REMARK    5  A    between atoms: N_5  and  C_6
REMARK    6  A    between atoms: N_5  and  C_10
REMARK    7  A    between atoms: C_6  and  C_7
REMARK    8  A    between atoms: C_7  and  C_8
REMARK    9  A    between atoms: C_8  and  C_9
REMARK   10  A    between atoms: C_10  and  C_11
REMARK   11  A    between atoms: C_11  and  C_12
REMARK   12  A    between atoms: C_12  and  N_13
REMARK   13  A    between atoms: C_14  and  C_30
REMARK   14  A    between atoms: C_33  and  C_36
REMARK   15  A    between atoms: C_36  and  C_37
REMARK   16  A    between atoms: C_36  and  C_38
REMARK   17  A    between atoms: C_36  and  C_39
REMARK                            x       y       z     vdW  Elec       q    Type
REMARK                         _______ _______ _______ _____ _____    ______ ____
ROOT
ATOM      1  N   UNL     1      -5.530  -6.901  -0.024  0.00  0.00    -0.284 N 
ATOM      2  C   UNL     1      -6.312  -7.295   1.159  0.00  0.00    +0.144 C 
ATOM      3  C   UNL     1      -7.617  -7.799   0.635  0.00  0.00    +0.072 A 
ATOM      4  C   UNL     1      -8.793  -8.335   1.327  0.00  0.00    +0.199 A 
ATOM      5  O   UNL     1      -8.935  -8.289   2.537  0.00  0.00    -0.287 OA
ATOM      6  C   UNL     1      -9.795  -8.940   0.414  0.00  0.00    +0.066 A 
ATOM      7  C   UNL     1     -10.870  -9.667   0.927  0.00  0.00    +0.035 A 
ATOM      8  C   UNL     1     -11.787 -10.226   0.064  0.00  0.00    +0.042 A 
ATOM      9  C   UNL     1     -11.640 -10.066  -1.308  0.00  0.00    +0.023 A 
ATOM     10  C   UNL     1     -10.585  -9.349  -1.824  0.00  0.00    +0.048 A 
ATOM     11  C   UNL     1      -9.644  -8.771  -0.972  0.00  0.00    +0.140 A 
ATOM     12  O   UNL     1      -8.623  -8.063  -1.506  0.00  0.00    -0.450 OA
ATOM     13  C   UNL     1      -7.587  -7.696  -0.726  0.00  0.00    +0.199 A 
ATOM     14  C   UNL     1      -6.283  -7.133  -1.119  0.00  0.00    +0.283 C 
ATOM     15  O   UNL     1      -5.935  -6.914  -2.262  0.00  0.00    -0.267 OA
ATOM     16 CL   UNL     1     -13.128 -11.133   0.693  0.00  0.00    -0.084 Cl
ENDROOT
BRANCH   2  17
ATOM     17  C   UNL     1      -6.534  -6.105   2.056  0.00  0.00    -0.022 A 
ATOM     18  C   UNL     1      -6.823  -4.870   1.507  0.00  0.00    +0.006 A 
ATOM     19  C   UNL     1      -7.027  -3.778   2.330  0.00  0.00    +0.004 A 
ATOM     20  C   UNL     1      -6.942  -3.922   3.702  0.00  0.00    -0.042 A 
ATOM     21  C   UNL     1      -6.653  -5.157   4.252  0.00  0.00    +0.004 A 
ATOM     22  C   UNL     1      -6.454  -6.250   3.429  0.00  0.00    +0.006 A 
BRANCH  20  23
ATOM     23  C   UNL     1      -7.163  -2.731   4.599  0.00  0.00    -0.013 C 
ATOM     24  C   UNL     1      -8.570  -2.176   4.373  0.00  0.00    +0.015 C 
ATOM     25  C   UNL     1      -7.013  -3.159   6.061  0.00  0.00    +0.015 C 
ATOM     26  C   UNL     1      -6.130  -1.650   4.276  0.00  0.00    +0.015 C 
ENDBRANCH  20  23
ENDBRANCH   2  17
BRANCH   1  27
ATOM     27  C   UNL     1      -4.174  -6.346  -0.014  0.00  0.00    +0.107 C 
BRANCH  27  28
ATOM     28  C   UNL     1      -4.247  -4.821   0.081  0.00  0.00    +0.000 C 
BRANCH  28  29
ATOM     29  C   UNL     1      -2.831  -4.242   0.091  0.00  0.00    -0.077 C 
BRANCH  29  30
ATOM     30  N   UNL     1      -2.896  -2.792   0.320  0.00  0.00    +0.380 N 
ATOM     31  H   UNL     1      -3.416  -2.608   1.165  0.00  0.00    -0.082 HD
BRANCH  30  32
ATOM     32  C   UNL     1      -1.535  -2.256   0.455  0.00  0.00    -0.079 C 
BRANCH  32  33
ATOM     33  C   UNL     1      -1.606  -0.771   0.816  0.00  0.00    -0.019 C 
BRANCH  33  35
ATOM     34  C   UNL     1      -0.259   1.272   1.318  0.00  0.00    +0.004 C 
ATOM     35  C   UNL     1      -0.189  -0.213   0.957  0.00  0.00    -0.005 C 
ENDBRANCH  33  35
ENDBRANCH  32  33
ENDBRANCH  30  32
BRANCH  30  36
ATOM     36  C   UNL     1      -3.566  -2.147  -0.818  0.00  0.00    -0.079 C 
BRANCH  36  37
ATOM     37  C   UNL     1      -2.764  -2.405  -2.095  0.00  0.00    -0.019 C 
BRANCH  37  38
ATOM     38  C   UNL     1      -3.475  -1.756  -3.284  0.00  0.00    -0.005 C 
ATOM     39  C   UNL     1      -2.673  -2.014  -4.561  0.00  0.00    +0.004 C 
ENDBRANCH  37  38
ENDBRANCH  36  37
ENDBRANCH  30  36
ENDBRANCH  29  30
ENDBRANCH  28  29
ENDBRANCH  27  28
ENDBRANCH   1  27
TORSDOF 12
