REMARK  Name = ZINC12551830
REMARK  6 active torsions:
REMARK  status: ('A' for Active; 'I' for Inactive)
REMARK    1  A    between atoms: C_5  and  C_7
REMARK    2  A    between atoms: C_7  and  N_8
REMARK    3  A    between atoms: C_9  and  C_11
REMARK    4  A    between atoms: C_11  and  S_12
REMARK    5  A    between atoms: S_12  and  C_13
REMARK    6  A    between atoms: C_13  and  C_14
REMARK                            x       y       z     vdW  Elec       q    Type
REMARK                         _______ _______ _______ _____ _____    ______ ____
ROOT
ATOM      1  C   UNL     1       1.855   3.774   0.005  0.00  0.00    +0.121 A 
ATOM      2  N   UNL     1       3.088   4.342  -0.004  0.00  0.00    -0.310 N 
ATOM      3  H   UNL     1       3.873   3.773  -0.015  0.00  0.00    +0.170 HD
ATOM      4  C   UNL     1       3.244   5.679   0.002  0.00  0.00    +0.260 A 
ATOM      5  O   UNL     1       4.358   6.174  -0.006  0.00  0.00    -0.267 OA
ATOM      6  C   UNL     1       2.077   6.512   0.017  0.00  0.00    +0.075 A 
ATOM      7  C   UNL     1       2.004   7.972   0.026  0.00  0.00    -0.023 A 
ATOM      8  C   UNL     1       0.772   8.524   0.041  0.00  0.00    -0.004 A 
ATOM      9  S   UNL     1      -0.347   7.148   0.043  0.00  0.00    -0.073 S 
ATOM     10  C   UNL     1       0.847   5.835   0.024  0.00  0.00    +0.116 A 
ATOM     11  N   UNL     1       0.773   4.507   0.013  0.00  0.00    -0.226 NA
ATOM     12  C   UNL     1       0.430   9.982   0.052  0.00  0.00    +0.043 C 
ATOM     13  C   UNL     1       1.694  10.773   0.420  0.00  0.00    +0.005 C 
ATOM     14  C   UNL     1       2.859  10.260  -0.431  0.00  0.00    +0.005 C 
ATOM     15  C   UNL     1       3.251   8.852   0.019  0.00  0.00    +0.037 C 
ENDROOT
BRANCH   1  16
ATOM     16  C   UNL     1       1.731   2.272  -0.002  0.00  0.00    +0.143 C 
BRANCH  16  17
ATOM     17  S   UNL     1      -0.022   1.810   0.012  0.00  0.00    -0.144 S 
BRANCH  17  18
ATOM     18  C   UNL     1       0.002  -0.004   0.002  0.00  0.00    +0.165 C 
BRANCH  18  20
ATOM     19  N   UNL     1      -1.640  -1.854   0.008  0.00  0.00    -0.309 N 
ATOM     20  C   UNL     1      -1.412  -0.526   0.013  0.00  0.00    +0.223 C 
ATOM     21  O   UNL     1      -2.344   0.250   0.026  0.00  0.00    -0.275 OA
ATOM     22  H   UNL     1      -0.894  -2.474  -0.003  0.00  0.00    +0.149 HD
BRANCH  19  23
ATOM     23  C   UNL     1      -3.014  -2.361   0.018  0.00  0.00    +0.159 C 
BRANCH  23  28
ATOM     24  C   UNL     1      -3.059  -5.945   1.185  0.00  0.00    +0.003 A 
ATOM     25  C   UNL     1      -2.955  -6.587  -0.039  0.00  0.00    +0.020 A 
ATOM     26  C   UNL     1      -2.875  -5.830  -1.192  0.00  0.00    +0.111 A 
ATOM     27  N   UNL     1      -2.902  -4.512  -1.137  0.00  0.00    -0.258 NA
ATOM     28  C   UNL     1      -2.994  -3.868   0.010  0.00  0.00    +0.058 A 
ATOM     29  C   UNL     1      -3.078  -4.559   1.204  0.00  0.00    +0.025 A 
ENDBRANCH  23  28
ENDBRANCH  19  23
ENDBRANCH  18  20
ENDBRANCH  17  18
ENDBRANCH  16  17
ENDBRANCH   1  16
TORSDOF 6
