REMARK  Name = ZINC34920819
REMARK  3 active torsions:
REMARK  status: ('A' for Active; 'I' for Inactive)
REMARK    1  A    between atoms: C_3  and  C_8
REMARK    2  A    between atoms: C_11  and  C_21
REMARK    3  A    between atoms: C_26  and  C_29
REMARK                            x       y       z     vdW  Elec       q    Type
REMARK                         _______ _______ _______ _____ _____    ______ ____
ROOT
ATOM      1  C   UNL     1       3.701   2.183  -0.060  0.00  0.00    +0.249 C 
ATOM      2  O   UNL     1       3.707   3.397  -0.122  0.00  0.00    -0.270 OA
ATOM      3  N   UNL     1       4.864   1.509   0.040  0.00  0.00    -0.255 N 
ATOM      4  C   UNL     1       5.041   0.040   0.060  0.00  0.00    +0.191 C 
ATOM      5  C   UNL     1       6.521  -0.132  -0.364  0.00  0.00    +0.194 C 
ATOM      6  O   UNL     1       7.157   1.007   0.261  0.00  0.00    -0.354 OA
ATOM      7  C   UNL     1       6.214   2.083   0.145  0.00  0.00    +0.139 C 
ATOM      8  C   UNL     1       6.299   2.973   1.386  0.00  0.00    +0.055 C 
ATOM      9  C   UNL     1       5.290   4.117   1.262  0.00  0.00    +0.004 C 
ATOM     10  C   UNL     1       5.606   4.942   0.013  0.00  0.00    +0.000 C 
ATOM     11  C   UNL     1       5.512   4.050  -1.226  0.00  0.00    +0.004 C 
ATOM     12  C   UNL     1       6.521   2.905  -1.107  0.00  0.00    +0.055 C 
ENDROOT
BRANCH   4  13
ATOM     13  C   UNL     1       4.118  -0.623  -0.929  0.00  0.00    +0.238 C 
ATOM     14  O   UNL     1       3.695   0.003  -1.878  0.00  0.00    -0.273 OA
ATOM     15  N   UNL     1       3.762  -1.912  -0.760  0.00  0.00    -0.300 N 
ATOM     16  C   UNL     1       4.339  -2.711   0.330  0.00  0.00    +0.108 C 
ATOM     17  C   UNL     1       4.938  -3.991  -0.261  0.00  0.00    +0.032 C 
ATOM     18  C   UNL     1       3.868  -4.721  -1.077  0.00  0.00    +0.078 C 
ATOM     19  C   UNL     1       3.406  -3.827  -2.230  0.00  0.00    +0.032 C 
ATOM     20  C   UNL     1       2.785  -2.543  -1.658  0.00  0.00    +0.108 C 
BRANCH  18  21
ATOM     21  C   UNL     1       4.444  -5.998  -1.632  0.00  0.00    +0.214 C 
ATOM     22  O   UNL     1       5.596  -6.296  -1.398  0.00  0.00    -0.276 OA
ATOM     23  N   UNL     1       3.679  -6.810  -2.388  0.00  0.00    -0.329 N 
ATOM     24  H   UNL     1       2.757  -6.572  -2.575  0.00  0.00    +0.145 HD
ATOM     25  H   UNL     1       4.049  -7.632  -2.745  0.00  0.00    +0.145 HD
ENDBRANCH  18  21
ENDBRANCH   4  13
BRANCH   1  28
ATOM     26  C   UNL     1       0.050   1.413  -0.485  0.00  0.00    +0.004 A 
ATOM     27  C   UNL     1       1.243   2.105  -0.454  0.00  0.00    +0.013 A 
ATOM     28  C   UNL     1       2.420   1.447  -0.094  0.00  0.00    +0.040 A 
ATOM     29  C   UNL     1       2.382   0.091   0.233  0.00  0.00    +0.051 A 
ATOM     30  C   UNL     1       1.181  -0.591   0.199  0.00  0.00    +0.124 A 
ATOM     31  C   UNL     1       0.017   0.069  -0.160  0.00  0.00    +0.038 A 
ATOM     32  F   UNL     1       1.142  -1.904   0.515  0.00  0.00    -0.205 F 
ENDBRANCH   1  28
TORSDOF 3
