REMARK  Name = ZINC13382058
REMARK  13 active torsions:
REMARK  status: ('A' for Active; 'I' for Inactive)
REMARK    1  A    between atoms: C_1  and  C_2
REMARK    2  A    between atoms: C_2  and  C_3
REMARK    3  A    between atoms: C_3  and  C_5
REMARK    4  A    between atoms: C_3  and  O_6
REMARK    5  A    between atoms: O_6  and  C_7
REMARK    6  A    between atoms: C_7  and  C_9
REMARK    7  A    between atoms: C_10  and  C_39
REMARK    8  A    between atoms: C_14  and  C_16
REMARK    9  A    between atoms: C_20  and  O_24
REMARK   10  A    between atoms: C_21  and  O_22
REMARK   11  A    between atoms: O_22  and  C_23
REMARK   12  A    between atoms: O_24  and  C_25
REMARK   13  A    between atoms: C_29  and  C_32
REMARK                            x       y       z     vdW  Elec       q    Type
REMARK                         _______ _______ _______ _____ _____    ______ ____
ROOT
ATOM      1  C   UNL     1      -4.008   3.641   0.559  0.00  0.00    +0.154 C 
ATOM      2  C   UNL     1      -4.684   2.484   0.666  0.00  0.00    +0.031 C 
ATOM      3  N   UNL     1      -4.547   1.511  -0.285  0.00  0.00    -0.260 NA
ATOM      4  C   UNL     1      -4.064   1.815  -1.529  0.00  0.00    +0.049 C 
ATOM      5  C   UNL     1      -3.363   2.950  -1.733  0.00  0.00    +0.025 C 
ATOM      6  C   UNL     1      -3.081   3.897  -0.594  0.00  0.00    +0.077 C 
ATOM      7  C   UNL     1      -2.877   3.283  -3.010  0.00  0.00    +0.162 C 
ATOM      8  O   UNL     1      -2.243   4.310  -3.158  0.00  0.00    -0.292 OA
ATOM      9  C   UNL     1      -3.126   2.392  -4.196  0.00  0.00    +0.088 C 
ATOM     10  C   UNL     1      -4.435   1.625  -3.977  0.00  0.00    +0.032 C 
ATOM     11  C   UNL     1      -4.333   0.854  -2.660  0.00  0.00    +0.064 C 
ATOM     12  C   UNL     1      -5.597   2.256   1.843  0.00  0.00    +0.061 C 
ENDROOT
BRANCH  10  13
ATOM     13  C   UNL     1      -4.652   0.660  -5.114  0.00  0.00    -0.043 A 
ATOM     14  C   UNL     1      -3.711  -0.316  -5.381  0.00  0.00    +0.005 A 
ATOM     15  C   UNL     1      -3.912  -1.205  -6.420  0.00  0.00    +0.020 A 
ATOM     16  C   UNL     1      -5.051  -1.110  -7.200  0.00  0.00    +0.041 A 
ATOM     17  C   UNL     1      -5.989  -0.129  -6.936  0.00  0.00    +0.020 A 
ATOM     18  C   UNL     1      -5.790   0.756  -5.894  0.00  0.00    +0.005 A 
ATOM     19 CL   UNL     1      -5.301  -2.221  -8.510  0.00  0.00    -0.084 Cl
ENDBRANCH  10  13
BRANCH   6  20
ATOM     20  C   UNL     1      -1.655   3.715  -0.141  0.00  0.00    +0.007 A 
ATOM     21  C   UNL     1      -0.703   4.667  -0.456  0.00  0.00    +0.008 A 
ATOM     22  C   UNL     1       0.607   4.501  -0.046  0.00  0.00    +0.004 A 
ATOM     23  C   UNL     1       0.968   3.388   0.690  0.00  0.00    +0.049 A 
ATOM     24  C   UNL     1       0.018   2.433   1.013  0.00  0.00    +0.162 A 
ATOM     25  C   UNL     1      -1.300   2.598   0.596  0.00  0.00    +0.165 A 
BRANCH  25  26
ATOM     26  O   UNL     1      -2.236   1.663   0.911  0.00  0.00    -0.491 OA
ATOM     27  C   UNL     1      -2.649   1.594   2.278  0.00  0.00    +0.277 C 
ENDBRANCH  25  26
BRANCH  24  28
ATOM     28  O   UNL     1       0.372   1.337   1.737  0.00  0.00    -0.491 OA
ATOM     29  C   UNL     1       1.742   1.235   2.131  0.00  0.00    +0.277 C 
ENDBRANCH  24  28
ENDBRANCH   6  20
BRANCH   1  30
ATOM     30  C   UNL     1      -4.172   4.634   1.553  0.00  0.00    +0.317 C 
ATOM     31  O   UNL     1      -5.001   4.486   2.431  0.00  0.00    -0.250 OA
BRANCH  30  32
ATOM     32  O   UNL     1      -3.409   5.747   1.526  0.00  0.00    -0.461 OA
BRANCH  32  33
ATOM     33  C   UNL     1      -3.628   6.708   2.561  0.00  0.00    +0.173 C 
ATOM     34  C   UNL     1      -4.694   7.709   2.109  0.00  0.00    +0.052 C 
BRANCH  33  36
ATOM     35  C   UNL     1      -1.295   6.471   3.421  0.00  0.00    +0.007 C 
ATOM     36  C   UNL     1      -2.322   7.451   2.852  0.00  0.00    +0.041 C 
ENDBRANCH  33  36
ENDBRANCH  32  33
ENDBRANCH  30  32
ENDBRANCH   1  30
TORSDOF 8
