REMARK  Name = ZINC39530551
REMARK  7 active torsions:
REMARK  status: ('A' for Active; 'I' for Inactive)
REMARK    1  A    between atoms: C_4  and  O_7
REMARK    2  A    between atoms: O_7  and  S_8
REMARK    3  A    between atoms: S_8  and  C_11
REMARK    4  A    between atoms: C_16  and  N_17
REMARK    5  A    between atoms: C_21  and  S_24
REMARK    6  A    between atoms: S_24  and  O_27
REMARK    7  A    between atoms: O_27  and  C_28
REMARK                            x       y       z     vdW  Elec       q    Type
REMARK                         _______ _______ _______ _____ _____    ______ ____
ROOT
ATOM      1  N   UNL     1       4.739  -3.850   1.029  0.00  0.00    -0.330 N 
ATOM      2  C   UNL     1       6.052  -3.973   1.680  0.00  0.00    +0.086 C 
ATOM      3  C   UNL     1       6.711  -5.272   1.204  0.00  0.00    -0.061 C 
ATOM      4  N   UNL     1       6.758  -5.286  -0.264  0.00  0.00    +0.398 N 
ATOM      5  C   UNL     1       5.395  -5.312  -0.808  0.00  0.00    +0.133 C 
ATOM      6  C   UNL     1       4.670  -4.021  -0.431  0.00  0.00    +0.115 C 
ATOM      7  H   UNL     1       7.234  -4.459  -0.592  0.00  0.00    -0.083 HD
ATOM      8  H   UNL     1       7.259  -6.105  -0.575  0.00  0.00    -0.083 HD
ENDROOT
BRANCH   1  14
ATOM      9  C   UNL     1       3.192  -2.273   2.002  0.00  0.00    +0.150 A 
ATOM     10  C   UNL     1       2.051  -2.014   2.737  0.00  0.00    +0.052 A 
ATOM     11  C   UNL     1       1.306  -3.060   3.252  0.00  0.00    +0.043 A 
ATOM     12  C   UNL     1       1.702  -4.369   3.033  0.00  0.00    +0.022 A 
ATOM     13  C   UNL     1       2.841  -4.633   2.300  0.00  0.00    +0.026 A 
ATOM     14  C   UNL     1       3.588  -3.585   1.776  0.00  0.00    +0.058 A 
ATOM     15 CL   UNL     1      -0.127  -2.731   4.174  0.00  0.00    -0.083 Cl
BRANCH   9  16
ATOM     16  S   UNL     1       4.140  -0.941   1.346  0.00  0.00    +0.153 S 
ATOM     17  O   UNL     1       5.458  -1.436   1.154  0.00  0.00    -0.131 OA
ATOM     18  O   UNL     1       3.863   0.192   2.158  0.00  0.00    -0.131 OA
BRANCH  16  19
ATOM     19  O   UNL     1       3.586  -0.632  -0.037  0.00  0.00    -0.342 OA
BRANCH  19  23
ATOM     20  C   UNL     1      -0.017   1.378   0.010  0.00  0.00    +0.000 A 
ATOM     21  C   UNL     1       1.170   2.088   0.002  0.00  0.00    +0.004 A 
ATOM     22  C   UNL     1       2.377   1.417  -0.013  0.00  0.00    +0.048 A 
ATOM     23  C   UNL     1       2.399   0.030  -0.021  0.00  0.00    +0.157 A 
ATOM     24  C   UNL     1       1.207  -0.680  -0.013  0.00  0.00    +0.048 A 
ATOM     25  C   UNL     1       0.002  -0.004   0.002  0.00  0.00    +0.004 A 
ENDBRANCH  19  23
ENDBRANCH  16  19
ENDBRANCH   9  16
ENDBRANCH   1  14
BRANCH   5  26
ATOM     26  S   UNL     1       5.467  -5.463  -2.614  0.00  0.00    +0.109 S 
ATOM     27  O   UNL     1       4.163  -5.668  -3.141  0.00  0.00    -0.138 OA
ATOM     28  O   UNL     1       6.317  -4.460  -3.155  0.00  0.00    -0.138 OA
BRANCH  26  29
ATOM     29  O   UNL     1       6.200  -6.772  -2.869  0.00  0.00    -0.347 OA
BRANCH  29  30
ATOM     30  C   UNL     1       5.448  -7.880  -2.637  0.00  0.00    +0.156 A 
ATOM     31  C   UNL     1       5.431  -8.457  -1.376  0.00  0.00    +0.048 A 
ATOM     32  C   UNL     1       4.666  -9.584  -1.143  0.00  0.00    +0.004 A 
ATOM     33  C   UNL     1       3.918 -10.136  -2.167  0.00  0.00    +0.000 A 
ATOM     34  C   UNL     1       3.933  -9.563  -3.425  0.00  0.00    +0.004 A 
ATOM     35  C   UNL     1       4.692  -8.433  -3.661  0.00  0.00    +0.048 A 
ENDBRANCH  29  30
ENDBRANCH  26  29
ENDBRANCH   5  26
TORSDOF 7
