REMARK  Name = ZINC01890923
REMARK  9 active torsions:
REMARK  status: ('A' for Active; 'I' for Inactive)
REMARK    1  A    between atoms: C_1  and  C_2
REMARK    2  A    between atoms: C_2  and  C_4
REMARK    3  A    between atoms: C_7  and  N_10
REMARK    4  A    between atoms: C_11  and  C_13
REMARK    5  A    between atoms: C_13  and  S_14
REMARK    6  A    between atoms: S_14  and  C_15
REMARK    7  A    between atoms: C_27  and  C_29
REMARK    8  A    between atoms: C_27  and  C_30
REMARK    9  A    between atoms: N_33  and  C_34
REMARK                            x       y       z     vdW  Elec       q    Type
REMARK                         _______ _______ _______ _____ _____    ______ ____
ROOT
ATOM      1  C   UNL     1       0.358  -7.377  -7.502  0.00  0.00    +0.198 A 
ATOM      2  N   UNL     1       0.314  -6.724  -8.638  0.00  0.00    -0.120 NA
ATOM      3  N   UNL     1       0.471  -7.650  -9.677  0.00  0.00    -0.109 NA
ATOM      4  C   UNL     1       0.606  -8.842  -9.144  0.00  0.00    +0.245 A 
ATOM      5  N   UNL     1       0.546  -8.705  -7.782  0.00  0.00    -0.249 N 
ATOM      6  C   UNL     1       0.668  -9.809  -6.965  0.00  0.00    +0.102 A 
ATOM      7  C   UNL     1       0.857 -11.085  -7.486  0.00  0.00    +0.075 A 
ATOM      8  C   UNL     1       0.970 -12.155  -6.498  0.00  0.00    -0.018 A 
ATOM      9  C   UNL     1       0.874 -11.755  -5.212  0.00  0.00    +0.021 A 
ATOM     10  S   UNL     1       0.642 -10.007  -5.304  0.00  0.00    -0.072 S 
ATOM     11  C   UNL     1       0.954 -12.642  -4.008  0.00  0.00    +0.203 C 
ATOM     12  O   UNL     1       0.824 -14.001  -4.455  0.00  0.00    -0.368 OA
ATOM     13  C   UNL     1       1.673 -14.328  -5.558  0.00  0.00    +0.068 C 
ATOM     14  C   UNL     1       1.182 -13.626  -6.829  0.00  0.00    +0.071 C 
ATOM     15  C   UNL     1       1.659 -15.842  -5.777  0.00  0.00    +0.041 C 
ATOM     16  C   UNL     1       3.102 -13.877  -5.249  0.00  0.00    +0.041 C 
ATOM     17  C   UNL     1       0.920 -11.193  -8.961  0.00  0.00    +0.268 A 
ATOM     18  O   UNL     1       1.083 -12.279  -9.488  0.00  0.00    -0.266 OA
ATOM     19  N   UNL     1       0.788 -10.091  -9.717  0.00  0.00    -0.245 N 
ENDROOT
BRANCH  19  20
ATOM     20  C   UNL     1       0.851 -10.203 -11.111  0.00  0.00    +0.053 A 
ATOM     21  C   UNL     1      -0.167 -10.845 -11.804  0.00  0.00    +0.026 A 
ATOM     22  C   UNL     1      -0.102 -10.954 -13.179  0.00  0.00    +0.002 A 
ATOM     23  C   UNL     1       0.974 -10.424 -13.866  0.00  0.00    +0.000 A 
ATOM     24  C   UNL     1       1.989  -9.783 -13.179  0.00  0.00    +0.002 A 
ATOM     25  C   UNL     1       1.928  -9.666 -11.804  0.00  0.00    +0.026 A 
ENDBRANCH  19  20
BRANCH   1  26
ATOM     26  S   UNL     1       0.209  -6.668  -5.896  0.00  0.00    -0.076 S 
BRANCH  26  27
ATOM     27  C   UNL     1      -0.019  -4.897  -6.217  0.00  0.00    +0.173 C 
BRANCH  27  29
ATOM     28  N   UNL     1      -0.342  -2.828  -4.900  0.00  0.00    -0.285 N 
ATOM     29  C   UNL     1      -0.161  -4.164  -4.908  0.00  0.00    +0.227 C 
ATOM     30  O   UNL     1      -0.114  -4.776  -3.862  0.00  0.00    -0.275 OA
ATOM     31  H   UNL     1      -0.454  -2.349  -5.736  0.00  0.00    +0.155 HD
BRANCH  28  35
ATOM     32  C   UNL     1      -0.415  -0.760  -1.291  0.00  0.00    +0.017 A 
ATOM     33  C   UNL     1       0.403  -1.888  -1.438  0.00  0.00    +0.013 A 
ATOM     34  C   UNL     1       0.424  -2.566  -2.629  0.00  0.00    +0.024 A 
ATOM     35  C   UNL     1      -0.366  -2.136  -3.692  0.00  0.00    +0.033 A 
ATOM     36  C   UNL     1      -1.180  -1.015  -3.550  0.00  0.00    +0.024 A 
ATOM     37  C   UNL     1      -1.212  -0.334  -2.361  0.00  0.00    +0.013 A 
BRANCH  32  39
ATOM     38  C   UNL     1       0.417  -0.491   1.133  0.00  0.00    +0.091 C 
ATOM     39  C   UNL     1      -0.441  -0.031  -0.017  0.00  0.00    +0.160 C 
ATOM     40  O   UNL     1      -1.154   0.942   0.110  0.00  0.00    -0.292 OA
ENDBRANCH  32  39
ENDBRANCH  28  35
ENDBRANCH  27  29
ENDBRANCH  26  27
ENDBRANCH   1  26
TORSDOF 6
