REMARK  Name = ZINC40143250
REMARK  4 active torsions:
REMARK  status: ('A' for Active; 'I' for Inactive)
REMARK    1  A    between atoms: C_4  and  C_7
REMARK    2  A    between atoms: C_18  and  C_29
REMARK    3  A    between atoms: C_21  and  C_23
REMARK    4  A    between atoms: C_34  and  O_35
REMARK                            x       y       z     vdW  Elec       q    Type
REMARK                         _______ _______ _______ _____ _____    ______ ____
ROOT
ATOM      1  C   UNL     1       3.697  -0.686  -0.038  0.00  0.00    +0.084 A 
ATOM      2  C   UNL     1       3.885  -1.862   0.731  0.00  0.00    +0.028 A 
ATOM      3  C   UNL     1       2.871  -2.393   1.535  0.00  0.00    +0.032 A 
ATOM      4  C   UNL     1       3.108  -3.529   2.254  0.00  0.00    +0.042 A 
ATOM      5  C   UNL     1       4.348  -4.164   2.200  0.00  0.00    +0.022 A 
ATOM      6  C   UNL     1       5.356  -3.672   1.427  0.00  0.00    +0.030 A 
ATOM      7  C   UNL     1       5.146  -2.507   0.674  0.00  0.00    +0.077 A 
ATOM      8  N   UNL     1       6.104  -1.983  -0.102  0.00  0.00    -0.213 NA
ATOM      9  C   UNL     1       5.875  -0.886  -0.798  0.00  0.00    +0.239 A 
ATOM     10  N   UNL     1       4.707  -0.251  -0.778  0.00  0.00    -0.212 NA
ATOM     11  N   UNL     1       6.893  -0.377  -1.587  0.00  0.00    -0.183 N 
ATOM     12  C   UNL     1       8.237  -0.959  -1.731  0.00  0.00    +0.141 C 
ATOM     13  C   UNL     1       8.943  -0.001  -2.711  0.00  0.00    +0.087 C 
ATOM     14  C   UNL     1       7.893   1.043  -3.020  0.00  0.00    +0.069 C 
ATOM     15  N   UNL     1       6.811   0.767  -2.378  0.00  0.00    -0.181 NA
ATOM     16 CL   UNL     1       1.850  -4.189   3.252  0.00  0.00    -0.084 Cl
ENDROOT
BRANCH   1  20
ATOM     17  C   UNL     1      -0.016   1.381   0.011  0.00  0.00    +0.000 A 
ATOM     18  C   UNL     1       0.537   0.930   1.196  0.00  0.00    +0.001 A 
ATOM     19  C   UNL     1       1.743   0.259   1.187  0.00  0.00    +0.010 A 
ATOM     20  C   UNL     1       2.403   0.034  -0.021  0.00  0.00    +0.001 A 
ATOM     21  C   UNL     1       1.839   0.490  -1.213  0.00  0.00    +0.010 A 
ATOM     22  C   UNL     1       0.634   1.161  -1.190  0.00  0.00    +0.001 A 
ENDBRANCH   1  20
BRANCH  14  23
ATOM     23  C   UNL     1       8.079   2.195  -3.921  0.00  0.00    +0.001 A 
ATOM     24  C   UNL     1       9.296   2.402  -4.584  0.00  0.00    +0.029 A 
ATOM     25  C   UNL     1       9.424   3.493  -5.418  0.00  0.00    +0.111 A 
ATOM     26  N   UNL     1       8.423   4.334  -5.593  0.00  0.00    -0.263 NA
ATOM     27  C   UNL     1       7.260   4.176  -4.988  0.00  0.00    +0.111 A 
ATOM     28  C   UNL     1       7.041   3.110  -4.142  0.00  0.00    +0.029 A 
ENDBRANCH  14  23
BRANCH  12  29
ATOM     29  C   UNL     1       8.153  -2.348  -2.309  0.00  0.00    +0.017 A 
ATOM     30  C   UNL     1       7.057  -2.718  -3.064  0.00  0.00    +0.009 A 
ATOM     31  C   UNL     1       6.979  -3.993  -3.594  0.00  0.00    +0.001 A 
ATOM     32  C   UNL     1       7.999  -4.900  -3.372  0.00  0.00    +0.004 A 
ATOM     33  C   UNL     1       9.098  -4.534  -2.619  0.00  0.00    +0.046 A 
ATOM     34  C   UNL     1       9.181  -3.254  -2.090  0.00  0.00    +0.122 A 
BRANCH  34  35
ATOM     35  O   UNL     1      10.263  -2.891  -1.353  0.00  0.00    -0.506 OA
ATOM     36  H   UNL     1      10.172  -3.066  -0.407  0.00  0.00    +0.292 HD
ENDBRANCH  34  35
ENDBRANCH  12  29
TORSDOF 4
