REMARK  Name = ZINC35915217
REMARK  7 active torsions:
REMARK  status: ('A' for Active; 'I' for Inactive)
REMARK    1  A    between atoms: C_1  and  C_2
REMARK    2  A    between atoms: C_2  and  C_3
REMARK    3  A    between atoms: C_6  and  C_9
REMARK    4  A    between atoms: C_13  and  C_27
REMARK    5  A    between atoms: N_19  and  C_20
REMARK    6  A    between atoms: C_20  and  C_21
REMARK    7  A    between atoms: N_32  and  C_35
REMARK                            x       y       z     vdW  Elec       q    Type
REMARK                         _______ _______ _______ _____ _____    ______ ____
ROOT
ATOM      1  C   UNL     1       2.841  -2.767   4.593  0.00  0.00    +0.108 C 
ATOM      2  C   UNL     1       2.498  -4.103   5.260  0.00  0.00    +0.028 C 
ATOM      3  C   UNL     1       3.074  -4.124   6.677  0.00  0.00    +0.016 C 
ATOM      4  C   UNL     1       2.448  -2.998   7.502  0.00  0.00    +0.093 C 
ATOM      5  C   UNL     1       2.791  -1.649   6.861  0.00  0.00    +0.122 C 
ATOM      6  N   UNL     1       2.371  -1.672   5.452  0.00  0.00    -0.278 N 
ATOM      7  C   UNL     1       1.568  -0.708   4.959  0.00  0.00    +0.303 C 
ATOM      8  O   UNL     1       1.152  -0.788   3.819  0.00  0.00    -0.253 OA
ATOM      9  N   UNL     1       1.226   0.344   5.729  0.00  0.00    -0.295 N 
ATOM     10  H   UNL     1       1.504   0.375   6.658  0.00  0.00    +0.151 HD
ENDROOT
BRANCH   4  11
ATOM     11  C   UNL     1       0.951  -3.172   7.537  0.00  0.00    +0.220 C 
ATOM     12  O   UNL     1       0.246  -2.507   6.808  0.00  0.00    -0.275 OA
ATOM     13  N   UNL     1       0.397  -4.068   8.378  0.00  0.00    -0.298 N 
ATOM     14  C   UNL     1       1.226  -4.795   9.349  0.00  0.00    +0.126 C 
ATOM     15  C   UNL     1       0.650  -4.569  10.752  0.00  0.00    +0.124 C 
ATOM     16  N   UNL     1      -0.795  -4.835  10.715  0.00  0.00    -0.325 N 
ATOM     17  C   UNL     1      -1.624  -4.108   9.744  0.00  0.00    +0.124 C 
ATOM     18  C   UNL     1      -1.049  -4.330   8.345  0.00  0.00    +0.126 C 
BRANCH  16  19
ATOM     19  C   UNL     1      -1.370  -5.764  11.588  0.00  0.00    +0.065 A 
ATOM     20  C   UNL     1      -1.923  -5.341  12.789  0.00  0.00    +0.026 A 
ATOM     21  C   UNL     1      -2.491  -6.261  13.649  0.00  0.00    +0.002 A 
ATOM     22  C   UNL     1      -2.509  -7.603  13.315  0.00  0.00    +0.003 A 
ATOM     23  C   UNL     1      -1.959  -8.030  12.120  0.00  0.00    +0.040 A 
ATOM     24  C   UNL     1      -1.395  -7.114  11.252  0.00  0.00    +0.144 A 
ATOM     25  F   UNL     1      -0.863  -7.529  10.082  0.00  0.00    -0.204 F 
ENDBRANCH  16  19
ENDBRANCH   4  11
BRANCH   1  29
ATOM     26  C   UNL     1       0.916  -2.531   0.787  0.00  0.00    -0.048 A 
ATOM     27  C   UNL     1       2.273  -2.285   0.892  0.00  0.00    +0.004 A 
ATOM     28  C   UNL     1       2.896  -2.361   2.124  0.00  0.00    +0.006 A 
ATOM     29  C   UNL     1       2.162  -2.683   3.250  0.00  0.00    -0.027 A 
ATOM     30  C   UNL     1       0.805  -2.927   3.145  0.00  0.00    +0.006 A 
ATOM     31  C   UNL     1       0.182  -2.847   1.914  0.00  0.00    +0.004 A 
BRANCH  26  33
ATOM     32  C   UNL     1      -0.257  -1.018  -0.790  0.00  0.00    +0.009 C 
ATOM     33  C   UNL     1       0.237  -2.447  -0.556  0.00  0.00    +0.032 C 
ENDBRANCH  26  33
ENDBRANCH   1  29
BRANCH   9  34
ATOM     34  C   UNL     1       0.435   1.439   5.163  0.00  0.00    +0.141 C 
BRANCH  34  35
ATOM     35  C   UNL     1       0.293   2.537   6.186  0.00  0.00    -0.030 A 
ATOM     36  C   UNL     1      -0.713   2.474   7.133  0.00  0.00    +0.005 A 
ATOM     37  C   UNL     1      -0.843   3.480   8.071  0.00  0.00    +0.000 A 
ATOM     38  C   UNL     1       0.033   4.550   8.063  0.00  0.00    +0.000 A 
ATOM     39  C   UNL     1       1.039   4.612   7.118  0.00  0.00    +0.000 A 
ATOM     40  C   UNL     1       1.172   3.604   6.182  0.00  0.00    +0.005 A 
ENDBRANCH  34  35
ENDBRANCH   9  34
TORSDOF 6
