REMARK  Name = ZINC47743444
REMARK  6 active torsions:
REMARK  status: ('A' for Active; 'I' for Inactive)
REMARK    1  A    between atoms: C_1  and  C_2
REMARK    2  A    between atoms: C_5  and  C_8
REMARK    3  A    between atoms: C_8  and  C_10
REMARK    4  A    between atoms: C_8  and  O_11
REMARK    5  A    between atoms: O_11  and  C_12
REMARK    6  A    between atoms: C_12  and  C_14
REMARK                            x       y       z     vdW  Elec       q    Type
REMARK                         _______ _______ _______ _____ _____    ______ ____
ROOT
ATOM      1  C   UNL     1      -1.389  -5.960   0.800  0.00  0.00    +0.356 C 
ATOM      2  O   UNL     1      -1.187  -6.563  -0.235  0.00  0.00    -0.243 OA
ENDROOT
BRANCH   1   3
ATOM      3  C   UNL     1      -2.282  -6.530   1.822  0.00  0.00    +0.128 A 
ATOM      4  C   UNL     1      -2.865  -7.733   1.589  0.00  0.00    +0.041 A 
ATOM      5  C   UNL     1      -3.754  -8.308   2.598  0.00  0.00    -0.011 A 
ATOM      6  C   UNL     1      -4.379  -9.543   2.410  0.00  0.00    +0.009 A 
ATOM      7  C   UNL     1      -5.208 -10.041   3.391  0.00  0.00    +0.001 A 
ATOM      8  C   UNL     1      -5.426  -9.330   4.563  0.00  0.00    +0.001 A 
ATOM      9  C   UNL     1      -4.819  -8.109   4.770  0.00  0.00    +0.014 A 
ATOM     10  C   UNL     1      -3.978  -7.585   3.792  0.00  0.00    +0.046 A 
ATOM     11  C   UNL     1      -3.306  -6.288   3.963  0.00  0.00    +0.257 A 
ATOM     12  O   UNL     1      -3.476  -5.638   4.978  0.00  0.00    -0.267 OA
ATOM     13  N   UNL     1      -2.497  -5.828   2.989  0.00  0.00    -0.316 N 
ATOM     14  H   UNL     1      -2.054  -4.974   3.111  0.00  0.00    +0.169 HD
ENDBRANCH   1   3
BRANCH   1  15
ATOM     15  O   UNL     1      -0.795  -4.768   1.013  0.00  0.00    -0.452 OA
BRANCH  15  16
ATOM     16  C   UNL     1       0.059  -4.275  -0.021  0.00  0.00    +0.204 C 
ATOM     17  C   UNL     1       1.488  -4.768   0.218  0.00  0.00    +0.057 C 
BRANCH  16  22
ATOM     18  C   UNL     1      -0.018   1.503   0.010  0.00  0.00    +0.044 C 
ATOM     19  C   UNL     1       0.002  -0.004   0.002  0.00  0.00    -0.050 A 
ATOM     20  C   UNL     1       0.006  -0.689  -1.199  0.00  0.00    +0.004 A 
ATOM     21  C   UNL     1       0.025  -2.071  -1.206  0.00  0.00    +0.007 A 
ATOM     22  C   UNL     1       0.040  -2.768  -0.013  0.00  0.00    -0.008 A 
ATOM     23  C   UNL     1       0.037  -2.084   1.188  0.00  0.00    +0.007 A 
ATOM     24  C   UNL     1       0.023  -0.702   1.195  0.00  0.00    +0.004 A 
ENDBRANCH  16  22
ENDBRANCH  15  16
ENDBRANCH   1  15
TORSDOF 4
