REMARK  Name = ZINC02806893
REMARK  10 active torsions:
REMARK  status: ('A' for Active; 'I' for Inactive)
REMARK    1  A    between atoms: C_1  and  C_2
REMARK    2  A    between atoms: C_2  and  C_3
REMARK    3  A    between atoms: C_6  and  C_8
REMARK    4  A    between atoms: C_8  and  C_10
REMARK    5  A    between atoms: C_11  and  C_32
REMARK    6  A    between atoms: C_18  and  C_20
REMARK    7  A    between atoms: C_23  and  O_28
REMARK    8  A    between atoms: C_24  and  O_26
REMARK    9  A    between atoms: O_26  and  C_27
REMARK   10  A    between atoms: O_28  and  C_29
REMARK                            x       y       z     vdW  Elec       q    Type
REMARK                         _______ _______ _______ _____ _____    ______ ____
ROOT
ATOM      1  C   UNL     1       0.614   7.317   1.757  0.00  0.00    +0.055 C 
ATOM      2  C   UNL     1       0.591   8.532   2.324  0.00  0.00    +0.124 C 
ATOM      3  N   UNL     1       1.540   8.934   3.232  0.00  0.00    -0.280 N 
ATOM      4  C   UNL     1       2.678   8.149   3.356  0.00  0.00    +0.219 A 
ATOM      5  N   UNL     1       3.810   8.396   3.956  0.00  0.00    -0.201 NA
ATOM      6  C   UNL     1       4.629   7.349   3.814  0.00  0.00    +0.247 A 
ATOM      7  N   UNL     1       4.022   6.418   3.120  0.00  0.00    -0.156 NA
ATOM      8  N   UNL     1       2.754   6.909   2.813  0.00  0.00    -0.221 N 
ATOM      9  C   UNL     1       1.661   6.282   2.073  0.00  0.00    +0.176 C 
ATOM     10  H   UNL     1       1.382   9.847   3.826  0.00  0.00    +0.155 HD
ENDROOT
BRANCH   9  11
ATOM     11  C   UNL     1       1.049   5.185   2.905  0.00  0.00    -0.015 A 
ATOM     12  C   UNL     1       0.973   3.899   2.402  0.00  0.00    +0.010 A 
ATOM     13  C   UNL     1       0.412   2.889   3.162  0.00  0.00    +0.050 A 
ATOM     14  C   UNL     1      -0.075   3.164   4.429  0.00  0.00    +0.168 A 
ATOM     15  C   UNL     1       0.002   4.458   4.935  0.00  0.00    +0.162 A 
ATOM     16  C   UNL     1       0.569   5.465   4.171  0.00  0.00    +0.055 A 
BRANCH  15  17
ATOM     17  O   UNL     1      -0.475   4.733   6.179  0.00  0.00    -0.491 OA
ATOM     18  C   UNL     1      -0.464   6.102   6.590  0.00  0.00    +0.277 C 
ENDBRANCH  15  17
BRANCH  14  19
ATOM     19  O   UNL     1      -0.627   2.172   5.178  0.00  0.00    -0.431 OA
BRANCH  19  20
ATOM     20  C   UNL     1      -0.673   0.868   4.594  0.00  0.00    +0.541 C 
ATOM     21  F   UNL     1      -1.424   0.911   3.414  0.00  0.00    -0.166 F 
ATOM     22  F   UNL     1       0.627   0.441   4.304  0.00  0.00    -0.166 F 
ENDBRANCH  19  20
ENDBRANCH  14  19
ENDBRANCH   9  11
BRANCH   2  23
ATOM     23  C   UNL     1      -0.513   9.489   1.953  0.00  0.00    +0.431 C 
ATOM     24  F   UNL     1      -1.708   9.078   2.554  0.00  0.00    -0.165 F 
ATOM     25  F   UNL     1      -0.186  10.774   2.398  0.00  0.00    -0.165 F 
ATOM     26  F   UNL     1      -0.671   9.502   0.563  0.00  0.00    -0.165 F 
ENDBRANCH   2  23
BRANCH   1  27
ATOM     27  C   UNL     1      -0.399   6.989   0.822  0.00  0.00    +0.200 C 
ATOM     28  O   UNL     1      -1.556   6.876   1.191  0.00  0.00    -0.286 OA
BRANCH  27  32
ATOM     29  C   UNL     1       1.042   6.534  -3.010  0.00  0.00    -0.010 A 
ATOM     30  C   UNL     1      -0.292   6.305  -2.883  0.00  0.00    +0.012 A 
ATOM     31  C   UNL     1      -0.878   6.428  -1.647  0.00  0.00    +0.019 A 
ATOM     32  C   UNL     1      -0.055   6.786  -0.591  0.00  0.00    +0.059 A 
ATOM     33  S   UNL     1       1.531   6.927  -1.394  0.00  0.00    -0.090 S 
BRANCH  29  35
ATOM     34  C   UNL     1       1.839   7.800  -4.987  0.00  0.00    +0.009 C 
ATOM     35  C   UNL     1       1.890   6.459  -4.253  0.00  0.00    +0.039 C 
ENDBRANCH  29  35
ENDBRANCH  27  32
ENDBRANCH   1  27
TORSDOF 8
