REMARK  Name = ZINC06197909
REMARK  9 active torsions:
REMARK  status: ('A' for Active; 'I' for Inactive)
REMARK    1  A    between atoms: C_1  and  C_2
REMARK    2  A    between atoms: C_2  and  C_3
REMARK    3  A    between atoms: C_10  and  C_15
REMARK    4  A    between atoms: C_15  and  C_17
REMARK    5  A    between atoms: C_15  and  N_63
REMARK    6  A    between atoms: N_21  and  C_22
REMARK    7  A    between atoms: C_22  and  C_23
REMARK    8  A    between atoms: C_22  and  C_24
REMARK    9  A    between atoms: C_22  and  C_25
REMARK                            x       y       z     vdW  Elec       q    Type
REMARK                         _______ _______ _______ _____ _____    ______ ____
ROOT
ATOM      1  C   UNL     1      -2.277   1.110   0.180  0.00  0.00    +0.039 C 
ENDROOT
BRANCH   1   9
ATOM      2  C   UNL     1       3.767   2.266   0.831  0.00  0.00    -0.047 A 
ATOM      3  C   UNL     1       3.657   3.649   0.877  0.00  0.00    +0.005 A 
ATOM      4  C   UNL     1       2.426   4.260   0.782  0.00  0.00    +0.026 A 
ATOM      5  C   UNL     1       1.280   3.485   0.638  0.00  0.00    +0.049 A 
ATOM      6  C   UNL     1       1.395   2.083   0.592  0.00  0.00    -0.001 A 
ATOM      7  C   UNL     1       2.655   1.484   0.690  0.00  0.00    +0.013 A 
ATOM      8  C   UNL     1       0.183   1.275   0.440  0.00  0.00    +0.017 A 
ATOM      9  C   UNL     1      -1.011   1.911   0.344  0.00  0.00    +0.011 A 
ATOM     10  C   UNL     1      -1.073   3.320   0.401  0.00  0.00    +0.251 A 
ATOM     11  O   UNL     1      -2.156   3.871   0.317  0.00  0.00    -0.268 OA
ATOM     12  N   UNL     1       0.035   4.070   0.540  0.00  0.00    -0.322 N 
ATOM     13  H   UNL     1      -0.045   5.066   0.573  0.00  0.00    +0.169 HD
BRANCH   2  15
ATOM     14  C   UNL     1       5.725   1.461  -0.461  0.00  0.00    +0.009 C 
ATOM     15  C   UNL     1       5.125   1.621   0.938  0.00  0.00    +0.032 C 
ENDBRANCH   2  15
ENDBRANCH   1   9
BRANCH   1  25
ATOM     16  C   UNL     1      -4.177   0.730  -1.275  0.00  0.00    -0.072 C 
ATOM     17  C   UNL     1      -5.074   1.453  -2.280  0.00  0.00    +0.017 C 
ATOM     18  C   UNL     1      -4.262   1.894  -3.470  0.00  0.00    -0.048 A 
ATOM     19  C   UNL     1      -4.930   2.245  -4.634  0.00  0.00    +0.004 A 
ATOM     20  C   UNL     1      -4.224   2.659  -5.745  0.00  0.00    +0.000 A 
ATOM     21  C   UNL     1      -2.844   2.723  -5.699  0.00  0.00    +0.000 A 
ATOM     22  C   UNL     1      -2.178   2.372  -4.543  0.00  0.00    +0.002 A 
ATOM     23  C   UNL     1      -2.886   1.955  -3.425  0.00  0.00    -0.061 A 
ATOM     24  C   UNL     1      -2.114   1.578  -2.187  0.00  0.00    -0.041 C 
ATOM     25  N   UNL     1      -3.005   1.591  -1.015  0.00  0.00    +0.392 N 
ATOM     26  H   UNL     1      -3.325   2.552  -0.848  0.00  0.00    -0.080 HD
ENDBRANCH   1  25
BRANCH   1  27
ATOM     27  C   UNL     1      -3.150   1.298   1.394  0.00  0.00    +0.143 A 
ATOM     28  N   UNL     1      -3.768   2.397   1.751  0.00  0.00    -0.115 NA
ATOM     29  N   UNL     1      -4.413   2.156   2.840  0.00  0.00    -0.023 NA
ATOM     30  N   UNL     1      -4.215   0.933   3.192  0.00  0.00    -0.043 NA
ATOM     31  N   UNL     1      -3.442   0.371   2.325  0.00  0.00    -0.225 N 
BRANCH  31  32
ATOM     32  C   UNL     1      -2.970  -1.016   2.351  0.00  0.00    +0.059 C 
ATOM     33  C   UNL     1      -1.440  -1.034   2.354  0.00  0.00    +0.036 C 
ATOM     34  C   UNL     1      -3.492  -1.709   3.611  0.00  0.00    +0.036 C 
ATOM     35  C   UNL     1      -3.486  -1.752   1.113  0.00  0.00    +0.036 C 
ENDBRANCH  31  32
ENDBRANCH   1  27
TORSDOF 5
