REMARK  Name = ZINC11787274
REMARK  13 active torsions:
REMARK  status: ('A' for Active; 'I' for Inactive)
REMARK    1  A    between atoms: C_1  and  C_2
REMARK    2  A    between atoms: C_5  and  C_8
REMARK    3  A    between atoms: C_13  and  C_16
REMARK    4  A    between atoms: C_16  and  C_27
REMARK    5  A    between atoms: N_19  and  C_23
REMARK    6  A    between atoms: C_23  and  C_24
REMARK    7  A    between atoms: C_24  and  N_70
REMARK    8  A    between atoms: C_25  and  N_70
REMARK    9  A    between atoms: C_26  and  N_70
REMARK   10  A    between atoms: C_27  and  C_28
REMARK   11  A    between atoms: C_28  and  C_29
REMARK   12  A    between atoms: C_29  and  C_30
REMARK   13  A    between atoms: C_29  and  C_31
REMARK                            x       y       z     vdW  Elec       q    Type
REMARK                         _______ _______ _______ _____ _____    ______ ____
ROOT
ATOM      1  C   UNL     1       4.718  -0.047  -1.232  0.00  0.00    +0.115 C 
ATOM      2  C   UNL     1       5.623  -0.576  -0.137  0.00  0.00    +0.247 C 
ATOM      3  O   UNL     1       5.936  -0.013   0.890  0.00  0.00    -0.273 OA
ATOM      4  N   UNL     1       6.008  -1.802  -0.543  0.00  0.00    -0.226 N 
ATOM      5  C   UNL     1       5.477  -2.119  -1.730  0.00  0.00    +0.309 C 
ATOM      6  O   UNL     1       5.678  -3.172  -2.301  0.00  0.00    -0.252 OA
ATOM      7  N   UNL     1       4.696  -1.139  -2.220  0.00  0.00    -0.285 N 
ATOM      8  H   UNL     1       4.212  -1.150  -3.061  0.00  0.00    +0.151 HD
ENDROOT
BRANCH   1  14
ATOM      9  C   UNL     1      -0.686  -0.695  -0.928  0.00  0.00    +0.247 C 
ATOM     10  O   UNL     1      -1.050  -1.748  -0.444  0.00  0.00    -0.270 OA
ATOM     11  N   UNL     1       0.513  -0.178  -0.594  0.00  0.00    -0.298 N 
ATOM     12  C   UNL     1       1.021   1.028  -1.262  0.00  0.00    +0.108 C 
ATOM     13  C   UNL     1       2.418   0.733  -1.817  0.00  0.00    +0.025 C 
ATOM     14  C   UNL     1       3.312   0.216  -0.688  0.00  0.00    +0.024 C 
ATOM     15  C   UNL     1       2.731  -1.085  -0.129  0.00  0.00    +0.025 C 
ATOM     16  C   UNL     1       1.337  -0.810   0.445  0.00  0.00    +0.108 C 
BRANCH   9  21
ATOM     17  C   UNL     1      -4.082   2.086  -4.650  0.00  0.00    +0.044 C 
ATOM     18  C   UNL     1      -3.192   1.357  -3.676  0.00  0.00    -0.050 A 
ATOM     19  C   UNL     1      -3.163  -0.026  -3.671  0.00  0.00    +0.004 A 
ATOM     20  C   UNL     1      -2.351  -0.699  -2.781  0.00  0.00    +0.013 A 
ATOM     21  C   UNL     1      -1.558   0.019  -1.885  0.00  0.00    +0.037 A 
ATOM     22  C   UNL     1      -1.596   1.415  -1.892  0.00  0.00    +0.013 A 
ATOM     23  C   UNL     1      -2.408   2.075  -2.790  0.00  0.00    +0.004 A 
ENDBRANCH   9  21
ENDBRANCH   1  14
BRANCH   4  24
ATOM     24  C   UNL     1       6.898  -2.681   0.221  0.00  0.00    +0.099 C 
BRANCH  24  25
ATOM     25  C   UNL     1       6.066  -3.565   1.152  0.00  0.00    -0.060 C 
BRANCH  25  28
ATOM     26  C   UNL     1       7.803  -3.669   2.835  0.00  0.00    -0.097 C 
ATOM     27  C   UNL     1       6.193  -5.467   2.644  0.00  0.00    -0.097 C 
ATOM     28  N   UNL     1       6.975  -4.459   1.899  0.00  0.00    +0.377 N 
ATOM     29  H   UNL     1       7.591  -4.940   1.234  0.00  0.00    -0.083 HD
ENDBRANCH  25  28
ENDBRANCH  24  25
ENDBRANCH   4  24
BRANCH   1  30
ATOM     30  C   UNL     1       5.303   1.226  -1.845  0.00  0.00    +0.036 C 
BRANCH  30  31
ATOM     31  C   UNL     1       6.653   0.908  -2.491  0.00  0.00    +0.005 C 
BRANCH  31  32
ATOM     32  C   UNL     1       7.239   2.182  -3.104  0.00  0.00    -0.017 C 
ATOM     33  C   UNL     1       8.642   1.892  -3.640  0.00  0.00    +0.007 C 
ATOM     34  C   UNL     1       6.343   2.653  -4.252  0.00  0.00    +0.007 C 
ENDBRANCH  31  32
ENDBRANCH  30  31
ENDBRANCH   1  30
TORSDOF 8
