REMARK  Name = ZINC39848588
REMARK  10 active torsions:
REMARK  status: ('A' for Active; 'I' for Inactive)
REMARK    1  A    between atoms: C_1  and  C_2
REMARK    2  A    between atoms: C_3  and  C_37
REMARK    3  A    between atoms: C_8  and  C_28
REMARK    4  A    between atoms: C_10  and  C_15
REMARK    5  A    between atoms: C_15  and  C_17
REMARK    6  A    between atoms: C_23  and  O_26
REMARK    7  A    between atoms: O_26  and  C_27
REMARK    8  A    between atoms: C_31  and  C_34
REMARK    9  A    between atoms: C_34  and  C_35
REMARK   10  A    between atoms: C_34  and  C_36
REMARK                            x       y       z     vdW  Elec       q    Type
REMARK                         _______ _______ _______ _____ _____    ______ ____
ROOT
ATOM      1  C   UNL     1      -0.264   1.979   0.577  0.00  0.00    +0.066 C 
ATOM      2  C   UNL     1      -0.022   0.504   0.385  0.00  0.00    +0.050 A 
ATOM      3  C   UNL     1       0.277  -0.012  -0.833  0.00  0.00    +0.011 A 
ATOM      4  S   UNL     1       0.444  -1.743  -0.429  0.00  0.00    -0.057 S 
ATOM      5  C   UNL     1       0.122  -1.629   1.219  0.00  0.00    +0.169 A 
ATOM      6  N   UNL     1      -0.086  -0.342   1.396  0.00  0.00    -0.229 NA
ATOM      7  N   UNL     1       0.089  -2.646   2.163  0.00  0.00    -0.232 N 
ATOM      8  C   UNL     1      -0.205  -2.488   3.593  0.00  0.00    +0.152 C 
ATOM      9  C   UNL     1      -0.120  -3.871   4.195  0.00  0.00    +0.080 C 
ATOM     10  C   UNL     1       0.193  -4.717   3.185  0.00  0.00    +0.250 C 
ATOM     11  C   UNL     1       0.315  -3.951   1.930  0.00  0.00    +0.293 C 
ATOM     12  O   UNL     1       0.583  -4.429   0.845  0.00  0.00    -0.266 OA
ATOM     13  O   UNL     1       0.362  -6.055   3.307  0.00  0.00    -0.282 OA
ATOM     14  C   UNL     1       0.425   0.684  -2.161  0.00  0.00    +0.053 C 
ENDROOT
BRANCH   8  15
ATOM     15  C   UNL     1      -1.590  -1.924   3.778  0.00  0.00    -0.022 A 
ATOM     16  C   UNL     1      -2.649  -2.442   3.056  0.00  0.00    +0.006 A 
ATOM     17  C   UNL     1      -3.920  -1.925   3.226  0.00  0.00    +0.004 A 
ATOM     18  C   UNL     1      -4.132  -0.891   4.118  0.00  0.00    -0.045 A 
ATOM     19  C   UNL     1      -3.073  -0.374   4.841  0.00  0.00    +0.004 A 
ATOM     20  C   UNL     1      -1.803  -0.893   4.674  0.00  0.00    +0.006 A 
BRANCH  18  21
ATOM     21  C   UNL     1      -5.517  -0.327   4.302  0.00  0.00    +0.013 C 
ATOM     22  C   UNL     1      -5.947  -0.497   5.761  0.00  0.00    +0.012 C 
ATOM     23  C   UNL     1      -5.514   1.160   3.942  0.00  0.00    +0.012 C 
ENDBRANCH  18  21
ENDBRANCH   8  15
BRANCH   9  24
ATOM     24  C   UNL     1      -0.335  -4.228   5.601  0.00  0.00    +0.230 C 
ATOM     25  O   UNL     1      -1.277  -4.934   5.912  0.00  0.00    -0.283 OA
BRANCH  24  26
ATOM     26  C   UNL     1       0.586  -3.733   6.633  0.00  0.00    +0.176 A 
ATOM     27  C   UNL     1       0.532  -4.061   7.953  0.00  0.00    +0.062 A 
ATOM     28  C   UNL     1       1.632  -3.342   8.593  0.00  0.00    +0.025 A 
ATOM     29  C   UNL     1       2.106  -3.257   9.906  0.00  0.00    +0.012 A 
ATOM     30  C   UNL     1       3.188  -2.473  10.188  0.00  0.00    +0.004 A 
ATOM     31  C   UNL     1       3.822  -1.759   9.180  0.00  0.00    +0.049 A 
ATOM     32  C   UNL     1       3.371  -1.829   7.875  0.00  0.00    +0.163 A 
ATOM     33  C   UNL     1       2.268  -2.623   7.565  0.00  0.00    +0.177 A 
ATOM     34  O   UNL     1       1.616  -2.890   6.416  0.00  0.00    -0.448 OA
BRANCH  32  35
ATOM     35  O   UNL     1       4.001  -1.125   6.896  0.00  0.00    -0.491 OA
ATOM     36  C   UNL     1       5.124  -0.333   7.288  0.00  0.00    +0.277 C 
ENDBRANCH  32  35
ENDBRANCH  24  26
ENDBRANCH   9  24
TORSDOF 5
