REMARK  Name = ZINC05297798
REMARK  4 active torsions:
REMARK  status: ('A' for Active; 'I' for Inactive)
REMARK    1  A    between atoms: C_3  and  C_10
REMARK    2  A    between atoms: C_5  and  N_7
REMARK    3  A    between atoms: C_11  and  C_23
REMARK    4  A    between atoms: C_14  and  C_16
REMARK                            x       y       z     vdW  Elec       q    Type
REMARK                         _______ _______ _______ _____ _____    ______ ____
ROOT
ATOM      1  C   UNL     1      -0.070   5.315   0.033  0.00  0.00    +0.097 A 
ATOM      2  C   UNL     1      -1.064   6.200  -0.644  0.00  0.00    +0.074 A 
ATOM      3  N   UNL     1      -0.671   7.473  -0.347  0.00  0.00    -0.337 N 
ATOM      4  H   UNL     1      -1.123   8.315  -0.640  0.00  0.00    +0.167 HD
ATOM      5  C   UNL     1       0.459   7.386   0.427  0.00  0.00    +0.139 A 
ATOM      6  N   UNL     1       0.792   6.114   0.636  0.00  0.00    -0.227 NA
ENDROOT
BRANCH   5   7
ATOM      7  C   UNL     1       1.198   8.536   0.953  0.00  0.00    +0.017 A 
ATOM      8  C   UNL     1       0.766   9.844   0.669  0.00  0.00    +0.012 A 
ATOM      9  C   UNL     1       1.459  10.910   1.168  0.00  0.00    +0.016 A 
ATOM     10  C   UNL     1       2.592  10.706   1.943  0.00  0.00    +0.018 A 
ATOM     11  C   UNL     1       3.030   9.418   2.224  0.00  0.00    +0.016 A 
ATOM     12  C   UNL     1       2.347   8.339   1.739  0.00  0.00    +0.012 A 
ATOM     13 BR   UNL     1       3.547  12.191   2.621  0.00  0.00    -0.050 Br
ENDBRANCH   5   7
BRANCH   2  14
ATOM     14  C   UNL     1      -2.172   5.806  -1.419  0.00  0.00    +0.001 A 
ATOM     15  C   UNL     1      -2.034   4.792  -2.395  0.00  0.00    +0.011 A 
ATOM     16  C   UNL     1      -3.115   4.417  -3.136  0.00  0.00    +0.016 A 
ATOM     17  C   UNL     1      -4.347   5.032  -2.941  0.00  0.00    +0.018 A 
ATOM     18  C   UNL     1      -4.494   6.034  -1.987  0.00  0.00    +0.016 A 
ATOM     19  C   UNL     1      -3.429   6.424  -1.230  0.00  0.00    +0.011 A 
ATOM     20 BR   UNL     1      -5.835   4.503  -3.982  0.00  0.00    -0.050 Br
ENDBRANCH   2  14
BRANCH   1  23
ATOM     21  C   UNL     1      -1.225   1.748   0.017  0.00  0.00    +0.003 A 
ATOM     22  C   UNL     1      -1.255   3.124   0.031  0.00  0.00    +0.010 A 
ATOM     23  C   UNL     1      -0.050   3.848   0.024  0.00  0.00    +0.005 A 
ATOM     24  C   UNL     1       1.174   3.157   0.008  0.00  0.00    +0.042 A 
ATOM     25  C   UNL     1       1.182   1.781   0.000  0.00  0.00    +0.127 A 
ATOM     26  C   UNL     1      -0.013   1.076   0.008  0.00  0.00    +0.033 A 
BRANCH  25  27
ATOM     27  N   UNL     1       2.469   1.051  -0.016  0.00  0.00    +0.056 N 
ATOM     28  O   UNL     1       2.480  -0.266  -0.023  0.00  0.00    -0.126 OA
ATOM     29  O   UNL     1       3.605   1.718  -0.023  0.00  0.00    -0.126 OA
ENDBRANCH  25  27
ENDBRANCH   1  23
TORSDOF 4
