REMARK  Name = ZINC13945618
REMARK  10 active torsions:
REMARK  status: ('A' for Active; 'I' for Inactive)
REMARK    1  A    between atoms: C_1  and  C_2
REMARK    2  A    between atoms: C_6  and  O_9
REMARK    3  A    between atoms: C_7  and  C_8
REMARK    4  A    between atoms: O_9  and  C_10
REMARK    5  A    between atoms: C_10  and  C_11
REMARK    6  A    between atoms: N_13  and  N_14
REMARK    7  A    between atoms: C_15  and  C_16
REMARK    8  A    between atoms: C_19  and  O_22
REMARK    9  A    between atoms: O_22  and  C_23
REMARK   10  A    between atoms: C_23  and  C_25
REMARK                            x       y       z     vdW  Elec       q    Type
REMARK                         _______ _______ _______ _____ _____    ______ ____
ROOT
ATOM      1  C   UNL     1       0.733   0.689  -4.909  0.00  0.00    -0.005 A 
ATOM      2  C   UNL     1       1.288   0.495  -6.176  0.00  0.00    +0.013 A 
ATOM      3  C   UNL     1       2.420  -0.278  -6.319  0.00  0.00    +0.047 A 
ATOM      4  C   UNL     1       3.003  -0.872  -5.207  0.00  0.00    +0.132 A 
ATOM      5  C   UNL     1       2.451  -0.686  -3.946  0.00  0.00    +0.047 A 
ATOM      6  C   UNL     1       1.323   0.089  -3.793  0.00  0.00    +0.013 A 
ENDROOT
BRANCH   1   8
ATOM      7  N   UNL     1      -0.844   1.909  -3.568  0.00  0.00    -0.188 NA
ATOM      8  C   UNL     1      -0.474   1.520  -4.750  0.00  0.00    +0.138 C 
BRANCH   7  11
ATOM      9  C   UNL     1      -0.318   2.241  -1.270  0.00  0.00    +0.270 C 
ATOM     10  O   UNL     1      -1.490   2.462  -1.048  0.00  0.00    -0.270 OA
ATOM     11  N   UNL     1       0.088   1.953  -2.522  0.00  0.00    -0.204 N 
ATOM     12  H   UNL     1       1.025   1.777  -2.700  0.00  0.00    +0.177 HD
BRANCH   9  13
ATOM     13  C   UNL     1       0.684   2.289  -0.145  0.00  0.00    +0.326 C 
BRANCH  13  14
ATOM     14  O   UNL     1       0.015   2.612   1.075  0.00  0.00    -0.482 OA
BRANCH  14  20
ATOM     15  C   UNL     1       0.342   3.426   5.877  0.00  0.00    +0.044 C 
ATOM     16  C   UNL     1       0.976   3.090   4.552  0.00  0.00    -0.044 A 
ATOM     17  C   UNL     1       2.339   2.865   4.475  0.00  0.00    +0.004 A 
ATOM     18  C   UNL     1       2.923   2.557   3.261  0.00  0.00    +0.004 A 
ATOM     19  C   UNL     1       2.147   2.471   2.121  0.00  0.00    +0.046 A 
ATOM     20  C   UNL     1       0.780   2.696   2.195  0.00  0.00    +0.124 A 
ATOM     21  C   UNL     1       0.197   3.011   3.414  0.00  0.00    -0.006 A 
ATOM     22  C   UNL     1      -1.287   3.261   3.498  0.00  0.00    +0.048 C 
ENDBRANCH  14  20
ENDBRANCH  13  14
ENDBRANCH   9  13
ENDBRANCH   7  11
ENDBRANCH   1   8
BRANCH   4  23
ATOM     23  O   UNL     1       4.116  -1.638  -5.354  0.00  0.00    -0.422 OA
BRANCH  23  24
ATOM     24  C   UNL     1       3.987  -2.957  -5.109  0.00  0.00    +0.346 C 
ATOM     25  O   UNL     1       2.894  -3.425  -4.864  0.00  0.00    -0.244 OA
BRANCH  24  26
ATOM     26  C   UNL     1       5.176  -3.831  -5.137  0.00  0.00    +0.078 A 
ATOM     27  C   UNL     1       6.435  -3.295  -5.418  0.00  0.00    +0.018 A 
ATOM     28  C   UNL     1       7.541  -4.117  -5.442  0.00  0.00    +0.021 A 
ATOM     29  C   UNL     1       7.407  -5.473  -5.190  0.00  0.00    +0.042 A 
ATOM     30  C   UNL     1       6.162  -6.012  -4.911  0.00  0.00    +0.040 A 
ATOM     31  C   UNL     1       5.047  -5.199  -4.877  0.00  0.00    +0.056 A 
ATOM     32 CL   UNL     1       3.488  -5.874  -4.520  0.00  0.00    -0.083 Cl
ATOM     33 CL   UNL     1       8.805  -6.501  -5.224  0.00  0.00    -0.083 Cl
ENDBRANCH  24  26
ENDBRANCH  23  24
ENDBRANCH   4  23
TORSDOF 8
