REMARK  Name = ZINC33659518
REMARK  9 active torsions:
REMARK  status: ('A' for Active; 'I' for Inactive)
REMARK    1  A    between atoms: C_1  and  O_2
REMARK    2  A    between atoms: O_2  and  C_3
REMARK    3  A    between atoms: C_3  and  C_4
REMARK    4  A    between atoms: C_4  and  N_5
REMARK    5  A    between atoms: N_5  and  C_6
REMARK    6  A    between atoms: N_5  and  S_25
REMARK    7  A    between atoms: C_6  and  C_7
REMARK    8  A    between atoms: C_17  and  C_19
REMARK    9  A    between atoms: S_25  and  C_28
REMARK                            x       y       z     vdW  Elec       q    Type
REMARK                         _______ _______ _______ _____ _____    ______ ____
ROOT
ATOM      1  N   UNL     1      -2.066   5.217  -1.262  0.00  0.00    -0.166 NA
ENDROOT
BRANCH   1   2
ATOM      2  S   UNL     1      -1.415   5.535   0.227  0.00  0.00    +0.062 S 
ATOM      3  O   UNL     1      -2.219   4.851   1.177  0.00  0.00    -0.153 OA
ATOM      4  O   UNL     1      -1.196   6.938   0.283  0.00  0.00    -0.153 OA
BRANCH   2   5
ATOM      5  C   UNL     1       0.175   4.775   0.273  0.00  0.00    +0.113 A 
ATOM      6  C   UNL     1       0.373   3.647   1.008  0.00  0.00    +0.029 A 
ATOM      7  C   UNL     1       1.622   3.032   1.056  0.00  0.00    +0.003 A 
ATOM      8  C   UNL     1       2.681   3.542   0.370  0.00  0.00    +0.008 A 
ATOM      9  C   UNL     1       2.515   4.705  -0.400  0.00  0.00    -0.016 A 
ATOM     10  C   UNL     1       1.244   5.331  -0.450  0.00  0.00    +0.008 A 
ATOM     11  C   UNL     1       1.078   6.495  -1.219  0.00  0.00    +0.010 A 
ATOM     12  C   UNL     1       2.139   7.008  -1.901  0.00  0.00    +0.001 A 
ATOM     13  C   UNL     1       3.387   6.390  -1.857  0.00  0.00    +0.001 A 
ATOM     14  C   UNL     1       3.585   5.262  -1.123  0.00  0.00    +0.008 A 
ENDBRANCH   2   5
ENDBRANCH   1   2
BRANCH   1  15
ATOM     15  C   UNL     1      -2.887   4.020  -1.461  0.00  0.00    +0.138 C 
BRANCH  15  16
ATOM     16  C   UNL     1      -4.364   4.379  -1.287  0.00  0.00    +0.176 C 
BRANCH  16  18
ATOM     17  C   UNL     1      -6.128   5.686  -2.249  0.00  0.00    +0.194 C 
ATOM     18  O   UNL     1      -4.759   5.285  -2.320  0.00  0.00    -0.382 OA
ENDBRANCH  16  18
ENDBRANCH  15  16
ENDBRANCH   1  15
BRANCH   1  19
ATOM     19  C   UNL     1      -1.822   6.132  -2.379  0.00  0.00    +0.205 C 
BRANCH  19  20
ATOM     20  C   UNL     1      -0.649   5.638  -3.186  0.00  0.00    +0.232 C 
ATOM     21  O   UNL     1      -0.074   4.622  -2.860  0.00  0.00    -0.274 OA
ATOM     22  N   UNL     1      -0.239   6.326  -4.270  0.00  0.00    -0.289 N 
ATOM     23  C   UNL     1      -0.933   7.557  -4.679  0.00  0.00    +0.114 C 
ATOM     24  C   UNL     1       0.052   8.732  -4.529  0.00  0.00    +0.062 C 
ATOM     25  C   UNL     1       1.383   8.312  -5.064  0.00  0.00    -0.003 A 
ATOM     26  C   UNL     1       1.820   7.049  -5.319  0.00  0.00    -0.012 A 
ATOM     27  C   UNL     1       3.118   6.924  -5.812  0.00  0.00    +0.013 A 
ATOM     28  C   UNL     1       3.873   8.028  -6.018  0.00  0.00    +0.046 A 
ATOM     29  S   UNL     1       2.763   9.332  -5.510  0.00  0.00    -0.101 S 
ATOM     30  C   UNL     1       0.903   5.854  -5.064  0.00  0.00    +0.137 C 
BRANCH  30  31
ATOM     31  C   UNL     1       0.416   5.296  -6.377  0.00  0.00    -0.023 A 
ATOM     32  C   UNL     1      -0.199   6.125  -7.295  0.00  0.00    +0.006 A 
ATOM     33  C   UNL     1      -0.642   5.614  -8.501  0.00  0.00    +0.000 A 
ATOM     34  C   UNL     1      -0.477   4.271  -8.784  0.00  0.00    +0.000 A 
ATOM     35  C   UNL     1       0.135   3.441  -7.864  0.00  0.00    +0.000 A 
ATOM     36  C   UNL     1       0.581   3.953  -6.660  0.00  0.00    +0.006 A 
ENDBRANCH  30  31
ENDBRANCH  19  20
ENDBRANCH   1  19
TORSDOF 8
