REMARK  Name = ZINC11208214
REMARK  11 active torsions:
REMARK  status: ('A' for Active; 'I' for Inactive)
REMARK    1  A    between atoms: C_1  and  C_2
REMARK    2  A    between atoms: C_4  and  C_29
REMARK    3  A    between atoms: C_5  and  C_27
REMARK    4  A    between atoms: C_6  and  S_8
REMARK    5  A    between atoms: S_8  and  C_9
REMARK    6  A    between atoms: C_9  and  C_10
REMARK    7  A    between atoms: N_12  and  C_13
REMARK    8  A    between atoms: C_14  and  C_25
REMARK    9  A    between atoms: C_15  and  C_24
REMARK   10  A    between atoms: C_16  and  C_23
REMARK   11  A    between atoms: N_17  and  C_18
REMARK                            x       y       z     vdW  Elec       q    Type
REMARK                         _______ _______ _______ _____ _____    ______ ____
ROOT
ATOM      1  C   UNL     1      -4.581   6.725  -0.414  0.00  0.00    +0.228 C 
ATOM      2  O   UNL     1      -5.601   7.112  -0.943  0.00  0.00    -0.275 OA
ATOM      3  N   UNL     1      -3.745   7.609   0.166  0.00  0.00    -0.270 N 
ATOM      4  H   UNL     1      -2.890   7.311   0.513  0.00  0.00    +0.156 HD
ENDROOT
BRANCH   3   5
ATOM      5  C   UNL     1      -4.109   8.943   0.268  0.00  0.00    +0.124 A 
ATOM      6  C   UNL     1      -5.404   9.431   0.378  0.00  0.00    +0.095 A 
ATOM      7  C   UNL     1      -5.279  10.892   0.459  0.00  0.00    -0.011 A 
ATOM      8  C   UNL     1      -3.968  11.172   0.386  0.00  0.00    +0.022 A 
ATOM      9  N   UNL     1      -3.261  10.005   0.272  0.00  0.00    -0.329 N 
ATOM     10  C   UNL     1      -3.368  12.554   0.425  0.00  0.00    +0.064 C 
ATOM     11  C   UNL     1      -6.405  11.884   0.592  0.00  0.00    +0.047 C 
BRANCH   9  12
ATOM     12  C   UNL     1      -1.803   9.914   0.168  0.00  0.00    +0.089 C 
ATOM     13  C   UNL     1      -1.412   9.062  -1.057  0.00  0.00    +0.025 C 
ATOM     14  C   UNL     1      -0.168   8.268  -0.586  0.00  0.00    +0.002 C 
ATOM     15  C   UNL     1      -0.512   7.934   0.887  0.00  0.00    +0.002 C 
ATOM     16  C   UNL     1      -1.230   9.197   1.404  0.00  0.00    +0.025 C 
ENDBRANCH   9  12
BRANCH   6  17
ATOM     17  C   UNL     1      -6.613   8.666   0.409  0.00  0.00    +0.103 C 
ATOM     18  N   UNL     1      -7.573   8.059   0.433  0.00  0.00    -0.191 NA
ENDBRANCH   6  17
ENDBRANCH   3   5
BRANCH   1  19
ATOM     19  C   UNL     1      -4.248   5.255  -0.406  0.00  0.00    +0.172 C 
BRANCH  19  20
ATOM     20  S   UNL     1      -5.622   4.321  -1.125  0.00  0.00    -0.095 S 
BRANCH  20  26
ATOM     21  C   UNL     1      -1.902   1.115   0.270  0.00  0.00    +0.065 C 
ATOM     22  C   UNL     1      -3.268   1.279  -0.344  0.00  0.00    +0.040 A 
ATOM     23  C   UNL     1      -3.958   0.159  -0.774  0.00  0.00    +0.036 A 
ATOM     24  C   UNL     1      -5.215   0.306  -1.333  0.00  0.00    +0.076 A 
ATOM     25  C   UNL     1      -5.745   1.596  -1.449  0.00  0.00    +0.095 A 
ATOM     26  C   UNL     1      -4.981   2.685  -0.993  0.00  0.00    +0.116 A 
ATOM     27  N   UNL     1      -3.782   2.487  -0.465  0.00  0.00    -0.244 NA
BRANCH  24  28
ATOM     28  C   UNL     1      -5.994  -0.894  -1.806  0.00  0.00    +0.419 C 
ATOM     29  F   UNL     1      -5.247  -2.055  -1.579  0.00  0.00    -0.166 F 
ATOM     30  F   UNL     1      -7.202  -0.972  -1.104  0.00  0.00    -0.166 F 
ATOM     31  F   UNL     1      -6.257  -0.770  -3.175  0.00  0.00    -0.166 F 
ENDBRANCH  24  28
BRANCH  25  32
ATOM     32  C   UNL     1      -7.042   1.803  -2.020  0.00  0.00    +0.102 C 
ATOM     33  N   UNL     1      -8.071   1.967  -2.473  0.00  0.00    -0.191 NA
ENDBRANCH  25  32
ENDBRANCH  20  26
ENDBRANCH  19  20
ENDBRANCH   1  19
TORSDOF 8
