REMARK  Name = ZINC36640631
REMARK  7 active torsions:
REMARK  status: ('A' for Active; 'I' for Inactive)
REMARK    1  A    between atoms: C_1  and  C_2
REMARK    2  A    between atoms: N_11  and  C_12
REMARK    3  A    between atoms: C_12  and  C_13
REMARK    4  A    between atoms: C_13  and  N_14
REMARK    5  A    between atoms: N_14  and  C_15
REMARK    6  A    between atoms: N_14  and  C_16
REMARK    7  A    between atoms: C_17  and  C_19
REMARK                            x       y       z     vdW  Elec       q    Type
REMARK                         _______ _______ _______ _____ _____    ______ ____
ROOT
ATOM      1  C   UNL     1      -5.564  -2.703   4.414  0.00  0.00    +0.047 C 
ATOM      2  C   UNL     1      -4.768  -2.596   3.139  0.00  0.00    -0.006 A 
ATOM      3  C   UNL     1      -5.327  -3.002   1.954  0.00  0.00    +0.046 A 
ATOM      4  C   UNL     1      -4.629  -2.920   0.757  0.00  0.00    +0.021 A 
ATOM      5  C   UNL     1      -3.341  -2.416   0.758  0.00  0.00    +0.019 A 
ATOM      6  C   UNL     1      -2.774  -2.007   1.939  0.00  0.00    +0.041 A 
ATOM      7  C   UNL     1      -3.456  -2.071   3.175  0.00  0.00    +0.085 A 
ATOM      8  N   UNL     1      -2.766  -1.625   4.247  0.00  0.00    -0.224 NA
ATOM      9  C   UNL     1      -1.543  -1.157   4.155  0.00  0.00    +0.168 A 
ATOM     10  S   UNL     1      -1.204  -1.319   2.407  0.00  0.00    -0.052 S 
ATOM     11  N   UNL     1      -0.720  -0.670   5.157  0.00  0.00    -0.252 N 
ATOM     12  C   UNL     1      -0.050  -1.526   5.954  0.00  0.00    +0.227 C 
ATOM     13  O   UNL     1       0.553  -1.109   6.920  0.00  0.00    -0.275 OA
ATOM     14 CL   UNL     1      -6.944  -3.635   1.952  0.00  0.00    -0.083 Cl
ENDROOT
BRANCH  12  15
ATOM     15  C   UNL     1      -0.051  -3.001   5.645  0.00  0.00    +0.048 C 
ATOM     16  C   UNL     1       1.300  -3.396   5.045  0.00  0.00    +0.019 C 
ATOM     17  C   UNL     1       1.300  -4.894   4.731  0.00  0.00    -0.009 C 
ATOM     18  C   UNL     1       1.063  -5.685   6.019  0.00  0.00    +0.007 C 
ATOM     19  C   UNL     1      -0.288  -5.290   6.619  0.00  0.00    -0.009 C 
ATOM     20  C   UNL     1      -0.288  -3.792   6.933  0.00  0.00    +0.019 C 
ATOM     21  C   UNL     1      -1.402  -5.600   5.617  0.00  0.00    +0.007 C 
ATOM     22  C   UNL     1      -1.165  -4.809   4.329  0.00  0.00    -0.009 C 
ATOM     23  C   UNL     1       0.186  -5.205   3.729  0.00  0.00    +0.007 C 
ATOM     24  C   UNL     1      -1.164  -3.312   4.643  0.00  0.00    +0.019 C 
ENDBRANCH  12  15
BRANCH  11  25
ATOM     25  C   UNL     1      -0.579   0.775   5.352  0.00  0.00    +0.097 C 
BRANCH  25  26
ATOM     26  C   UNL     1      -1.571   1.246   6.417  0.00  0.00    -0.060 C 
BRANCH  26  27
ATOM     27  N   UNL     1      -1.331   2.664   6.717  0.00  0.00    +0.377 N 
ATOM     28  C   UNL     1      -1.625   3.473   5.527  0.00  0.00    -0.097 C 
ATOM     29  C   UNL     1      -2.203   3.084   7.822  0.00  0.00    -0.097 C 
ATOM     30  H   UNL     1      -0.366   2.793   6.982  0.00  0.00    -0.083 HD
ENDBRANCH  26  27
ENDBRANCH  25  26
ENDBRANCH  11  25
TORSDOF 4
