REMARK  Name = ZINC20285899
REMARK  9 active torsions:
REMARK  status: ('A' for Active; 'I' for Inactive)
REMARK    1  A    between atoms: C_1  and  C_2
REMARK    2  A    between atoms: N_11  and  C_12
REMARK    3  A    between atoms: C_13  and  C_14
REMARK    4  A    between atoms: C_13  and  N_15
REMARK    5  A    between atoms: N_15  and  C_16
REMARK    6  A    between atoms: C_18  and  C_24
REMARK    7  A    between atoms: C_18  and  C_25
REMARK    8  A    between atoms: C_20  and  C_22
REMARK    9  A    between atoms: C_20  and  C_23
REMARK                            x       y       z     vdW  Elec       q    Type
REMARK                         _______ _______ _______ _____ _____    ______ ____
ROOT
ATOM      1  C   UNL     1       5.604  -6.640  -0.082  0.00  0.00    +0.131 C 
ATOM      2  C   UNL     1       6.546  -7.498  -0.498  0.00  0.00    +0.019 C 
ATOM      3  C   UNL     1       6.715  -7.777  -1.969  0.00  0.00    +0.062 C 
ENDROOT
BRANCH   1  14
ATOM      4  C   UNL     1      -0.161   1.319  -0.280  0.00  0.00    +0.007 C 
ATOM      5  C   UNL     1      -0.147  -0.210  -0.213  0.00  0.00    -0.011 C 
ATOM      6  C   UNL     1       0.500  -0.770  -1.482  0.00  0.00    +0.022 C 
ATOM      7  C   UNL     1       0.480  -2.301  -1.427  0.00  0.00    +0.107 C 
ATOM      8  N   UNL     1       1.121  -2.738  -0.180  0.00  0.00    -0.309 N 
ATOM      9  C   UNL     1       0.635  -2.189   1.094  0.00  0.00    +0.107 C 
ATOM     10  C   UNL     1       0.653  -0.660   1.011  0.00  0.00    +0.022 C 
ATOM     11  C   UNL     1       2.151  -3.638  -0.203  0.00  0.00    +0.167 C 
ATOM     12  N   UNL     1       2.880  -4.355  -1.099  0.00  0.00    -0.200 NA
ATOM     13  C   UNL     1       3.881  -5.181  -0.582  0.00  0.00    +0.198 C 
ATOM     14  N   UNL     1       4.802  -6.020  -0.988  0.00  0.00    -0.228 NA
ATOM     15  S   UNL     1       3.241  -4.479   0.920  0.00  0.00    -0.015 S 
ENDBRANCH   1  14
BRANCH   2  16
ATOM     16  N   UNL     1       7.366  -8.130   0.428  0.00  0.00    -0.343 N 
ATOM     17  H   UNL     1       7.256  -7.951   1.375  0.00  0.00    +0.146 HD
BRANCH  16  18
ATOM     18  C   UNL     1       8.398  -9.071  -0.027  0.00  0.00    +0.068 C 
ATOM     19  C   UNL     1       7.782 -10.465  -0.164  0.00  0.00    +0.009 C 
ATOM     20  C   UNL     1       8.847 -11.458  -0.626  0.00  0.00    -0.072 C 
ATOM     21  N   UNL     1      10.018 -11.448   0.239  0.00  0.00    +0.386 N 
ATOM     22  C   UNL     1      10.573 -10.156   0.608  0.00  0.00    -0.072 C 
ATOM     23  C   UNL     1       9.512  -9.139   1.016  0.00  0.00    +0.009 C 
ATOM     24  C   UNL     1      11.450  -9.577  -0.505  0.00  0.00    -0.010 C 
ATOM     25  C   UNL     1      11.491 -10.378   1.835  0.00  0.00    -0.010 C 
ATOM     26  C   UNL     1       9.210 -11.204  -2.088  0.00  0.00    -0.010 C 
ATOM     27  C   UNL     1       8.222 -12.870  -0.548  0.00  0.00    -0.010 C 
ATOM     28  H   UNL     1       9.788 -11.956   1.097  0.00  0.00    -0.084 HD
ATOM     29  H   UNL     1      10.754 -11.999  -0.210  0.00  0.00    -0.084 HD
ENDBRANCH  16  18
ENDBRANCH   2  16
TORSDOF 3
