REMARK  Name = ZINC15956600
REMARK  13 active torsions:
REMARK  status: ('A' for Active; 'I' for Inactive)
REMARK    1  A    between atoms: C_1  and  C_2
REMARK    2  A    between atoms: C_2  and  C_4
REMARK    3  A    between atoms: C_2  and  N_19
REMARK    4  A    between atoms: N_6  and  C_7
REMARK    5  A    between atoms: C_7  and  C_8
REMARK    6  A    between atoms: C_8  and  C_9
REMARK    7  A    between atoms: C_12  and  O_17
REMARK    8  A    between atoms: C_13  and  O_15
REMARK    9  A    between atoms: O_15  and  C_16
REMARK   10  A    between atoms: O_17  and  C_18
REMARK   11  A    between atoms: C_22  and  C_40
REMARK   12  A    between atoms: C_27  and  O_33
REMARK   13  A    between atoms: O_33  and  C_34
REMARK                            x       y       z     vdW  Elec       q    Type
REMARK                         _______ _______ _______ _____ _____    ______ ____
ROOT
ATOM      1  N   UNL     1       2.494   4.164   0.001  0.00  0.00    -0.212 N 
ATOM      2  C   UNL     1       3.022   4.946   0.968  0.00  0.00    +0.253 C 
ATOM      3  O   UNL     1       2.492   5.295   2.001  0.00  0.00    -0.272 OA
ATOM      4  C   UNL     1       4.413   5.294   0.492  0.00  0.00    +0.153 C 
ATOM      5  C   UNL     1       5.463   4.875   1.493  0.00  0.00    +0.053 A 
ATOM      6  C   UNL     1       6.498   4.065   1.177  0.00  0.00    -0.015 A 
ATOM      7  C   UNL     1       7.288   3.911   2.386  0.00  0.00    +0.007 A 
ATOM      8  C   UNL     1       8.462   3.203   2.661  0.00  0.00    +0.056 A 
ATOM      9  C   UNL     1       8.946   3.278   3.958  0.00  0.00    +0.121 A 
ATOM     10  C   UNL     1       8.300   4.019   4.940  0.00  0.00    +0.047 A 
ATOM     11  C   UNL     1       7.138   4.726   4.685  0.00  0.00    +0.030 A 
ATOM     12  C   UNL     1       6.631   4.668   3.388  0.00  0.00    +0.047 A 
ATOM     13  N   UNL     1       5.529   5.235   2.811  0.00  0.00    -0.356 N 
ATOM     14  H   UNL     1       4.891   5.806   3.267  0.00  0.00    +0.166 HD
ATOM     15  C   UNL     1       6.760   3.431  -0.166  0.00  0.00    +0.056 C 
ATOM     16  C   UNL     1       5.909   4.109  -1.250  0.00  0.00    +0.115 C 
ATOM     17  N   UNL     1       4.589   4.403  -0.680  0.00  0.00    -0.266 N 
ATOM     18  C   UNL     1       3.387   3.905  -0.968  0.00  0.00    +0.313 C 
ATOM     19  O   UNL     1       3.130   3.293  -1.986  0.00  0.00    -0.252 OA
ATOM     20  C   UNL     1       4.537   6.772   0.118  0.00  0.00    +0.048 C 
ENDROOT
BRANCH   1  22
ATOM     21  C   UNL     1       0.380   4.164  -1.228  0.00  0.00    +0.038 C 
ATOM     22  C   UNL     1       1.120   3.657   0.011  0.00  0.00    +0.168 C 
BRANCH  22  23
ATOM     23  C   UNL     1       1.140   2.151   0.003  0.00  0.00    +0.234 C 
ATOM     24  O   UNL     1       2.199   1.558  -0.011  0.00  0.00    -0.274 OA
ATOM     25  N   UNL     1      -0.018   1.461   0.010  0.00  0.00    -0.313 N 
ATOM     26  H   UNL     1      -0.864   1.934   0.017  0.00  0.00    +0.149 HD
BRANCH  25  27
ATOM     27  C   UNL     1       0.002  -0.004   0.002  0.00  0.00    +0.109 C 
BRANCH  27  28
ATOM     28  C   UNL     1      -1.433  -0.534   0.013  0.00  0.00    +0.054 C 
BRANCH  28  29
ATOM     29  C   UNL     1      -1.413  -2.041   0.005  0.00  0.00    -0.042 A 
ATOM     30  C   UNL     1      -1.392  -2.737   1.199  0.00  0.00    +0.007 A 
ATOM     31  C   UNL     1      -1.373  -4.119   1.197  0.00  0.00    +0.049 A 
ATOM     32  C   UNL     1      -1.376  -4.810  -0.004  0.00  0.00    +0.161 A 
ATOM     33  C   UNL     1      -1.397  -4.109  -1.207  0.00  0.00    +0.162 A 
ATOM     34  C   UNL     1      -1.421  -2.724  -1.197  0.00  0.00    +0.053 A 
BRANCH  33  35
ATOM     35  O   UNL     1      -1.400  -4.783  -2.388  0.00  0.00    -0.491 OA
ATOM     36  C   UNL     1      -1.422  -3.998  -3.582  0.00  0.00    +0.277 C 
ENDBRANCH  33  35
BRANCH  32  37
ATOM     37  O   UNL     1      -1.358  -6.170  -0.009  0.00  0.00    -0.491 OA
ATOM     38  C   UNL     1      -1.337  -6.822   1.263  0.00  0.00    +0.277 C 
ENDBRANCH  32  37
ENDBRANCH  28  29
ENDBRANCH  27  28
ENDBRANCH  25  27
ENDBRANCH  22  23
ENDBRANCH   1  22
BRANCH   9  39
ATOM     39  O   UNL     1      10.085   2.608   4.279  0.00  0.00    -0.495 OA
ATOM     40  C   UNL     1      10.544   2.716   5.628  0.00  0.00    +0.277 C 
ENDBRANCH   9  39
TORSDOF 8
