REMARK  Name = ZINC09432882
REMARK  15 active torsions:
REMARK  status: ('A' for Active; 'I' for Inactive)
REMARK    1  A    between atoms: C_1  and  C_2
REMARK    2  A    between atoms: C_2  and  C_3
REMARK    3  A    between atoms: C_2  and  N_74
REMARK    4  A    between atoms: C_4  and  C_5
REMARK    5  A    between atoms: C_4  and  N_74
REMARK    6  A    between atoms: C_5  and  C_6
REMARK    7  A    between atoms: C_6  and  N_7
REMARK    8  A    between atoms: C_8  and  C_10
REMARK    9  A    between atoms: N_20  and  C_28
REMARK   10  A    between atoms: C_21  and  C_23
REMARK   11  A    between atoms: C_28  and  C_29
REMARK   12  A    between atoms: C_29  and  O_30
REMARK   13  A    between atoms: O_30  and  C_31
REMARK   14  A    between atoms: C_32  and  C_33
REMARK   15  A    between atoms: C_32  and  N_74
REMARK                            x       y       z     vdW  Elec       q    Type
REMARK                         _______ _______ _______ _____ _____    ______ ____
ROOT
ATOM      1  C   UNL     1      -2.167  -0.417  -1.457  0.00  0.00    +0.131 C 
ATOM      2  C   UNL     1      -2.326  -1.438  -0.362  0.00  0.00    -0.021 A 
ATOM      3  C   UNL     1      -1.668  -2.648  -0.428  0.00  0.00    +0.005 A 
ATOM      4  C   UNL     1      -1.814  -3.571   0.593  0.00  0.00    +0.000 A 
ATOM      5  C   UNL     1      -2.616  -3.288   1.684  0.00  0.00    +0.001 A 
ATOM      6  C   UNL     1      -3.284  -2.082   1.760  0.00  0.00    +0.013 A 
ATOM      7  C   UNL     1      -3.145  -1.153   0.732  0.00  0.00    +0.041 A 
ATOM      8  C   UNL     1      -3.859   0.141   0.776  0.00  0.00    +0.247 C 
ATOM      9  O   UNL     1      -4.380   0.521   1.806  0.00  0.00    -0.270 OA
ATOM     10  N   UNL     1      -3.926   0.895  -0.339  0.00  0.00    -0.287 N 
ATOM     11  C   UNL     1      -3.459   0.380  -1.624  0.00  0.00    +0.129 C 
ENDROOT
BRANCH  11  12
ATOM     12  C   UNL     1      -4.519  -0.515  -2.214  0.00  0.00    +0.011 A 
ATOM     13  C   UNL     1      -4.943  -0.604  -3.498  0.00  0.00    +0.013 A 
ATOM     14  C   UNL     1      -5.940  -1.508  -3.814  0.00  0.00    +0.008 A 
ATOM     15  C   UNL     1      -6.465  -2.278  -2.830  0.00  0.00    +0.045 A 
ATOM     16  S   UNL     1      -5.537  -1.738  -1.404  0.00  0.00    -0.100 S 
ENDBRANCH  11  12
BRANCH   1  18
ATOM     17  N   UNL     1       0.200   0.043  -0.907  0.00  0.00    -0.315 N 
ATOM     18  C   UNL     1      -1.044   0.523  -1.104  0.00  0.00    +0.223 C 
ATOM     19  O   UNL     1      -1.258   1.712  -0.998  0.00  0.00    -0.275 OA
ATOM     20  H   UNL     1       0.372  -0.908  -0.992  0.00  0.00    +0.149 HD
BRANCH  17  21
ATOM     21  C   UNL     1       1.294   0.957  -0.570  0.00  0.00    +0.102 C 
BRANCH  21  22
ATOM     22  C   UNL     1       2.591   0.162  -0.407  0.00  0.00    +0.000 C 
BRANCH  22  23
ATOM     23  C   UNL     1       3.733   1.117  -0.055  0.00  0.00    -0.076 C 
BRANCH  23  24
ATOM     24  N   UNL     1       5.002   0.358  -0.046  0.00  0.00    +0.384 N 
ATOM     25  H   UNL     1       5.047  -0.225  -0.890  0.00  0.00    -0.081 HD
BRANCH  24  27
ATOM     26  C   UNL     1       6.216   1.990  -1.403  0.00  0.00    -0.014 C 
ATOM     27  C   UNL     1       6.149   1.290  -0.044  0.00  0.00    -0.074 C 
ATOM     28  C   UNL     1       5.988   2.337   1.060  0.00  0.00    -0.014 C 
ENDBRANCH  24  27
BRANCH  24  29
ATOM     29  C   UNL     1       5.059  -0.515   1.145  0.00  0.00    -0.043 C 
BRANCH  29  30
ATOM     30  C   UNL     1       6.248  -1.433   1.018  0.00  0.00    -0.064 A 
ATOM     31  C   UNL     1       6.112  -2.657   0.389  0.00  0.00    +0.002 A 
ATOM     32  C   UNL     1       7.203  -3.497   0.269  0.00  0.00    +0.000 A 
ATOM     33  C   UNL     1       8.428  -3.117   0.785  0.00  0.00    +0.000 A 
ATOM     34  C   UNL     1       8.563  -1.896   1.418  0.00  0.00    +0.000 A 
ATOM     35  C   UNL     1       7.472  -1.054   1.535  0.00  0.00    +0.002 A 
ENDBRANCH  29  30
ENDBRANCH  24  29
ENDBRANCH  23  24
ENDBRANCH  22  23
ENDBRANCH  21  22
ENDBRANCH  17  21
ENDBRANCH   1  18
BRANCH  10  36
ATOM     36  C   UNL     1      -4.476   2.251  -0.261  0.00  0.00    +0.137 C 
BRANCH  36  37
ATOM     37  C   UNL     1      -5.985   2.204  -0.506  0.00  0.00    +0.178 C 
BRANCH  37  38
ATOM     38  O   UNL     1      -6.617   1.479   0.551  0.00  0.00    -0.381 OA
ATOM     39  C   UNL     1      -8.036   1.376   0.419  0.00  0.00    +0.194 C 
ENDBRANCH  37  38
ENDBRANCH  36  37
ENDBRANCH  10  36
TORSDOF 12
