REMARK  Name = ZINC33939715
REMARK  5 active torsions:
REMARK  status: ('A' for Active; 'I' for Inactive)
REMARK    1  A    between atoms: C_1  and  N_2
REMARK    2  A    between atoms: C_6  and  C_7
REMARK    3  A    between atoms: N_13  and  C_16
REMARK    4  A    between atoms: N_24  and  C_25
REMARK    5  A    between atoms: C_28  and  C_31
REMARK                            x       y       z     vdW  Elec       q    Type
REMARK                         _______ _______ _______ _____ _____    ______ ____
ROOT
ATOM      1  C   UNL     1      -0.877   0.832   1.520  0.00  0.00    +0.140 C 
ATOM      2  N   UNL     1      -0.663  -0.581   1.197  0.00  0.00    -0.249 N 
ATOM      3  C   UNL     1      -0.665  -0.976  -0.064  0.00  0.00    +0.259 C 
ATOM      4  O   UNL     1      -0.845  -0.179  -0.968  0.00  0.00    -0.269 OA
ATOM      5  C   UNL     1      -0.454  -2.356  -0.341  0.00  0.00    +0.078 C 
ATOM      6  C   UNL     1      -0.412  -2.999  -1.543  0.00  0.00    +0.039 C 
ATOM      7  S   UNL     1      -0.256  -3.022   1.305  0.00  0.00    -0.049 S 
ATOM      8  C   UNL     1      -0.454  -1.493   2.208  0.00  0.00    +0.168 C 
ATOM      9  N   UNL     1      -0.412  -1.290   3.510  0.00  0.00    -0.226 NA
ENDROOT
BRANCH   6  10
ATOM     10  C   UNL     1      -0.057  -4.370  -1.601  0.00  0.00    +0.105 A 
ATOM     11  C   UNL     1       1.127  -4.835  -1.016  0.00  0.00    +0.263 A 
ATOM     12  O   UNL     1       1.956  -3.983  -0.382  0.00  0.00    -0.267 OA
ATOM     13  N   UNL     1       1.428  -6.163  -1.096  0.00  0.00    -0.302 N 
ATOM     14  C   UNL     1       0.614  -7.027  -1.723  0.00  0.00    +0.168 A 
ATOM     15  S   UNL     1       1.055  -8.680  -1.786  0.00  0.00    -0.012 S 
ATOM     16  N   UNL     1      -0.534  -6.641  -2.304  0.00  0.00    -0.256 N 
ATOM     17  C   UNL     1      -0.922  -5.349  -2.272  0.00  0.00    +0.270 A 
ATOM     18  O   UNL     1      -1.966  -5.001  -2.794  0.00  0.00    -0.266 OA
ATOM     19  H   UNL     1       2.247  -6.490  -0.692  0.00  0.00    +0.171 HD
BRANCH  16  20
ATOM     20  C   UNL     1      -1.340  -7.591  -2.944  0.00  0.00    +0.052 A 
ATOM     21  C   UNL     1      -1.242  -7.775  -4.316  0.00  0.00    +0.026 A 
ATOM     22  C   UNL     1      -2.038  -8.713  -4.944  0.00  0.00    +0.002 A 
ATOM     23  C   UNL     1      -2.932  -9.468  -4.207  0.00  0.00    +0.000 A 
ATOM     24  C   UNL     1      -3.032  -9.287  -2.840  0.00  0.00    +0.002 A 
ATOM     25  C   UNL     1      -2.235  -8.354  -2.206  0.00  0.00    +0.026 A 
ENDBRANCH  16  20
ENDBRANCH   6  10
BRANCH   9  26
ATOM     26  C   UNL     1      -0.190  -2.333   4.355  0.00  0.00    +0.067 A 
ATOM     27  C   UNL     1      -0.868  -3.545   4.165  0.00  0.00    +0.028 A 
ATOM     28  C   UNL     1      -0.646  -4.590   5.011  0.00  0.00    +0.017 A 
ATOM     29  C   UNL     1       0.260  -4.453   6.071  0.00  0.00    +0.063 A 
ATOM     30  C   UNL     1       0.938  -3.241   6.261  0.00  0.00    +0.017 A 
ATOM     31  C   UNL     1       0.720  -2.198   5.412  0.00  0.00    +0.028 A 
BRANCH  29  32
ATOM     32  C   UNL     1       0.499  -5.580   6.984  0.00  0.00    +0.387 C 
ATOM     33  O   UNL     1      -0.094  -6.638   6.818  0.00  0.00    -0.241 OA
ATOM     34  O   UNL     1       1.290  -5.460   7.910  0.00  0.00    -0.241 OA
ENDBRANCH  29  32
ENDBRANCH   9  26
TORSDOF 4
