REMARK  Name = ZINC39678364
REMARK  6 active torsions:
REMARK  status: ('A' for Active; 'I' for Inactive)
REMARK    1  A    between atoms: C_4  and  C_7
REMARK    2  A    between atoms: C_10  and  C_12
REMARK    3  A    between atoms: C_16  and  C_25
REMARK    4  A    between atoms: N_27  and  C_28
REMARK    5  A    between atoms: C_28  and  C_29
REMARK    6  A    between atoms: C_34  and  N_35
REMARK                            x       y       z     vdW  Elec       q    Type
REMARK                         _______ _______ _______ _____ _____    ______ ____
ROOT
ATOM      1  C   UNL     1       8.165  -0.858  -0.126  0.00  0.00    +0.282 C 
ATOM      2  O   UNL     1       8.995  -1.701   0.161  0.00  0.00    -0.267 OA
ATOM      3  N   UNL     1       8.447   0.449   0.037  0.00  0.00    -0.294 N 
ATOM      4  C   UNL     1       7.571   1.610  -0.247  0.00  0.00    +0.121 C 
ATOM      5  C   UNL     1       7.840   2.596   0.912  0.00  0.00    +0.100 C 
ATOM      6  C   UNL     1       9.242   2.225   1.424  0.00  0.00    -0.004 C 
ATOM      7  C   UNL     1       9.702   1.051   0.548  0.00  0.00    +0.115 C 
ATOM      8  C   UNL     1       9.173   1.790   2.885  0.00  0.00    -0.010 C 
ATOM      9  C   UNL     1      10.586   1.482   3.388  0.00  0.00    -0.082 C 
ATOM     10  N   UNL     1      11.428   2.677   3.251  0.00  0.00    +0.379 N 
ATOM     11  C   UNL     1      11.565   3.034   1.834  0.00  0.00    -0.082 C 
ATOM     12  C   UNL     1      10.193   3.408   1.265  0.00  0.00    -0.010 C 
ATOM     13  H   UNL     1      11.004   3.445   3.751  0.00  0.00    -0.086 HD
ATOM     14  H   UNL     1      12.340   2.490   3.639  0.00  0.00    -0.086 HD
ENDROOT
BRANCH   1  18
ATOM     15  C   UNL     1       4.809  -1.165  -1.436  0.00  0.00    +0.136 A 
ATOM     16  C   UNL     1       5.137  -2.488  -1.364  0.00  0.00    +0.050 A 
ATOM     17  C   UNL     1       6.441  -2.562  -0.863  0.00  0.00    +0.055 A 
ATOM     18  C   UNL     1       6.858  -1.266  -0.648  0.00  0.00    +0.190 A 
ATOM     19  O   UNL     1       5.855  -0.438  -1.008  0.00  0.00    -0.450 OA
BRANCH  15  23
ATOM     20  C   UNL     1       1.104   0.396  -2.804  0.00  0.00    +0.000 A 
ATOM     21  C   UNL     1       2.103   1.258  -2.388  0.00  0.00    +0.001 A 
ATOM     22  C   UNL     1       3.309   0.758  -1.942  0.00  0.00    +0.011 A 
ATOM     23  C   UNL     1       3.520  -0.622  -1.911  0.00  0.00    +0.017 A 
ATOM     24  C   UNL     1       2.508  -1.486  -2.332  0.00  0.00    +0.011 A 
ATOM     25  C   UNL     1       1.307  -0.973  -2.776  0.00  0.00    +0.001 A 
ENDBRANCH  15  23
ENDBRANCH   1  18
BRANCH   5  26
ATOM     26  C   UNL     1       7.821   4.016   0.408  0.00  0.00    +0.218 C 
ATOM     27  O   UNL     1       8.354   4.292  -0.646  0.00  0.00    -0.275 OA
ATOM     28  N   UNL     1       7.213   4.979   1.129  0.00  0.00    -0.311 N 
ATOM     29  H   UNL     1       6.787   4.758   1.972  0.00  0.00    +0.149 HD
BRANCH  28  30
ATOM     30  C   UNL     1       7.194   6.359   0.638  0.00  0.00    +0.141 C 
BRANCH  30  31
ATOM     31  C   UNL     1       6.458   7.232   1.622  0.00  0.00    -0.009 A 
ATOM     32  C   UNL     1       5.141   7.578   1.388  0.00  0.00    +0.007 A 
ATOM     33  C   UNL     1       4.465   8.379   2.289  0.00  0.00    +0.000 A 
ATOM     34  C   UNL     1       5.103   8.835   3.428  0.00  0.00    +0.002 A 
ATOM     35  C   UNL     1       6.419   8.492   3.669  0.00  0.00    +0.023 A 
ATOM     36  C   UNL     1       7.100   7.684   2.768  0.00  0.00    +0.034 A 
BRANCH  36  37
ATOM     37  N   UNL     1       8.429   7.331   3.010  0.00  0.00    -0.330 N 
ATOM     38  C   UNL     1       9.529   8.175   2.522  0.00  0.00    +0.105 C 
ATOM     39  C   UNL     1      10.447   8.518   3.699  0.00  0.00    +0.019 C 
ATOM     40  C   UNL     1      10.902   7.225   4.380  0.00  0.00    +0.003 C 
ATOM     41  C   UNL     1       9.682   6.475   4.921  0.00  0.00    +0.019 C 
ATOM     42  C   UNL     1       8.755   6.112   3.763  0.00  0.00    +0.105 C 
ENDBRANCH  36  37
ENDBRANCH  30  31
ENDBRANCH  28  30
ENDBRANCH   5  26
TORSDOF 6
