REMARK  Name = ZINC16918898
REMARK  11 active torsions:
REMARK  status: ('A' for Active; 'I' for Inactive)
REMARK    1  A    between atoms: C_1  and  C_2
REMARK    2  A    between atoms: C_2  and  C_3
REMARK    3  A    between atoms: C_3  and  C_5
REMARK    4  A    between atoms: C_3  and  O_7
REMARK    5  A    between atoms: O_7  and  C_8
REMARK    6  A    between atoms: C_11  and  C_17
REMARK    7  A    between atoms: C_13  and  O_14
REMARK    8  A    between atoms: O_14  and  C_15
REMARK    9  A    between atoms: C_15  and  C_16
REMARK   10  A    between atoms: N_21  and  C_25
REMARK   11  A    between atoms: C_30  and  C_31
REMARK                            x       y       z     vdW  Elec       q    Type
REMARK                         _______ _______ _______ _____ _____    ______ ____
ROOT
ATOM      1  C   UNL     1      -1.022  -0.875   0.089  0.00  0.00    +0.028 C 
ATOM      2  C   UNL     1      -0.165  -0.397  -0.848  0.00  0.00    +0.080 C 
ATOM      3  C   UNL     1      -0.414   0.538  -1.962  0.00  0.00    +0.265 C 
ATOM      4  O   UNL     1      -1.518   1.009  -2.167  0.00  0.00    -0.269 OA
ATOM      5  N   UNL     1       0.621   0.835  -2.731  0.00  0.00    -0.196 N 
ATOM      6  C   UNL     1       1.841   0.307  -2.503  0.00  0.00    +0.290 C 
ATOM      7  O   UNL     1       2.870   0.491  -3.124  0.00  0.00    -0.262 OA
ATOM      8  S   UNL     1       1.578  -0.726  -1.071  0.00  0.00    -0.025 S 
ENDROOT
BRANCH   1  12
ATOM      9  C   UNL     1      -4.958   0.688   0.352  0.00  0.00    +0.163 A 
ATOM     10  C   UNL     1      -3.897   1.530   0.045  0.00  0.00    +0.050 A 
ATOM     11  C   UNL     1      -2.617   1.028  -0.037  0.00  0.00    +0.012 A 
ATOM     12  C   UNL     1      -2.385  -0.336   0.180  0.00  0.00    -0.020 A 
ATOM     13  C   UNL     1      -3.456  -1.183   0.490  0.00  0.00    +0.057 A 
ATOM     14  C   UNL     1      -4.736  -0.670   0.574  0.00  0.00    +0.162 A 
BRANCH   9  15
ATOM     15  O   UNL     1      -6.218   1.191   0.437  0.00  0.00    -0.474 OA
BRANCH  15  16
ATOM     16  C   UNL     1      -6.360   2.608   0.323  0.00  0.00    +0.285 C 
BRANCH  16  17
ATOM     17  C   UNL     1      -6.457   2.987  -1.132  0.00  0.00    +0.396 C 
ATOM     18  O   UNL     1      -6.500   2.127  -1.980  0.00  0.00    -0.242 OA
ATOM     19  O   UNL     1      -6.495   4.281  -1.488  0.00  0.00    -0.242 OA
ENDBRANCH  16  17
BRANCH  16  21
ATOM     20  C   UNL     1      -7.480   2.781   2.550  0.00  0.00    +0.008 C 
ATOM     21  C   UNL     1      -7.630   3.054   1.052  0.00  0.00    +0.053 C 
ENDBRANCH  16  21
ENDBRANCH  15  16
ENDBRANCH   9  15
BRANCH  14  22
ATOM     22  O   UNL     1      -5.778  -1.490   0.875  0.00  0.00    -0.489 OA
BRANCH  22  23
ATOM     23  C   UNL     1      -5.477  -2.870   1.091  0.00  0.00    +0.226 C 
ATOM     24  C   UNL     1      -6.766  -3.628   1.414  0.00  0.00    +0.048 C 
ENDBRANCH  22  23
ENDBRANCH  14  22
ENDBRANCH   1  12
BRANCH   5  25
ATOM     25  C   UNL     1       0.445   1.718  -3.805  0.00  0.00    +0.057 A 
ATOM     26  C   UNL     1       0.619   3.083  -3.620  0.00  0.00    +0.024 A 
ATOM     27  C   UNL     1       0.451   3.949  -4.682  0.00  0.00    +0.002 A 
ATOM     28  C   UNL     1       0.098   3.459  -5.927  0.00  0.00    +0.001 A 
ATOM     29  C   UNL     1      -0.081   2.101  -6.113  0.00  0.00    +0.014 A 
ATOM     30  C   UNL     1       0.091   1.229  -5.056  0.00  0.00    +0.077 A 
BRANCH  30  31
ATOM     31  C   UNL     1      -0.104  -0.251  -5.259  0.00  0.00    +0.419 C 
ATOM     32  F   UNL     1      -0.454  -0.497  -6.591  0.00  0.00    -0.166 F 
ATOM     33  F   UNL     1       1.085  -0.924  -4.958  0.00  0.00    -0.166 F 
ATOM     34  F   UNL     1      -1.124  -0.708  -4.418  0.00  0.00    -0.166 F 
ENDBRANCH  30  31
ENDBRANCH   5  25
TORSDOF 9
