REMARK  Name = ZINC63818946
REMARK  9 active torsions:
REMARK  status: ('A' for Active; 'I' for Inactive)
REMARK    1  A    between atoms: C_1  and  C_2
REMARK    2  A    between atoms: C_4  and  C_9
REMARK    3  A    between atoms: C_5  and  C_8
REMARK    4  A    between atoms: C_9  and  C_10
REMARK    5  A    between atoms: C_10  and  C_11
REMARK    6  A    between atoms: N_13  and  C_14
REMARK    7  A    between atoms: C_14  and  C_15
REMARK    8  A    between atoms: C_15  and  C_17
REMARK    9  A    between atoms: C_15  and  C_24
REMARK                            x       y       z     vdW  Elec       q    Type
REMARK                         _______ _______ _______ _____ _____    ______ ____
ROOT
ATOM      1  C   UNL     1      -3.384  -2.661  -6.957  0.00  0.00    +0.066 C 
ENDROOT
BRANCH   1   2
ATOM      2  C   UNL     1      -3.679  -2.493  -8.425  0.00  0.00    -0.033 C 
ATOM      3  C   UNL     1      -3.504  -3.413  -9.401  0.00  0.00    -0.000 A 
ATOM      4  C   UNL     1      -3.004  -4.793  -9.387  0.00  0.00    +0.010 A 
ATOM      5  C   UNL     1      -2.943  -5.479 -10.551  0.00  0.00    +0.001 A 
ATOM      6  C   UNL     1      -3.342  -4.907 -11.767  0.00  0.00    +0.002 A 
ATOM      7  C   UNL     1      -3.812  -3.645 -11.859  0.00  0.00    +0.026 A 
ATOM      8  C   UNL     1      -3.920  -2.832 -10.697  0.00  0.00    +0.043 A 
ATOM      9  N   UNL     1      -4.337  -1.600 -10.529  0.00  0.00    -0.380 N 
ATOM     10  C   UNL     1      -4.237  -1.262  -9.105  0.00  0.00    +0.145 C 
ATOM     11  H   UNL     1      -4.660  -1.012 -11.229  0.00  0.00    +0.160 HD
ENDBRANCH   1   2
BRANCH   1  12
ATOM     12  C   UNL     1      -4.652  -2.471  -6.165  0.00  0.00    -0.020 A 
ATOM     13  C   UNL     1      -5.339  -1.274  -6.237  0.00  0.00    +0.006 A 
ATOM     14  C   UNL     1      -6.502  -1.100  -5.510  0.00  0.00    +0.000 A 
ATOM     15  C   UNL     1      -6.979  -2.123  -4.711  0.00  0.00    +0.001 A 
ATOM     16  C   UNL     1      -6.292  -3.320  -4.638  0.00  0.00    +0.020 A 
ATOM     17  C   UNL     1      -5.131  -3.497  -5.370  0.00  0.00    +0.045 A 
ATOM     18 CL   UNL     1      -4.272  -5.003  -5.284  0.00  0.00    -0.083 Cl
ENDBRANCH   1  12
BRANCH   1  19
ATOM     19  C   UNL     1      -2.350  -1.621  -6.521  0.00  0.00    +0.116 C 
BRANCH  19  22
ATOM     20  C   UNL     1      -1.071  -1.060  -4.525  0.00  0.00    +0.213 C 
ATOM     21  O   UNL     1      -0.569  -0.143  -5.139  0.00  0.00    -0.276 OA
ATOM     22  N   UNL     1      -1.975  -1.860  -5.126  0.00  0.00    -0.314 N 
ATOM     23  H   UNL     1      -2.376  -2.593  -4.634  0.00  0.00    +0.149 HD
BRANCH  20  24
ATOM     24  C   UNL     1      -0.685  -1.306  -3.089  0.00  0.00    +0.100 C 
BRANCH  24  25
ATOM     25  C   UNL     1       0.349  -0.266  -2.654  0.00  0.00    +0.044 C 
BRANCH  25  28
ATOM     26  C   UNL     1      -0.019   1.526   0.010  0.00  0.00    +0.045 C 
ATOM     27  C   UNL     1       0.002  -0.004   0.002  0.00  0.00    +0.173 C 
ATOM     28  C   UNL     1       0.735  -0.512  -1.218  0.00  0.00    -0.018 C 
ATOM     29  C   UNL     1       1.772  -1.208  -0.801  0.00  0.00    +0.038 C 
ATOM     30  N   UNL     1       1.832  -1.235   0.581  0.00  0.00    -0.270 N 
ATOM     31  O   UNL     1       0.748  -0.498   1.124  0.00  0.00    -0.267 OA
ATOM     32  C   UNL     1       2.763  -1.888  -1.710  0.00  0.00    +0.065 C 
ATOM     33  H   UNL     1       2.513  -1.690   1.100  0.00  0.00    +0.194 HD
ENDBRANCH  25  28
ENDBRANCH  24  25
ENDBRANCH  20  24
ENDBRANCH  19  22
ENDBRANCH   1  19
TORSDOF 7
