REMARK  Name = ZINC03569854
REMARK  4 active torsions:
REMARK  status: ('A' for Active; 'I' for Inactive)
REMARK    1  A    between atoms: C_6  and  C_7
REMARK    2  A    between atoms: C_7  and  C_8
REMARK    3  A    between atoms: N_10  and  C_11
REMARK    4  A    between atoms: C_15  and  N_17
REMARK                            x       y       z     vdW  Elec       q    Type
REMARK                         _______ _______ _______ _____ _____    ______ ____
ROOT
ATOM      1  C   UNL     1       1.050   1.777  -0.174  0.00  0.00    +0.222 C 
ATOM      2  O   UNL     1       0.879   2.953  -0.417  0.00  0.00    -0.275 OA
ATOM      3  N   UNL     1      -0.011   0.966   0.007  0.00  0.00    -0.285 N 
ATOM      4  H   UNL     1       0.122   0.012   0.124  0.00  0.00    +0.155 HD
ENDROOT
BRANCH   3   5
ATOM      5  C   UNL     1      -1.306   1.499   0.022  0.00  0.00    +0.036 A 
ATOM      6  C   UNL     1      -1.529   2.770   0.536  0.00  0.00    +0.026 A 
ATOM      7  C   UNL     1      -2.805   3.296   0.544  0.00  0.00    +0.042 A 
ATOM      8  C   UNL     1      -3.865   2.553   0.051  0.00  0.00    +0.154 A 
ATOM      9  C   UNL     1      -3.646   1.284  -0.457  0.00  0.00    +0.163 A 
ATOM     10  C   UNL     1      -2.369   0.756  -0.472  0.00  0.00    +0.059 A 
ATOM     11  F   UNL     1      -5.114   3.068   0.065  0.00  0.00    -0.203 F 
BRANCH   9  12
ATOM     12  N   UNL     1      -4.780   0.492  -0.984  0.00  0.00    +0.059 N 
ATOM     13  O   UNL     1      -4.587  -0.624  -1.431  0.00  0.00    -0.126 OA
ATOM     14  O   UNL     1      -5.905   0.957  -0.970  0.00  0.00    -0.126 OA
ENDBRANCH   9  12
ENDBRANCH   3   5
BRANCH   1  15
ATOM     15  C   UNL     1       2.448   1.223  -0.076  0.00  0.00    +0.131 C 
BRANCH  15  21
ATOM     16  C   UNL     1       3.891   2.586  -1.600  0.00  0.00    +0.005 A 
ATOM     17  C   UNL     1       4.801   3.602  -1.824  0.00  0.00    +0.022 A 
ATOM     18  C   UNL     1       5.274   4.353  -0.763  0.00  0.00    +0.059 A 
ATOM     19  C   UNL     1       4.830   4.091   0.522  0.00  0.00    +0.060 A 
ATOM     20  C   UNL     1       3.915   3.077   0.744  0.00  0.00    +0.025 A 
ATOM     21  C   UNL     1       3.444   2.327  -0.318  0.00  0.00    -0.037 A 
ATOM     22 CL   UNL     1       5.421   5.033   1.854  0.00  0.00    -0.082 Cl
ATOM     23 CL   UNL     1       6.421   5.625  -1.043  0.00  0.00    -0.082 Cl
ENDBRANCH  15  21
ENDBRANCH   1  15
TORSDOF 4
