REMARK  Name = ZINC39638480
REMARK  9 active torsions:
REMARK  status: ('A' for Active; 'I' for Inactive)
REMARK    1  A    between atoms: C_1  and  O_2
REMARK    2  A    between atoms: O_2  and  C_3
REMARK    3  A    between atoms: C_7  and  C_11
REMARK    4  A    between atoms: C_8  and  O_9
REMARK    5  A    between atoms: O_9  and  C_10
REMARK    6  A    between atoms: C_11  and  N_12
REMARK    7  A    between atoms: C_13  and  C_15
REMARK    8  A    between atoms: C_26  and  C_28
REMARK    9  A    between atoms: C_31  and  C_33
REMARK                            x       y       z     vdW  Elec       q    Type
REMARK                         _______ _______ _______ _____ _____    ______ ____
ROOT
ATOM      1  C   UNL     1      -3.603  -5.017   2.534  0.00  0.00    +0.100 C 
ATOM      2  C   UNL     1      -4.745  -4.157   3.120  0.00  0.00    +0.121 C 
ATOM      3  N   UNL     1      -5.945  -5.022   3.040  0.00  0.00    -0.294 N 
ATOM      4  C   UNL     1      -5.450  -6.373   3.397  0.00  0.00    +0.115 C 
ATOM      5  C   UNL     1      -4.068  -6.471   2.720  0.00  0.00    -0.004 C 
ATOM      6  C   UNL     1      -4.193  -7.163   1.366  0.00  0.00    -0.010 C 
ATOM      7  C   UNL     1      -4.601  -8.623   1.581  0.00  0.00    -0.082 C 
ATOM      8  N   UNL     1      -3.594  -9.299   2.408  0.00  0.00    +0.379 N 
ATOM      9  C   UNL     1      -3.546  -8.685   3.740  0.00  0.00    -0.082 C 
ATOM     10  C   UNL     1      -3.093  -7.227   3.617  0.00  0.00    -0.010 C 
ATOM     11  C   UNL     1      -7.203  -4.662   2.715  0.00  0.00    +0.282 C 
ATOM     12  O   UNL     1      -8.088  -5.497   2.693  0.00  0.00    -0.267 OA
ATOM     13  H   UNL     1      -3.833 -10.275   2.497  0.00  0.00    -0.086 HD
ATOM     14  H   UNL     1      -2.689  -9.216   1.968  0.00  0.00    -0.086 HD
ENDROOT
BRANCH  11  15
ATOM     15  C   UNL     1      -7.504  -3.267   2.389  0.00  0.00    +0.190 A 
ATOM     16  C   UNL     1      -8.741  -2.764   2.047  0.00  0.00    +0.055 A 
ATOM     17  C   UNL     1      -8.572  -1.395   1.820  0.00  0.00    +0.051 A 
ATOM     18  C   UNL     1      -7.252  -1.113   2.029  0.00  0.00    +0.139 A 
ATOM     19  O   UNL     1      -6.619  -2.247   2.376  0.00  0.00    -0.450 OA
BRANCH  18  20
ATOM     20  C   UNL     1      -6.625   0.217   1.900  0.00  0.00    +0.052 A 
ATOM     21  C   UNL     1      -6.841   0.987   0.755  0.00  0.00    +0.014 A 
ATOM     22  C   UNL     1      -6.252   2.228   0.641  0.00  0.00    +0.001 A 
ATOM     23  C   UNL     1      -5.448   2.714   1.657  0.00  0.00    +0.003 A 
ATOM     24  C   UNL     1      -5.228   1.959   2.795  0.00  0.00    +0.039 A 
ATOM     25  C   UNL     1      -5.816   0.715   2.926  0.00  0.00    +0.134 A 
ATOM     26  F   UNL     1      -5.606  -0.019   4.040  0.00  0.00    -0.205 F 
ENDBRANCH  18  20
ENDBRANCH  11  15
BRANCH   1  28
ATOM     27  N   UNL     1      -2.213  -4.906   0.491  0.00  0.00    -0.311 N 
ATOM     28  C   UNL     1      -3.414  -4.710   1.071  0.00  0.00    +0.218 C 
ATOM     29  O   UNL     1      -4.342  -4.286   0.415  0.00  0.00    -0.275 OA
ATOM     30  H   UNL     1      -1.491  -5.310   0.996  0.00  0.00    +0.149 HD
BRANCH  27  31
ATOM     31  C   UNL     1      -1.999  -4.508  -0.903  0.00  0.00    +0.143 C 
BRANCH  31  36
ATOM     32  C   UNL     1       1.254  -6.157  -1.916  0.00  0.00    +0.162 A 
ATOM     33  C   UNL     1       2.115  -5.072  -1.931  0.00  0.00    +0.049 A 
ATOM     34  C   UNL     1       1.644  -3.812  -1.615  0.00  0.00    +0.004 A 
ATOM     35  C   UNL     1       0.315  -3.630  -1.283  0.00  0.00    +0.009 A 
ATOM     36  C   UNL     1      -0.550  -4.709  -1.266  0.00  0.00    +0.015 A 
ATOM     37  C   UNL     1      -0.086  -5.974  -1.588  0.00  0.00    +0.166 A 
BRANCH  32  39
ATOM     38  C   UNL     1       3.102  -7.511  -2.555  0.00  0.00    +0.277 C 
ATOM     39  O   UNL     1       1.716  -7.398  -2.228  0.00  0.00    -0.491 OA
ENDBRANCH  32  39
BRANCH  37  40
ATOM     40  O   UNL     1      -0.936  -7.035  -1.577  0.00  0.00    -0.491 OA
ATOM     41  C   UNL     1      -0.976  -7.823  -0.386  0.00  0.00    +0.277 C 
ENDBRANCH  37  40
ENDBRANCH  31  36
ENDBRANCH  27  31
ENDBRANCH   1  28
TORSDOF 7
