REMARK  Name = ZINC08868134
REMARK  8 active torsions:
REMARK  status: ('A' for Active; 'I' for Inactive)
REMARK    1  A    between atoms: C_1  and  C_2
REMARK    2  A    between atoms: C_2  and  C_3
REMARK    3  A    between atoms: C_2  and  C_4
REMARK    4  A    between atoms: C_4  and  C_5
REMARK    5  A    between atoms: N_13  and  C_16
REMARK    6  A    between atoms: C_16  and  C_17
REMARK    7  A    between atoms: N_30  and  C_33
REMARK    8  A    between atoms: C_33  and  C_34
REMARK                            x       y       z     vdW  Elec       q    Type
REMARK                         _______ _______ _______ _____ _____    ______ ____
ROOT
ATOM      1  C   UNL     1      -2.933   1.690   1.052  0.00  0.00    -0.057 C 
ATOM      2  C   UNL     1      -1.643   2.323   0.498  0.00  0.00    +0.073 C 
ATOM      3  C   UNL     1      -1.353   3.347   1.674  0.00  0.00    +0.088 C 
ATOM      4  C   UNL     1       0.022   3.686   1.410  0.00  0.00    +0.225 C 
ATOM      5  O   UNL     1       0.562   4.761   1.560  0.00  0.00    -0.275 OA
ATOM      6  N   UNL     1       0.585   2.519   0.950  0.00  0.00    -0.237 N 
ATOM      7  C   UNL     1      -0.352   1.560   0.668  0.00  0.00    +0.224 C 
ATOM      8  O   UNL     1      -0.181   0.363   0.571  0.00  0.00    -0.275 OA
ATOM      9  C   UNL     1      -2.679   3.917   1.906  0.00  0.00    +0.050 C 
ATOM     10  C   UNL     1      -2.825   4.734   3.159  0.00  0.00    -0.027 A 
ATOM     11  C   UNL     1      -2.524   4.500   4.482  0.00  0.00    +0.004 A 
ATOM     12  C   UNL     1      -2.782   5.472   5.433  0.00  0.00    +0.000 A 
ATOM     13  C   UNL     1      -3.341   6.677   5.050  0.00  0.00    +0.002 A 
ATOM     14  C   UNL     1      -3.644   6.916   3.726  0.00  0.00    +0.024 A 
ATOM     15  C   UNL     1      -3.389   5.943   2.763  0.00  0.00    +0.039 A 
ATOM     16  N   UNL     1      -3.603   5.946   1.383  0.00  0.00    -0.268 N 
ATOM     17  C   UNL     1      -3.213   4.793   0.805  0.00  0.00    +0.214 C 
ATOM     18  O   UNL     1      -3.279   4.516  -0.374  0.00  0.00    -0.276 OA
ATOM     19  N   UNL     1      -3.497   2.677   2.000  0.00  0.00    +0.394 N 
ATOM     20  H   UNL     1      -3.459   2.305   2.956  0.00  0.00    -0.083 HD
ATOM     21  H   UNL     1      -4.472   2.882   1.751  0.00  0.00    -0.083 HD
ENDROOT
BRANCH   1  22
ATOM     22  C   UNL     1      -3.905   1.452  -0.105  0.00  0.00    -0.012 C 
BRANCH  22  24
ATOM     23  C   UNL     1      -3.350  -0.980  -0.239  0.00  0.00    +0.007 C 
ATOM     24  C   UNL     1      -3.362   0.342  -1.008  0.00  0.00    -0.019 C 
ATOM     25  C   UNL     1      -4.255   0.206  -2.242  0.00  0.00    +0.007 C 
ENDBRANCH  22  24
ENDBRANCH   1  22
BRANCH   6  26
ATOM     26  C   UNL     1       2.027   2.323   0.780  0.00  0.00    +0.151 C 
BRANCH  26  27
ATOM     27  C   UNL     1       2.430   2.737  -0.612  0.00  0.00    -0.030 A 
ATOM     28  C   UNL     1       2.423   1.811  -1.638  0.00  0.00    +0.005 A 
ATOM     29  C   UNL     1       2.788   2.192  -2.915  0.00  0.00    +0.000 A 
ATOM     30  C   UNL     1       3.169   3.497  -3.165  0.00  0.00    +0.000 A 
ATOM     31  C   UNL     1       3.182   4.422  -2.138  0.00  0.00    +0.000 A 
ATOM     32  C   UNL     1       2.812   4.042  -0.862  0.00  0.00    +0.005 A 
ENDBRANCH  26  27
ENDBRANCH   6  26
BRANCH  16  33
ATOM     33  C   UNL     1      -4.184   7.073   0.648  0.00  0.00    +0.151 C 
BRANCH  33  34
ATOM     34  C   UNL     1      -5.682   6.920   0.596  0.00  0.00    +0.005 A 
ATOM     35  C   UNL     1      -6.287   6.426  -0.544  0.00  0.00    +0.008 A 
ATOM     36  C   UNL     1      -7.661   6.280  -0.590  0.00  0.00    +0.000 A 
ATOM     37  C   UNL     1      -8.432   6.638   0.500  0.00  0.00    +0.003 A 
ATOM     38  C   UNL     1      -7.830   7.138   1.639  0.00  0.00    +0.038 A 
ATOM     39  C   UNL     1      -6.453   7.279   1.688  0.00  0.00    +0.128 A 
ATOM     40  F   UNL     1      -5.863   7.768   2.801  0.00  0.00    -0.205 F 
ENDBRANCH  33  34
ENDBRANCH  16  33
TORSDOF 6
