REMARK  Name = ZINC35745762
REMARK  13 active torsions:
REMARK  status: ('A' for Active; 'I' for Inactive)
REMARK    1  A    between atoms: C_1  and  C_2
REMARK    2  A    between atoms: C_5  and  C_8
REMARK    3  A    between atoms: C_17  and  C_19
REMARK    4  A    between atoms: C_19  and  N_20
REMARK    5  A    between atoms: N_20  and  C_21
REMARK    6  A    between atoms: N_20  and  C_32
REMARK    7  A    between atoms: C_21  and  C_22
REMARK    8  A    between atoms: C_22  and  C_24
REMARK    9  A    between atoms: C_22  and  O_31
REMARK   10  A    between atoms: C_24  and  C_25
REMARK   11  A    between atoms: C_32  and  C_33
REMARK   12  A    between atoms: C_33  and  C_34
REMARK   13  A    between atoms: C_33  and  C_35
REMARK                            x       y       z     vdW  Elec       q    Type
REMARK                         _______ _______ _______ _____ _____    ______ ____
ROOT
ATOM      1  C   UNL     1      -0.145  -4.236  -0.302  0.00  0.00    +0.004 A 
ATOM      2  C   UNL     1      -1.085  -4.934  -0.985  0.00  0.00    +0.056 A 
ATOM      3  S   UNL     1      -0.726  -6.629  -0.566  0.00  0.00    -0.076 S 
ATOM      4  C   UNL     1       0.662  -6.364   0.507  0.00  0.00    +0.116 A 
ATOM      5  C   UNL     1       0.819  -4.969   0.510  0.00  0.00    +0.080 A 
ATOM      6  C   UNL     1       1.896  -4.468   1.309  0.00  0.00    +0.260 A 
ATOM      7  O   UNL     1       2.109  -3.270   1.379  0.00  0.00    -0.267 OA
ATOM      8  N   UNL     1       2.669  -5.340   1.983  0.00  0.00    -0.312 N 
ATOM      9  H   UNL     1       3.400  -5.006   2.526  0.00  0.00    +0.170 HD
ATOM     10  C   UNL     1       2.445  -6.677   1.917  0.00  0.00    +0.094 A 
ATOM     11  N   UNL     1       1.465  -7.164   1.205  0.00  0.00    -0.229 NA
ENDROOT
BRANCH   1  16
ATOM     12  C   UNL     1       0.045   1.510  -0.616  0.00  0.00    +0.044 C 
ATOM     13  C   UNL     1      -0.005   0.006  -0.534  0.00  0.00    -0.050 A 
ATOM     14  C   UNL     1      -0.071  -0.746  -1.693  0.00  0.00    +0.004 A 
ATOM     15  C   UNL     1      -0.117  -2.123  -1.624  0.00  0.00    +0.009 A 
ATOM     16  C   UNL     1      -0.096  -2.757  -0.383  0.00  0.00    -0.017 A 
ATOM     17  C   UNL     1      -0.029  -1.994   0.782  0.00  0.00    +0.009 A 
ATOM     18  C   UNL     1       0.022  -0.618   0.701  0.00  0.00    +0.004 A 
ENDBRANCH   1  16
BRANCH  10  19
ATOM     19  C   UNL     1       3.336  -7.616   2.689  0.00  0.00    -0.003 C 
BRANCH  19  20
ATOM     20  N   UNL     1       2.902  -9.001   2.463  0.00  0.00    +0.386 N 
ATOM     21  H   UNL     1       1.925  -9.089   2.698  0.00  0.00    -0.081 HD
BRANCH  20  22
ATOM     22  C   UNL     1       3.692  -9.906   3.307  0.00  0.00    -0.046 C 
BRANCH  22  23
ATOM     23  C   UNL     1       3.369  -9.643   4.779  0.00  0.00    +0.102 C 
BRANCH  23  24
ATOM     24  O   UNL     1       1.992  -9.936   5.024  0.00  0.00    -0.393 OA
ATOM     25  H   UNL     1       1.728 -10.830   4.766  0.00  0.00    +0.210 HD
ENDBRANCH  23  24
BRANCH  23  26
ATOM     26  C   UNL     1       4.245 -10.536   5.661  0.00  0.00    +0.064 C 
BRANCH  26  27
ATOM     27  C   UNL     1       4.015 -10.190   7.110  0.00  0.00    -0.045 A 
ATOM     28  C   UNL     1       4.786  -9.218   7.719  0.00  0.00    +0.004 A 
ATOM     29  C   UNL     1       4.576  -8.901   9.048  0.00  0.00    +0.000 A 
ATOM     30  C   UNL     1       3.594  -9.556   9.768  0.00  0.00    +0.000 A 
ATOM     31  C   UNL     1       2.823 -10.528   9.158  0.00  0.00    +0.000 A 
ATOM     32  C   UNL     1       3.030 -10.842   7.828  0.00  0.00    +0.004 A 
ENDBRANCH  26  27
ENDBRANCH  23  26
ENDBRANCH  22  23
ENDBRANCH  20  22
BRANCH  20  33
ATOM     33  C   UNL     1       3.099  -9.351   1.050  0.00  0.00    -0.075 C 
BRANCH  33  34
ATOM     34  C   UNL     1       2.510 -10.737   0.781  0.00  0.00    -0.034 C 
ATOM     35  C   UNL     1       0.996 -10.698   0.994  0.00  0.00    +0.005 C 
ATOM     36  C   UNL     1       2.812 -11.149  -0.661  0.00  0.00    +0.005 C 
ENDBRANCH  33  34
ENDBRANCH  20  33
ENDBRANCH  19  20
ENDBRANCH  10  19
TORSDOF 10
