REMARK  Name = ZINC41076919
REMARK  13 active torsions:
REMARK  status: ('A' for Active; 'I' for Inactive)
REMARK    1  A    between atoms: C_1  and  C_2
REMARK    2  A    between atoms: C_5  and  C_35
REMARK    3  A    between atoms: C_6  and  O_8
REMARK    4  A    between atoms: O_8  and  C_9
REMARK    5  A    between atoms: C_9  and  C_10
REMARK    6  A    between atoms: N_12  and  C_13
REMARK    7  A    between atoms: C_18  and  O_19
REMARK    8  A    between atoms: O_19  and  C_20
REMARK    9  A    between atoms: C_20  and  C_21
REMARK   10  A    between atoms: N_30  and  C_31
REMARK   11  A    between atoms: C_31  and  C_32
REMARK   12  A    between atoms: C_32  and  C_33
REMARK   13  A    between atoms: C_32  and  C_34
REMARK                            x       y       z     vdW  Elec       q    Type
REMARK                         _______ _______ _______ _____ _____    ______ ____
ROOT
ATOM      1  C   UNL     1      -0.013  -3.242   7.136  0.00  0.00    +0.076 A 
ATOM      2  C   UNL     1       0.016  -4.623   7.003  0.00  0.00    +0.027 A 
ATOM      3  C   UNL     1      -0.057  -5.426   8.125  0.00  0.00    +0.002 A 
ATOM      4  C   UNL     1      -0.160  -4.858   9.381  0.00  0.00    +0.004 A 
ATOM      5  C   UNL     1      -0.190  -3.483   9.522  0.00  0.00    +0.047 A 
ATOM      6  C   UNL     1      -0.111  -2.670   8.402  0.00  0.00    +0.142 A 
ENDROOT
BRANCH   1   9
ATOM      7  C   UNL     1      -0.511  -2.822   4.846  0.00  0.00    +0.255 C 
ATOM      8  O   UNL     1      -1.020  -3.920   4.768  0.00  0.00    -0.272 OA
ATOM      9  N   UNL     1       0.062  -2.425   6.000  0.00  0.00    -0.280 N 
ATOM     10  H   UNL     1       0.526  -1.574   6.044  0.00  0.00    +0.155 HD
BRANCH   7  11
ATOM     11  C   UNL     1      -0.518  -1.901   3.653  0.00  0.00    +0.324 C 
BRANCH  11  12
ATOM     12  O   UNL     1      -1.177  -2.542   2.560  0.00  0.00    -0.482 OA
BRANCH  12  18
ATOM     13  C   UNL     1      -0.257   1.535   0.039  0.00  0.00    +0.044 C 
ATOM     14  C   UNL     1      -0.835   0.146   0.133  0.00  0.00    -0.047 A 
ATOM     15  C   UNL     1      -1.461  -0.417  -0.965  0.00  0.00    +0.004 A 
ATOM     16  C   UNL     1      -1.992  -1.691  -0.882  0.00  0.00    +0.007 A 
ATOM     17  C   UNL     1      -1.898  -2.405   0.297  0.00  0.00    -0.009 A 
ATOM     18  C   UNL     1      -1.270  -1.842   1.399  0.00  0.00    +0.124 A 
ATOM     19  C   UNL     1      -0.733  -0.566   1.312  0.00  0.00    +0.049 A 
ATOM     20  C   UNL     1      -2.478  -3.793   0.386  0.00  0.00    +0.047 C 
ENDBRANCH  12  18
ENDBRANCH  11  12
ENDBRANCH   7  11
ENDBRANCH   1   9
BRANCH   6  21
ATOM     21  O   UNL     1      -0.134  -1.318   8.539  0.00  0.00    -0.484 OA
BRANCH  21  22
ATOM     22  C   UNL     1      -0.236  -0.802   9.868  0.00  0.00    +0.284 C 
BRANCH  22  23
ATOM     23  C   UNL     1      -0.248   0.705   9.822  0.00  0.00    +0.088 A 
ATOM     24  C   UNL     1      -1.359   1.387  10.229  0.00  0.00    +0.099 A 
ATOM     25  C   UNL     1      -1.347   2.794  10.178  0.00  0.00    +0.275 A 
ATOM     26  O   UNL     1      -2.321   3.438  10.533  0.00  0.00    -0.266 OA
ATOM     27  N   UNL     1      -0.239   3.414   9.730  0.00  0.00    -0.181 N 
ATOM     28  C   UNL     1       0.848   2.683   9.335  0.00  0.00    +0.255 A 
ATOM     29  N   UNL     1       0.825   1.361   9.393  0.00  0.00    -0.212 NA
ATOM     30  N   UNL     1       1.800   3.552   8.940  0.00  0.00    -0.200 NA
ATOM     31  C   UNL     1       1.370   4.779   9.065  0.00  0.00    +0.219 A 
ATOM     32  N   UNL     1       0.102   4.761   9.555  0.00  0.00    -0.263 N 
BRANCH  32  33
ATOM     33  C   UNL     1      -0.742   5.924   9.842  0.00  0.00    +0.146 C 
BRANCH  33  34
ATOM     34  C   UNL     1      -0.427   6.449  11.244  0.00  0.00    +0.004 C 
ATOM     35  C   UNL     1      -1.217   7.734  11.497  0.00  0.00    +0.009 C 
ATOM     36  C   UNL     1      -0.820   5.396  12.283  0.00  0.00    +0.009 C 
ENDBRANCH  33  34
ENDBRANCH  32  33
ENDBRANCH  22  23
ENDBRANCH  21  22
ENDBRANCH   6  21
TORSDOF 9
