REMARK  Name = ZINC20715839
REMARK  9 active torsions:
REMARK  status: ('A' for Active; 'I' for Inactive)
REMARK    1  A    between atoms: C_1  and  O_2
REMARK    2  A    between atoms: O_2  and  C_3
REMARK    3  A    between atoms: C_3  and  C_5
REMARK    4  A    between atoms: C_5  and  C_7
REMARK    5  A    between atoms: C_5  and  N_11
REMARK    6  A    between atoms: C_7  and  C_8
REMARK    7  A    between atoms: C_8  and  S_9
REMARK    8  A    between atoms: S_9  and  C_10
REMARK    9  A    between atoms: C_23  and  C_25
REMARK                            x       y       z     vdW  Elec       q    Type
REMARK                         _______ _______ _______ _____ _____    ______ ____
ROOT
ATOM      1  N   UNL     1      -0.354  -2.330  -3.408  0.00  0.00    -0.286 N 
ATOM      2  C   UNL     1       0.938  -2.701  -3.508  0.00  0.00    +0.304 C 
ATOM      3  O   UNL     1       1.672  -2.615  -2.543  0.00  0.00    -0.253 OA
ATOM      4  N   UNL     1       1.416  -3.168  -4.679  0.00  0.00    -0.273 N 
ATOM      5  C   UNL     1       2.788  -3.686  -4.780  0.00  0.00    +0.116 C 
ATOM      6  C   UNL     1       2.739  -5.180  -5.124  0.00  0.00    +0.076 C 
ATOM      7  C   UNL     1       1.735  -5.393  -6.228  0.00  0.00    +0.066 A 
ATOM      8  C   UNL     1       0.773  -4.507  -6.566  0.00  0.00    +0.064 A 
ATOM      9  N   UNL     1       0.067  -5.050  -7.594  0.00  0.00    -0.346 N 
ATOM     10  H   UNL     1      -0.689  -4.649  -8.050  0.00  0.00    +0.167 HD
ATOM     11  C   UNL     1       0.621  -6.256  -7.859  0.00  0.00    +0.197 A 
ATOM     12  N   UNL     1       1.618  -6.451  -7.037  0.00  0.00    -0.240 NA
ATOM     13  C   UNL     1       0.574  -3.178  -5.889  0.00  0.00    +0.159 C 
ATOM     14  H   UNL     1      -0.921  -2.330  -4.195  0.00  0.00    +0.151 HD
ENDROOT
BRANCH  13  15
ATOM     15  C   UNL     1       0.995  -2.067  -6.816  0.00  0.00    +0.014 A 
ATOM     16  C   UNL     1       1.182  -2.322  -8.162  0.00  0.00    +0.011 A 
ATOM     17  C   UNL     1       1.567  -1.304  -9.013  0.00  0.00    +0.039 A 
ATOM     18  C   UNL     1       1.767  -0.026  -8.518  0.00  0.00    +0.126 A 
ATOM     19  C   UNL     1       1.580   0.231  -7.171  0.00  0.00    +0.077 A 
ATOM     20  C   UNL     1       1.188  -0.788  -6.321  0.00  0.00    +0.131 A 
ATOM     21  F   UNL     1       1.000  -0.537  -5.007  0.00  0.00    -0.205 F 
ATOM     22  F   UNL     1       2.144   0.969  -9.350  0.00  0.00    -0.205 F 
ENDBRANCH  13  15
BRANCH   1  23
ATOM     23  C   UNL     1      -0.901  -1.927  -2.110  0.00  0.00    +0.184 C 
BRANCH  23  24
ATOM     24  C   UNL     1      -1.344  -3.151  -1.350  0.00  0.00    +0.327 C 
ATOM     25  O   UNL     1      -1.215  -4.247  -1.841  0.00  0.00    -0.249 OA
BRANCH  24  27
ATOM     26  C   UNL     1      -2.278  -4.224   0.537  0.00  0.00    +0.280 C 
ATOM     27  O   UNL     1      -1.881  -3.023  -0.126  0.00  0.00    -0.467 OA
ENDBRANCH  24  27
ENDBRANCH  23  24
BRANCH  23  28
ATOM     28  C   UNL     1      -2.099  -1.001  -2.328  0.00  0.00    +0.044 C 
BRANCH  28  29
ATOM     29  C   UNL     1      -1.628   0.296  -2.988  0.00  0.00    +0.071 C 
BRANCH  29  30
ATOM     30  S   UNL     1      -3.048   1.395  -3.246  0.00  0.00    -0.164 S 
ATOM     31  C   UNL     1      -2.329   2.866  -4.026  0.00  0.00    +0.084 C 
ENDBRANCH  29  30
ENDBRANCH  28  29
ENDBRANCH  23  28
ENDBRANCH   1  23
TORSDOF 7
