REMARK  Name = ZINC55186433
REMARK  2 active torsions:
REMARK  status: ('A' for Active; 'I' for Inactive)
REMARK    1  A    between atoms: C_2  and  C_7
REMARK    2  A    between atoms: N_9  and  C_10
REMARK                            x       y       z     vdW  Elec       q    Type
REMARK                         _______ _______ _______ _____ _____    ______ ____
ROOT
ATOM      1  C   UNL     1       1.800   3.450   0.003  0.00  0.00    +0.263 C 
ATOM      2  O   UNL     1       1.002   4.367   0.015  0.00  0.00    -0.269 OA
ATOM      3  N   UNL     1       3.123   3.708  -0.008  0.00  0.00    -0.307 N 
ATOM      4  H   UNL     1       3.760   2.976  -0.018  0.00  0.00    +0.149 HD
ENDROOT
BRANCH   3   5
ATOM      5  C   UNL     1       3.599   5.093  -0.006  0.00  0.00    +0.079 C 
ATOM      6  C   UNL     1       3.660   5.609   1.433  0.00  0.00    +0.010 C 
ATOM      7  C   UNL     1       4.157   7.056   1.436  0.00  0.00    +0.009 C 
ATOM      8  C   UNL     1       5.553   7.117   0.813  0.00  0.00    -0.010 C 
ATOM      9  C   UNL     1       6.513   6.247   1.627  0.00  0.00    +0.007 C 
ATOM     10  C   UNL     1       6.016   4.800   1.625  0.00  0.00    -0.010 C 
ATOM     11  C   UNL     1       4.619   4.739   2.247  0.00  0.00    +0.009 C 
ATOM     12  C   UNL     1       5.955   4.284   0.185  0.00  0.00    +0.009 C 
ATOM     13  C   UNL     1       4.995   5.154  -0.628  0.00  0.00    +0.010 C 
ATOM     14  C   UNL     1       5.492   6.601  -0.626  0.00  0.00    +0.009 C 
ENDBRANCH   3   5
BRANCH   1  16
ATOM     15  C   UNL     1      -0.022   1.784   0.012  0.00  0.00    +0.081 A 
ATOM     16  C   UNL     1       1.322   2.058   0.001  0.00  0.00    +0.135 A 
ATOM     17  N   UNL     1       2.190   1.044  -0.013  0.00  0.00    -0.221 NA
ATOM     18  C   UNL     1       1.777  -0.208  -0.016  0.00  0.00    +0.156 A 
ATOM     19  S   UNL     1       0.002  -0.004   0.002  0.00  0.00    -0.060 S 
ATOM     20  N   UNL     1       2.523  -1.374  -0.029  0.00  0.00    -0.338 N 
ATOM     21  H   UNL     1       3.492  -1.331  -0.038  0.00  0.00    +0.144 HD
ATOM     22  H   UNL     1       2.077  -2.236  -0.030  0.00  0.00    +0.144 HD
ENDBRANCH   1  16
TORSDOF 2
