REMARK  Name = ZINC05733676
REMARK  7 active torsions:
REMARK  status: ('A' for Active; 'I' for Inactive)
REMARK    1  A    between atoms: C_1  and  C_2
REMARK    2  A    between atoms: C_2  and  C_3
REMARK    3  A    between atoms: C_2  and  C_4
REMARK    4  A    between atoms: C_6  and  O_26
REMARK    5  A    between atoms: C_9  and  O_10
REMARK    6  A    between atoms: C_20  and  C_21
REMARK    7  A    between atoms: C_20  and  C_22
REMARK                            x       y       z     vdW  Elec       q    Type
REMARK                         _______ _______ _______ _____ _____    ______ ____
ROOT
ATOM      1  C   UNL     1       3.721   1.595   0.145  0.00  0.00    +0.000 A 
ATOM      2  C   UNL     1       3.760   2.965   0.294  0.00  0.00    +0.053 A 
ATOM      3  C   UNL     1       2.596   3.728   0.183  0.00  0.00    +0.122 A 
ATOM      4  C   UNL     1       1.412   3.107  -0.104  0.00  0.00    +0.021 A 
ATOM      5  C   UNL     1       1.370   1.709  -0.196  0.00  0.00    +0.042 A 
ATOM      6  C   UNL     1       2.508   0.955  -0.098  0.00  0.00    +0.127 A 
ATOM      7  C   UNL     1      -0.022   1.159  -0.425  0.00  0.00    +0.211 C 
ATOM      8  C   UNL     1      -0.495   1.736  -1.776  0.00  0.00    +0.055 C 
ATOM      9  C   UNL     1      -0.505   3.260  -1.701  0.00  0.00    +0.020 C 
ATOM     10  C   UNL     1       0.069   3.731  -0.360  0.00  0.00    +0.100 C 
ATOM     11  C   UNL     1       0.044   5.234  -0.249  0.00  0.00    +0.023 C 
ATOM     12  C   UNL     1       0.739   5.890  -1.441  0.00  0.00    +0.002 C 
ATOM     13  C   UNL     1       0.080   5.449  -2.746  0.00  0.00    +0.007 C 
ATOM     14  C   UNL     1       0.144   3.925  -2.898  0.00  0.00    -0.031 C 
ATOM     15  C   UNL     1      -0.645   3.548  -4.166  0.00  0.00    +0.011 C 
ATOM     16  C   UNL     1       1.596   3.489  -3.091  0.00  0.00    +0.011 C 
ATOM     17  C   UNL     1      -0.854   3.090   0.685  0.00  0.00    +0.319 C 
ATOM     18  O   UNL     1      -1.483   3.740   1.481  0.00  0.00    -0.250 OA
ATOM     19  O   UNL     1      -0.886   1.730   0.617  0.00  0.00    -0.456 OA
ENDROOT
BRANCH   1  21
ATOM     20  C   UNL     1       5.973   1.250  -0.833  0.00  0.00    +0.012 C 
ATOM     21  C   UNL     1       4.990   0.788   0.245  0.00  0.00    +0.017 C 
ATOM     22  C   UNL     1       5.615   0.991   1.626  0.00  0.00    +0.012 C 
ENDBRANCH   1  21
BRANCH   6  23
ATOM     23  O   UNL     1       2.455  -0.398  -0.227  0.00  0.00    -0.506 OA
ATOM     24  H   UNL     1       2.566  -0.711  -1.135  0.00  0.00    +0.292 HD
ENDBRANCH   6  23
BRANCH   3  25
ATOM     25  O   UNL     1       2.673   5.067   0.411  0.00  0.00    -0.506 OA
ATOM     26  H   UNL     1       2.604   5.312   1.344  0.00  0.00    +0.292 HD
ENDBRANCH   3  25
TORSDOF 3
