REMARK  Name = ZINC35089592
REMARK  16 active torsions:
REMARK  status: ('A' for Active; 'I' for Inactive)
REMARK    1  A    between atoms: C_1  and  C_2
REMARK    2  A    between atoms: C_2  and  C_3
REMARK    3  A    between atoms: C_3  and  C_4
REMARK    4  A    between atoms: C_4  and  C_5
REMARK    5  A    between atoms: C_5  and  C_7
REMARK    6  A    between atoms: C_5  and  C_9
REMARK    7  A    between atoms: C_7  and  C_8
REMARK    8  A    between atoms: N_11  and  C_12
REMARK    9  A    between atoms: N_11  and  C_17
REMARK   10  A    between atoms: C_12  and  C_13
REMARK   11  A    between atoms: C_13  and  N_14
REMARK   12  A    between atoms: N_14  and  C_15
REMARK   13  A    between atoms: N_14  and  C_16
REMARK   14  A    between atoms: C_17  and  C_19
REMARK   15  A    between atoms: C_17  and  C_20
REMARK   16  A    between atoms: N_30  and  C_31
REMARK                            x       y       z     vdW  Elec       q    Type
REMARK                         _______ _______ _______ _____ _____    ______ ____
ROOT
ATOM      1  C   UNL     1       2.859  -5.026  -4.578  0.00  0.00    +0.138 A 
ATOM      2  N   UNL     1       3.702  -4.170  -4.085  0.00  0.00    -0.231 NA
ATOM      3  C   UNL     1       5.037  -4.285  -4.295  0.00  0.00    +0.078 A 
ATOM      4  C   UNL     1       5.944  -3.365  -3.765  0.00  0.00    +0.028 A 
ATOM      5  C   UNL     1       7.291  -3.521  -4.003  0.00  0.00    +0.002 A 
ATOM      6  C   UNL     1       7.761  -4.583  -4.765  0.00  0.00    +0.001 A 
ATOM      7  C   UNL     1       6.886  -5.504  -5.298  0.00  0.00    +0.015 A 
ATOM      8  C   UNL     1       5.519  -5.365  -5.069  0.00  0.00    +0.065 A 
ATOM      9  C   UNL     1       4.538  -6.316  -5.612  0.00  0.00    +0.266 A 
ATOM     10  O   UNL     1       4.888  -7.268  -6.286  0.00  0.00    -0.267 OA
ATOM     11  N   UNL     1       3.233  -6.097  -5.329  0.00  0.00    -0.263 N 
ENDROOT
BRANCH  11  12
ATOM     12  C   UNL     1       2.260  -6.976  -5.817  0.00  0.00    +0.052 A 
ATOM     13  C   UNL     1       2.043  -7.074  -7.197  0.00  0.00    +0.027 A 
ATOM     14  C   UNL     1       1.105  -7.919  -7.698  0.00  0.00    +0.010 A 
ATOM     15  C   UNL     1       0.336  -8.710  -6.827  0.00  0.00    -0.018 A 
ATOM     16  C   UNL     1      -0.641  -9.593  -7.317  0.00  0.00    +0.008 A 
ATOM     17  C   UNL     1      -1.368 -10.345  -6.447  0.00  0.00    +0.001 A 
ATOM     18  C   UNL     1      -1.159 -10.255  -5.072  0.00  0.00    +0.001 A 
ATOM     19  C   UNL     1      -0.222  -9.411  -4.560  0.00  0.00    +0.008 A 
ATOM     20  C   UNL     1       0.549  -8.618  -5.428  0.00  0.00    -0.016 A 
ATOM     21  C   UNL     1       1.529  -7.741  -4.935  0.00  0.00    +0.034 A 
ENDBRANCH  11  12
BRANCH   1  22
ATOM     22  C   UNL     1       1.391  -4.826  -4.298  0.00  0.00    +0.139 C 
ATOM     23  C   UNL     1       0.626  -4.749  -5.621  0.00  0.00    +0.036 C 
BRANCH  22  26
ATOM     24  C   UNL     1       0.723  -3.615  -2.292  0.00  0.00    +0.219 C 
ATOM     25  O   UNL     1       0.657  -2.595  -1.640  0.00  0.00    -0.275 OA
ATOM     26  N   UNL     1       1.202  -3.580  -3.552  0.00  0.00    -0.293 N 
BRANCH  24  27
ATOM     27  C   UNL     1       0.270  -4.923  -1.695  0.00  0.00    +0.075 C 
BRANCH  27  28
ATOM     28  C   UNL     1      -0.887  -4.667  -0.727  0.00  0.00    +0.009 C 
ATOM     29  C   UNL     1      -2.097  -4.146  -1.504  0.00  0.00    +0.004 C 
ENDBRANCH  27  28
BRANCH  27  30
ATOM     30  C   UNL     1       1.434  -5.569  -0.940  0.00  0.00    +0.013 C 
BRANCH  30  31
ATOM     31  C   UNL     1       1.012  -6.952  -0.439  0.00  0.00    +0.000 C 
BRANCH  31  33
ATOM     32  C   UNL     1       1.753  -8.981   0.816  0.00  0.00    +0.004 C 
ATOM     33  C   UNL     1       2.175  -7.598   0.316  0.00  0.00    -0.003 C 
ENDBRANCH  31  33
ENDBRANCH  30  31
ENDBRANCH  27  30
ENDBRANCH  24  27
BRANCH  26  34
ATOM     34  C   UNL     1       1.532  -2.295  -4.174  0.00  0.00    +0.090 C 
BRANCH  34  35
ATOM     35  C   UNL     1       0.267  -1.679  -4.774  0.00  0.00    -0.060 C 
BRANCH  35  36
ATOM     36  N   UNL     1       0.618  -0.455  -5.507  0.00  0.00    +0.377 N 
ATOM     37  C   UNL     1      -0.571   0.059  -6.200  0.00  0.00    -0.097 C 
ATOM     38  C   UNL     1       1.110   0.557  -4.563  0.00  0.00    -0.097 C 
ATOM     39  H   UNL     1       1.338  -0.663  -6.183  0.00  0.00    -0.083 HD
ENDBRANCH  35  36
ENDBRANCH  34  35
ENDBRANCH  26  34
ENDBRANCH  22  26
ENDBRANCH   1  22
TORSDOF 11
