REMARK  Name = ZINC20254738
REMARK  4 active torsions:
REMARK  status: ('A' for Active; 'I' for Inactive)
REMARK    1  A    between atoms: C_4  and  N_17
REMARK    2  A    between atoms: C_6  and  N_7
REMARK    3  A    between atoms: N_7  and  S_8
REMARK    4  A    between atoms: S_8  and  N_11
REMARK                            x       y       z     vdW  Elec       q    Type
REMARK                         _______ _______ _______ _____ _____    ______ ____
ROOT
ATOM      1  N   UNL     1      -0.006   0.973   0.011  0.00  0.00    -0.206 N 
ATOM      2  H   UNL     1       0.794   1.303   0.690  0.00  0.00    +0.175 HD
ENDROOT
BRANCH   1   8
ATOM      3  C   UNL     1      -0.695  -1.093  -1.030  0.00  0.00    +0.026 A 
ATOM      4  C   UNL     1      -0.465  -2.117  -1.929  0.00  0.00    +0.024 A 
ATOM      5  C   UNL     1       0.691  -2.129  -2.687  0.00  0.00    +0.062 A 
ATOM      6  C   UNL     1       1.623  -1.106  -2.551  0.00  0.00    +0.045 A 
ATOM      7  C   UNL     1       1.392  -0.074  -1.654  0.00  0.00    +0.048 A 
ATOM      8  C   UNL     1       0.230  -0.065  -0.894  0.00  0.00    +0.051 A 
ATOM      9 CL   UNL     1       0.979  -3.421  -3.810  0.00  0.00    -0.082 Cl
BRANCH   6  10
ATOM     10  N   UNL     1       2.791  -1.118  -3.318  0.00  0.00    -0.357 N 
ATOM     11  H   UNL     1       3.528  -0.309  -3.210  0.00  0.00    +0.142 HD
ATOM     12  H   UNL     1       2.974  -1.937  -4.029  0.00  0.00    +0.142 HD
ENDBRANCH   6  10
ENDBRANCH   1   8
BRANCH   1  13
ATOM     13  S   UNL     1      -1.490   1.706   0.062  0.00  0.00    +0.112 S 
ATOM     14  O   UNL     1      -2.450   0.668   0.206  0.00  0.00    -0.138 OA
ATOM     15  O   UNL     1      -1.382   2.778   0.988  0.00  0.00    -0.138 OA
BRANCH  13  16
ATOM     16  N   UNL     1      -1.750   2.388  -1.425  0.00  0.00    -0.164 NA
ATOM     17  C   UNL     1      -1.228   3.726  -1.736  0.00  0.00    +0.111 C 
ATOM     18  C   UNL     1      -0.399   3.639  -3.026  0.00  0.00    +0.017 C 
ATOM     19  C   UNL     1      -1.255   3.025  -4.136  0.00  0.00    +0.003 C 
ATOM     20  C   UNL     1      -1.672   1.608  -3.736  0.00  0.00    +0.017 C 
ATOM     21  C   UNL     1      -2.511   1.670  -2.455  0.00  0.00    +0.111 C 
ENDBRANCH  13  16
ENDBRANCH   1  13
TORSDOF 4
