REMARK  Name = ZINC10353123
REMARK  5 active torsions:
REMARK  status: ('A' for Active; 'I' for Inactive)
REMARK    1  A    between atoms: C_1  and  C_2
REMARK    2  A    between atoms: C_8  and  C_10
REMARK    3  A    between atoms: C_11  and  C_32
REMARK    4  A    between atoms: N_12  and  C_26
REMARK    5  A    between atoms: C_16  and  C_18
REMARK                            x       y       z     vdW  Elec       q    Type
REMARK                         _______ _______ _______ _____ _____    ______ ____
ROOT
ATOM      1  C   UNL     1      -3.718  -4.305   0.416  0.00  0.00    +0.056 C 
ATOM      2  C   UNL     1      -5.055  -4.128   0.349  0.00  0.00    +0.025 C 
ATOM      3  N   UNL     1      -5.885  -5.155  -0.006  0.00  0.00    -0.255 N 
ATOM      4  C   UNL     1      -5.455  -6.386  -0.307  0.00  0.00    +0.142 C 
ATOM      5  S   UNL     1      -6.603  -7.582  -0.736  0.00  0.00    -0.018 S 
ATOM      6  N   UNL     1      -4.148  -6.715  -0.285  0.00  0.00    -0.315 N 
ATOM      7  C   UNL     1      -3.170  -5.677   0.079  0.00  0.00    +0.139 C 
ATOM      8  C   UNL     1      -5.641  -2.778   0.671  0.00  0.00    +0.062 C 
ATOM      9  H   UNL     1      -3.858  -7.614  -0.507  0.00  0.00    +0.149 HD
ENDROOT
BRANCH   1  17
ATOM     10  C   UNL     1       0.184   0.804   2.707  0.00  0.00    +0.089 C 
ATOM     11  C   UNL     1      -0.585   0.207   1.557  0.00  0.00    +0.136 A 
ATOM     12  C   UNL     1      -1.251  -0.961   1.575  0.00  0.00    +0.091 A 
ATOM     13  C   UNL     1      -1.833  -1.154   0.302  0.00  0.00    +0.168 A 
ATOM     14  N   UNL     1      -1.517  -0.127  -0.444  0.00  0.00    -0.063 NA
ATOM     15  O   UNL     1      -0.729   0.752   0.339  0.00  0.00    -0.358 OA
ATOM     16  N   UNL     1      -2.606  -2.246  -0.090  0.00  0.00    -0.264 N 
ATOM     17  C   UNL     1      -2.857  -3.242   0.783  0.00  0.00    +0.249 C 
ATOM     18  O   UNL     1      -2.343  -3.228   1.887  0.00  0.00    -0.270 OA
ATOM     19  H   UNL     1      -2.963  -2.289  -0.991  0.00  0.00    +0.157 HD
ENDBRANCH   1  17
BRANCH   7  20
ATOM     20  C   UNL     1      -2.201  -5.522  -1.065  0.00  0.00    -0.020 A 
ATOM     21  C   UNL     1      -2.674  -5.274  -2.341  0.00  0.00    +0.009 A 
ATOM     22  C   UNL     1      -1.788  -5.132  -3.392  0.00  0.00    +0.041 A 
ATOM     23  C   UNL     1      -0.426  -5.237  -3.168  0.00  0.00    +0.158 A 
ATOM     24  C   UNL     1       0.048  -5.485  -1.889  0.00  0.00    +0.159 A 
ATOM     25  C   UNL     1      -0.842  -5.622  -0.837  0.00  0.00    +0.047 A 
ATOM     26  F   UNL     1       1.377  -5.588  -1.668  0.00  0.00    -0.202 F 
ATOM     27  F   UNL     1       0.441  -5.098  -4.195  0.00  0.00    -0.202 F 
ENDBRANCH   7  20
BRANCH   3  28
ATOM     28  C   UNL     1      -7.262  -4.904  -0.056  0.00  0.00    +0.040 A 
ATOM     29  C   UNL     1      -8.095  -5.396   0.940  0.00  0.00    +0.024 A 
ATOM     30  C   UNL     1      -9.453  -5.147   0.888  0.00  0.00    +0.002 A 
ATOM     31  C   UNL     1      -9.982  -4.409  -0.154  0.00  0.00    +0.000 A 
ATOM     32  C   UNL     1      -9.155  -3.918  -1.148  0.00  0.00    +0.002 A 
ATOM     33  C   UNL     1      -7.796  -4.159  -1.098  0.00  0.00    +0.024 A 
ENDBRANCH   3  28
TORSDOF 3
