REMARK  Name = ZINC11788135
REMARK  9 active torsions:
REMARK  status: ('A' for Active; 'I' for Inactive)
REMARK    1  A    between atoms: C_1  and  C_2
REMARK    2  A    between atoms: C_2  and  C_3
REMARK    3  A    between atoms: C_2  and  C_4
REMARK    4  A    between atoms: C_4  and  C_5
REMARK    5  A    between atoms: C_5  and  C_7
REMARK    6  A    between atoms: C_5  and  N_26
REMARK    7  A    between atoms: C_16  and  C_17
REMARK    8  A    between atoms: C_16  and  N_62
REMARK    9  A    between atoms: C_27  and  C_29
REMARK                            x       y       z     vdW  Elec       q    Type
REMARK                         _______ _______ _______ _____ _____    ______ ____
ROOT
ATOM      1  C   UNL     1       3.868  -0.112  -1.659  0.00  0.00    +0.154 A 
ATOM      2  N   UNL     1       4.117  -1.298  -1.167  0.00  0.00    -0.132 NA
ATOM      3  N   UNL     1       3.236  -1.592  -0.275  0.00  0.00    -0.134 NA
ATOM      4  C   UNL     1       2.394  -0.608  -0.155  0.00  0.00    +0.132 A 
ATOM      5  N   UNL     1       2.761   0.350  -1.041  0.00  0.00    -0.315 N 
ATOM      6  C   UNL     1       2.065   1.616  -1.278  0.00  0.00    +0.106 C 
ATOM      7  C   UNL     1       1.332   2.034   0.000  0.00  0.00    -0.056 C 
ATOM      8  C   UNL     1       0.002  -0.004   0.002  0.00  0.00    -0.071 C 
ATOM      9  C   UNL     1       1.219  -0.508   0.784  0.00  0.00    +0.058 C 
ATOM     10  N   UNL     1      -0.039   1.474   0.038  0.00  0.00    +0.384 N 
ATOM     11  H   UNL     1      -0.493   1.771   0.909  0.00  0.00    -0.081 HD
ENDROOT
BRANCH   1  12
ATOM     12  C   UNL     1       4.668   0.604  -2.717  0.00  0.00    +0.142 C 
BRANCH  12  13
ATOM     13  N   UNL     1       4.985  -0.326  -3.803  0.00  0.00    -0.299 N 
ATOM     14  C   UNL     1       5.227   0.143  -5.043  0.00  0.00    +0.280 C 
ATOM     15  O   UNL     1       5.184   1.339  -5.260  0.00  0.00    -0.267 OA
ATOM     16  H   UNL     1       5.020  -1.280  -3.630  0.00  0.00    +0.150 HD
BRANCH  14  17
ATOM     17  C   UNL     1       5.544  -0.789  -6.130  0.00  0.00    +0.189 A 
ATOM     18  C   UNL     1       5.810  -0.449  -7.426  0.00  0.00    +0.054 A 
ATOM     19  C   UNL     1       6.058  -1.647  -8.114  0.00  0.00    +0.042 A 
ATOM     20  C   UNL     1       5.936  -2.652  -7.220  0.00  0.00    +0.196 A 
ATOM     21  O   UNL     1       5.631  -2.131  -6.025  0.00  0.00    -0.458 OA
ENDBRANCH  14  17
ENDBRANCH  12  13
BRANCH  12  22
ATOM     22  C   UNL     1       5.966   1.133  -2.103  0.00  0.00    +0.033 C 
BRANCH  22  24
ATOM     23  C   UNL     1       5.899   3.210  -3.491  0.00  0.00    +0.007 C 
ATOM     24  C   UNL     1       6.719   1.966  -3.143  0.00  0.00    -0.015 C 
ATOM     25  C   UNL     1       8.074   2.390  -2.572  0.00  0.00    +0.007 C 
ENDBRANCH  22  24
ENDBRANCH  12  22
ENDBRANCH   1  12
BRANCH  10  26
ATOM     26  C   UNL     1      -0.820   1.982  -1.105  0.00  0.00    -0.036 C 
BRANCH  26  27
ATOM     27  C   UNL     1      -2.264   1.603  -0.905  0.00  0.00    -0.026 A 
ATOM     28  C   UNL     1      -3.221   2.287  -0.261  0.00  0.00    +0.017 A 
ATOM     29  C   UNL     1      -4.565   1.734  -0.185  0.00  0.00    -0.011 A 
ATOM     30  C   UNL     1      -5.713   2.280   0.436  0.00  0.00    +0.009 A 
ATOM     31  C   UNL     1      -6.900   1.617   0.407  0.00  0.00    +0.001 A 
ATOM     32  C   UNL     1      -7.031   0.390  -0.229  0.00  0.00    +0.001 A 
ATOM     33  C   UNL     1      -5.934  -0.177  -0.847  0.00  0.00    +0.015 A 
ATOM     34  C   UNL     1      -4.725   0.485  -0.824  0.00  0.00    +0.020 A 
ATOM     35  S   UNL     1      -3.111   0.141  -1.475  0.00  0.00    -0.095 S 
ENDBRANCH  26  27
ENDBRANCH  10  26
TORSDOF 7
