REMARK  Name = ZINC28314408
REMARK  11 active torsions:
REMARK  status: ('A' for Active; 'I' for Inactive)
REMARK    1  A    between atoms: C_1  and  C_2
REMARK    2  A    between atoms: C_5  and  C_34
REMARK    3  A    between atoms: C_6  and  N_8
REMARK    4  A    between atoms: N_10  and  C_31
REMARK    5  A    between atoms: C_13  and  C_16
REMARK    6  A    between atoms: C_16  and  C_17
REMARK    7  A    between atoms: N_19  and  C_20
REMARK    8  A    between atoms: C_23  and  O_29
REMARK    9  A    between atoms: C_25  and  N_26
REMARK   10  A    between atoms: O_29  and  C_30
REMARK   11  A    between atoms: C_31  and  C_32
REMARK                            x       y       z     vdW  Elec       q    Type
REMARK                         _______ _______ _______ _____ _____    ______ ____
ROOT
ATOM      1  N   UNL     1      -2.372   4.207   0.067  0.00  0.00    -0.226 NA
ATOM      2  C   UNL     1      -3.510   3.561  -0.018  0.00  0.00    +0.164 C 
ATOM      3  N   UNL     1      -4.784   4.085  -0.094  0.00  0.00    -0.246 N 
ATOM      4  C   UNL     1      -5.859   3.321  -0.176  0.00  0.00    +0.235 C 
ATOM      5  O   UNL     1      -6.977   3.787  -0.243  0.00  0.00    -0.274 OA
ATOM      6  C   UNL     1      -5.608   1.822  -0.182  0.00  0.00    +0.149 C 
ATOM      7  S   UNL     1      -3.775   1.795  -0.069  0.00  0.00    -0.077 S 
ENDROOT
BRANCH   1  13
ATOM      8  C   UNL     1       0.343   0.437   1.614  0.00  0.00    +0.044 C 
ATOM      9  C   UNL     1       0.167   1.678   0.778  0.00  0.00    -0.048 A 
ATOM     10  C   UNL     1       1.203   2.123  -0.024  0.00  0.00    +0.004 A 
ATOM     11  C   UNL     1       1.050   3.261  -0.796  0.00  0.00    +0.006 A 
ATOM     12  C   UNL     1      -0.139   3.961  -0.770  0.00  0.00    -0.025 A 
ATOM     13  C   UNL     1      -1.189   3.518   0.037  0.00  0.00    +0.070 A 
ATOM     14  C   UNL     1      -1.029   2.365   0.809  0.00  0.00    +0.031 A 
ATOM     15  C   UNL     1      -0.304   5.200  -1.611  0.00  0.00    +0.046 C 
ENDBRANCH   1  13
BRANCH   6  16
ATOM     16  C   UNL     1      -6.254   1.147   1.030  0.00  0.00    +0.120 C 
BRANCH  16  17
ATOM     17  C   UNL     1      -6.086  -0.346   0.922  0.00  0.00    +0.219 C 
ATOM     18  O   UNL     1      -5.507  -0.825  -0.030  0.00  0.00    -0.275 OA
ATOM     19  N   UNL     1      -6.580  -1.151   1.884  0.00  0.00    -0.284 N 
ATOM     20  H   UNL     1      -7.186  -0.728   2.698  0.00  0.00    +0.155 HD
BRANCH  19  21
ATOM     21  C   UNL     1      -6.320  -2.527   1.848  0.00  0.00    +0.064 A 
ATOM     22  C   UNL     1      -5.189  -3.004   1.197  0.00  0.00    +0.029 A 
ATOM     23  C   UNL     1      -4.933  -4.360   1.162  0.00  0.00    +0.047 A 
ATOM     24  C   UNL     1      -5.805  -5.247   1.777  0.00  0.00    +0.122 A 
ATOM     25  C   UNL     1      -6.934  -4.772   2.427  0.00  0.00    +0.080 A 
ATOM     26  C   UNL     1      -7.189  -3.415   2.467  0.00  0.00    +0.151 A 
BRANCH  26  27
ATOM     27  N   UNL     1      -8.392  -2.908   3.165  0.00  0.00    +0.058 N 
ATOM     28  O   UNL     1      -9.101  -3.675   3.792  0.00  0.00    -0.126 OA
ATOM     29  O   UNL     1      -8.672  -1.724   3.114  0.00  0.00    -0.126 OA
ENDBRANCH  26  27
BRANCH  24  30
ATOM     30  O   UNL     1      -5.553  -6.583   1.742  0.00  0.00    -0.495 OA
ATOM     31  C   UNL     1      -4.371  -7.002   1.055  0.00  0.00    +0.277 C 
ENDBRANCH  24  30
ENDBRANCH  19  21
ENDBRANCH  16  17
ENDBRANCH   6  16
BRANCH   3  32
ATOM     32  C   UNL     1      -4.950   5.540  -0.084  0.00  0.00    +0.142 C 
BRANCH  32  33
ATOM     33  C   UNL     1      -4.913   6.060  -1.498  0.00  0.00    -0.015 C 
ATOM     34  C   UNL     1      -5.902   6.788  -1.954  0.00  0.00    +0.005 C 
ENDBRANCH  32  33
ENDBRANCH   3  32
TORSDOF 8
