REMARK  Name = ZINC35910409
REMARK  11 active torsions:
REMARK  status: ('A' for Active; 'I' for Inactive)
REMARK    1  A    between atoms: C_1  and  C_2
REMARK    2  A    between atoms: C_2  and  C_3
REMARK    3  A    between atoms: C_2  and  C_4
REMARK    4  A    between atoms: C_7  and  N_10
REMARK    5  A    between atoms: C_11  and  C_17
REMARK    6  A    between atoms: C_20  and  N_23
REMARK    7  A    between atoms: C_24  and  C_26
REMARK    8  A    between atoms: C_28  and  O_34
REMARK    9  A    between atoms: C_30  and  O_32
REMARK   10  A    between atoms: O_32  and  C_33
REMARK   11  A    between atoms: O_34  and  C_35
REMARK                            x       y       z     vdW  Elec       q    Type
REMARK                         _______ _______ _______ _____ _____    ______ ____
ROOT
ATOM      1  C   UNL     1      -5.538  -2.033  -2.405  0.00  0.00    -0.017 A 
ATOM      2  C   UNL     1      -5.416  -0.656  -2.451  0.00  0.00    +0.008 A 
ATOM      3  C   UNL     1      -5.112  -0.028  -3.643  0.00  0.00    +0.023 A 
ATOM      4  C   UNL     1      -4.930  -0.781  -4.796  0.00  0.00    +0.034 A 
ATOM      5  C   UNL     1      -5.053  -2.163  -4.746  0.00  0.00    +0.023 A 
ATOM      6  C   UNL     1      -5.351  -2.785  -3.549  0.00  0.00    +0.008 A 
ENDROOT
BRANCH   1   8
ATOM      7  N   UNL     1      -5.350  -1.946   0.045  0.00  0.00    -0.254 N 
ATOM      8  C   UNL     1      -5.870  -2.714  -1.102  0.00  0.00    +0.170 C 
ATOM      9  S   UNL     1      -7.684  -2.672  -0.774  0.00  0.00    -0.124 S 
ATOM     10  C   UNL     1      -7.561  -2.262   1.021  0.00  0.00    +0.167 C 
ATOM     11  C   UNL     1      -6.141  -1.721   1.086  0.00  0.00    +0.231 C 
ATOM     12  O   UNL     1      -5.748  -1.102   2.052  0.00  0.00    -0.274 OA
BRANCH   7  16
ATOM     13  C   UNL     1      -1.437  -0.517   0.024  0.00  0.00    -0.045 A 
ATOM     14  C   UNL     1      -1.674  -1.880   0.023  0.00  0.00    +0.006 A 
ATOM     15  C   UNL     1      -2.970  -2.357   0.030  0.00  0.00    +0.024 A 
ATOM     16  C   UNL     1      -4.036  -1.466   0.039  0.00  0.00    +0.038 A 
ATOM     17  C   UNL     1      -3.794  -0.099   0.040  0.00  0.00    +0.024 A 
ATOM     18  C   UNL     1      -2.495   0.372   0.038  0.00  0.00    +0.006 A 
BRANCH  13  20
ATOM     19  C   UNL     1       0.715  -0.511   1.257  0.00  0.00    +0.012 C 
ATOM     20  C   UNL     1      -0.021  -0.001   0.016  0.00  0.00    +0.013 C 
ATOM     21  C   UNL     1       0.696  -0.495  -1.242  0.00  0.00    +0.012 C 
ENDBRANCH  13  20
ENDBRANCH   7  16
ENDBRANCH   1   8
BRANCH   4  22
ATOM     22  N   UNL     1      -4.623  -0.148  -6.005  0.00  0.00    -0.281 N 
ATOM     23  C   UNL     1      -3.850   0.956  -6.011  0.00  0.00    +0.248 C 
ATOM     24  O   UNL     1      -3.339   1.345  -4.979  0.00  0.00    -0.270 OA
ATOM     25  H   UNL     1      -4.966  -0.504  -6.840  0.00  0.00    +0.155 HD
BRANCH  23  26
ATOM     26  C   UNL     1      -3.624   1.693  -7.272  0.00  0.00    +0.044 A 
ATOM     27  C   UNL     1      -4.214   1.251  -8.456  0.00  0.00    +0.059 A 
ATOM     28  C   UNL     1      -3.999   1.945  -9.636  0.00  0.00    +0.124 A 
ATOM     29  C   UNL     1      -3.199   3.078  -9.640  0.00  0.00    +0.091 A 
ATOM     30  C   UNL     1      -2.610   3.521  -8.465  0.00  0.00    +0.124 A 
ATOM     31  C   UNL     1      -2.824   2.837  -7.280  0.00  0.00    +0.059 A 
BRANCH  30  32
ATOM     32  O   UNL     1      -1.826   4.632  -8.475  0.00  0.00    -0.495 OA
ATOM     33  C   UNL     1      -1.653   5.292  -9.730  0.00  0.00    +0.277 C 
ENDBRANCH  30  32
BRANCH  28  34
ATOM     34  O   UNL     1      -4.574   1.515 -10.790  0.00  0.00    -0.495 OA
ATOM     35  C   UNL     1      -4.310   2.279 -11.969  0.00  0.00    +0.277 C 
ENDBRANCH  28  34
ENDBRANCH  23  26
ENDBRANCH   4  22
TORSDOF 7
