REMARK  Name = ZINC18940791
REMARK  6 active torsions:
REMARK  status: ('A' for Active; 'I' for Inactive)
REMARK    1  A    between atoms: C_1  and  C_2
REMARK    2  A    between atoms: C_2  and  C_3
REMARK    3  A    between atoms: C_3  and  N_4
REMARK    4  A    between atoms: C_5  and  C_7
REMARK    5  A    between atoms: N_10  and  S_18
REMARK    6  A    between atoms: S_18  and  C_21
REMARK                            x       y       z     vdW  Elec       q    Type
REMARK                         _______ _______ _______ _____ _____    ______ ____
ROOT
ATOM      1  C   UNL     1      -2.624   0.800  -0.176  0.00  0.00    +0.277 C 
ATOM      2  C   UNL     1      -2.590   0.001   1.134  0.00  0.00    +0.186 C 
ATOM      3  N   UNL     1      -3.911  -0.625   1.309  0.00  0.00    -0.195 N 
ATOM      4  C   UNL     1      -5.044   0.147   1.010  0.00  0.00    +0.093 A 
ATOM      5  C   UNL     1      -6.300  -0.275   1.415  0.00  0.00    +0.028 A 
ATOM      6  C   UNL     1      -7.414   0.486   1.112  0.00  0.00    +0.002 A 
ATOM      7  C   UNL     1      -7.275   1.666   0.406  0.00  0.00    +0.004 A 
ATOM      8  C   UNL     1      -6.024   2.093   0.001  0.00  0.00    +0.047 A 
ATOM      9  C   UNL     1      -4.901   1.337   0.301  0.00  0.00    +0.144 A 
ATOM     10  O   UNL     1      -3.675   1.766  -0.099  0.00  0.00    -0.476 OA
ENDROOT
BRANCH   1  12
ATOM     11  N   UNL     1      -0.184   0.783  -0.577  0.00  0.00    -0.312 N 
ATOM     12  C   UNL     1      -1.306   1.502  -0.375  0.00  0.00    +0.255 C 
ATOM     13  O   UNL     1      -1.255   2.713  -0.353  0.00  0.00    -0.272 OA
ATOM     14  H   UNL     1      -0.225  -0.186  -0.595  0.00  0.00    +0.149 HD
BRANCH  11  15
ATOM     15  C   UNL     1       1.097   1.466  -0.777  0.00  0.00    +0.104 C 
BRANCH  15  17
ATOM     16  C   UNL     1       3.538   1.140  -1.198  0.00  0.00    +0.005 C 
ATOM     17  C   UNL     1       2.201   0.427  -0.990  0.00  0.00    +0.015 C 
ENDBRANCH  15  17
ENDBRANCH  11  15
ENDBRANCH   1  12
BRANCH   3  18
ATOM     18  S   UNL     1      -4.056  -2.188   1.840  0.00  0.00    +0.075 S 
ATOM     19  O   UNL     1      -5.264  -2.693   1.289  0.00  0.00    -0.150 OA
ATOM     20  O   UNL     1      -2.798  -2.810   1.617  0.00  0.00    -0.150 OA
BRANCH  18  21
ATOM     21  C   UNL     1      -4.285  -2.126   3.586  0.00  0.00    +0.109 A 
ATOM     22  C   UNL     1      -3.190  -2.163   4.428  0.00  0.00    +0.030 A 
ATOM     23  C   UNL     1      -3.369  -2.110   5.798  0.00  0.00    +0.017 A 
ATOM     24  C   UNL     1      -4.645  -2.029   6.325  0.00  0.00    +0.018 A 
ATOM     25  C   UNL     1      -5.741  -1.997   5.482  0.00  0.00    +0.017 A 
ATOM     26  C   UNL     1      -5.561  -2.045   4.113  0.00  0.00    +0.030 A 
ATOM     27 BR   UNL     1      -4.891  -1.964   8.199  0.00  0.00    -0.050 Br
ENDBRANCH  18  21
ENDBRANCH   3  18
TORSDOF 5
