REMARK  Name = ZINC42006427
REMARK  6 active torsions:
REMARK  status: ('A' for Active; 'I' for Inactive)
REMARK    1  A    between atoms: C_4  and  N_20
REMARK    2  A    between atoms: C_5  and  N_7
REMARK    3  A    between atoms: N_7  and  S_8
REMARK    4  A    between atoms: S_8  and  C_11
REMARK    5  A    between atoms: C_21  and  N_27
REMARK    6  A    between atoms: C_22  and  C_25
REMARK                            x       y       z     vdW  Elec       q    Type
REMARK                         _______ _______ _______ _____ _____    ______ ____
ROOT
ATOM      1  C   UNL     1       0.914   1.425  -1.402  0.00  0.00    +0.002 A 
ATOM      2  C   UNL     1       2.179   1.966  -1.263  0.00  0.00    +0.002 A 
ATOM      3  C   UNL     1       3.209   1.202  -0.748  0.00  0.00    +0.030 A 
ATOM      4  C   UNL     1       2.975  -0.111  -0.368  0.00  0.00    +0.090 A 
ATOM      5  C   UNL     1       1.700  -0.657  -0.508  0.00  0.00    +0.073 A 
ATOM      6  C   UNL     1       0.672   0.118  -1.026  0.00  0.00    +0.026 A 
ENDROOT
BRANCH   4   7
ATOM      7  N   UNL     1       4.020  -0.888   0.155  0.00  0.00    -0.216 N 
ATOM      8  C   UNL     1       4.878  -0.508   1.128  0.00  0.00    +0.137 A 
ATOM      9  C   UNL     1       5.749  -1.572   1.343  0.00  0.00    +0.111 A 
ATOM     10  C   UNL     1       5.371  -2.604   0.453  0.00  0.00    +0.155 A 
ATOM     11  N   UNL     1       4.346  -2.191  -0.239  0.00  0.00    -0.172 NA
BRANCH   8  12
ATOM     12  N   UNL     1       4.888   0.708   1.784  0.00  0.00    -0.342 N 
ATOM     13  H   UNL     1       4.182   1.353   1.621  0.00  0.00    +0.144 HD
ATOM     14  H   UNL     1       5.601   0.916   2.408  0.00  0.00    +0.144 HD
ENDBRANCH   8  12
BRANCH   9  15
ATOM     15  C   UNL     1       6.826  -1.614   2.287  0.00  0.00    +0.104 C 
ATOM     16  N   UNL     1       7.679  -1.647   3.036  0.00  0.00    -0.191 NA
ENDBRANCH   9  15
ENDBRANCH   4   7
BRANCH   5  17
ATOM     17  N   UNL     1       1.458  -1.980  -0.127  0.00  0.00    -0.214 N 
ATOM     18  H   UNL     1       1.914  -2.355   0.642  0.00  0.00    +0.174 HD
BRANCH  17  19
ATOM     19  S   UNL     1       0.392  -2.908  -0.991  0.00  0.00    +0.072 S 
ATOM     20  O   UNL     1       0.463  -4.219  -0.449  0.00  0.00    -0.150 OA
ATOM     21  O   UNL     1      -0.824  -2.175  -1.056  0.00  0.00    -0.150 OA
BRANCH  19  22
ATOM     22  C   UNL     1       1.006  -3.010  -2.639  0.00  0.00    +0.109 A 
ATOM     23  C   UNL     1       0.634  -2.065  -3.578  0.00  0.00    +0.032 A 
ATOM     24  C   UNL     1       1.116  -2.138  -4.868  0.00  0.00    +0.048 A 
ATOM     25  C   UNL     1       1.981  -3.166  -5.237  0.00  0.00    +0.124 A 
ATOM     26  C   UNL     1       2.341  -4.113  -4.287  0.00  0.00    -0.001 A 
ATOM     27  C   UNL     1       1.867  -4.032  -2.997  0.00  0.00    +0.036 A 
ATOM     28  C   UNL     1       3.258  -5.106  -4.975  0.00  0.00    +0.080 C 
ATOM     29  C   UNL     1       3.010  -4.789  -6.469  0.00  0.00    +0.234 C 
ATOM     30  O   UNL     1       2.576  -3.418  -6.435  0.00  0.00    -0.491 OA
ENDBRANCH  19  22
ENDBRANCH  17  19
ENDBRANCH   5  17
TORSDOF 6
