REMARK  Name = ZINC45921714
REMARK  3 active torsions:
REMARK  status: ('A' for Active; 'I' for Inactive)
REMARK    1  A    between atoms: C_13  and  C_15
REMARK    2  A    between atoms: C_24  and  S_27
REMARK    3  A    between atoms: S_27  and  C_28
REMARK                            x       y       z     vdW  Elec       q    Type
REMARK                         _______ _______ _______ _____ _____    ______ ____
ROOT
ATOM      1  C   UNL     1       0.187  -6.654   1.150  0.00  0.00    +0.078 C 
ATOM      2  C   UNL     1      -0.667  -6.218   2.343  0.00  0.00    +0.032 C 
ATOM      3  C   UNL     1      -1.993  -6.984   2.325  0.00  0.00    +0.107 C 
ATOM      4  N   UNL     1      -1.706  -8.425   2.282  0.00  0.00    -0.314 N 
ATOM      5  C   UNL     1      -0.821  -8.938   1.228  0.00  0.00    +0.107 C 
ATOM      6  C   UNL     1       0.492  -8.149   1.258  0.00  0.00    +0.032 C 
ATOM      7  C   UNL     1      -2.262  -9.288   3.225  0.00  0.00    +0.144 A 
ATOM      8  C   UNL     1      -3.108  -8.789   4.216  0.00  0.00    +0.048 A 
ATOM      9  C   UNL     1      -3.636  -9.684   5.129  0.00  0.00    +0.040 A 
ATOM     10  C   UNL     1      -3.289 -11.030   5.002  0.00  0.00    +0.124 A 
ATOM     11  N   UNL     1      -2.478 -11.412   4.028  0.00  0.00    -0.141 NA
ATOM     12  N   UNL     1      -1.992 -10.582   3.178  0.00  0.00    -0.133 NA
ENDROOT
BRANCH   1  25
ATOM     13  C   UNL     1       2.604   1.102  -1.179  0.00  0.00    +0.005 A 
ATOM     14  C   UNL     1       1.379   1.707  -1.427  0.00  0.00    +0.018 A 
ATOM     15  C   UNL     1       0.233   0.938  -1.423  0.00  0.00    +0.084 A 
ATOM     16  N   UNL     1       0.289  -0.359  -1.186  0.00  0.00    -0.350 N 
ATOM     17  C   UNL     1       1.437  -0.972  -0.945  0.00  0.00    +0.099 A 
ATOM     18  C   UNL     1       2.632  -0.259  -0.935  0.00  0.00    +0.042 A 
ATOM     19  N   UNL     1       1.450  -2.340  -0.700  0.00  0.00    -0.314 N 
ATOM     20  C   UNL     1       2.722  -3.063  -0.562  0.00  0.00    +0.125 C 
ATOM     21  C   UNL     1       2.724  -3.801   0.782  0.00  0.00    +0.126 C 
ATOM     22  N   UNL     1       1.466  -4.550   0.908  0.00  0.00    -0.298 N 
ATOM     23  C   UNL     1       0.194  -3.827   0.771  0.00  0.00    +0.126 C 
ATOM     24  C   UNL     1       0.192  -3.089  -0.569  0.00  0.00    +0.125 C 
ATOM     25  C   UNL     1       1.478  -5.877   1.146  0.00  0.00    +0.219 C 
ATOM     26  O   UNL     1       2.529  -6.445   1.356  0.00  0.00    -0.275 OA
ATOM     27  H   UNL     1      -0.532  -0.877  -1.188  0.00  0.00    +0.166 HD
ENDBRANCH   1  25
BRANCH  10  28
ATOM     28  S   UNL     1      -3.930 -12.218   6.135  0.00  0.00    -0.068 S 
BRANCH  28  29
ATOM     29  C   UNL     1      -3.119 -13.717   5.684  0.00  0.00    +0.014 A 
ATOM     30  C   UNL     1      -1.965 -14.111   6.350  0.00  0.00    +0.016 A 
ATOM     31  C   UNL     1      -1.332 -15.286   5.995  0.00  0.00    +0.021 A 
ATOM     32  C   UNL     1      -1.846 -16.070   4.977  0.00  0.00    +0.041 A 
ATOM     33  C   UNL     1      -2.995 -15.680   4.312  0.00  0.00    +0.021 A 
ATOM     34  C   UNL     1      -3.636 -14.509   4.667  0.00  0.00    +0.016 A 
ATOM     35 CL   UNL     1      -1.047 -17.546   4.533  0.00  0.00    -0.084 Cl
ENDBRANCH  28  29
ENDBRANCH  10  28
TORSDOF 3
