REMARK  Name = ZINC02852950
REMARK  15 active torsions:
REMARK  status: ('A' for Active; 'I' for Inactive)
REMARK    1  A    between atoms: C_1  and  C_2
REMARK    2  A    between atoms: C_2  and  N_3
REMARK    3  A    between atoms: C_4  and  C_23
REMARK    4  A    between atoms: C_7  and  S_8
REMARK    5  A    between atoms: S_8  and  C_9
REMARK    6  A    between atoms: C_9  and  C_10
REMARK    7  A    between atoms: N_12  and  C_13
REMARK    8  A    between atoms: C_15  and  N_20
REMARK    9  A    between atoms: C_18  and  C_19
REMARK   10  A    between atoms: C_23  and  O_24
REMARK   11  A    between atoms: O_24  and  C_25
REMARK   12  A    between atoms: C_28  and  C_34
REMARK   13  A    between atoms: C_30  and  O_31
REMARK   14  A    between atoms: O_31  and  C_32
REMARK   15  A    between atoms: C_32  and  C_33
REMARK                            x       y       z     vdW  Elec       q    Type
REMARK                         _______ _______ _______ _____ _____    ______ ____
ROOT
ATOM      1  N   UNL     1       4.490  -1.131   1.052  0.00  0.00    -0.303 N 
ATOM      2  C   UNL     1       3.731  -0.816  -0.041  0.00  0.00    +0.172 A 
ATOM      3  N   UNL     1       4.436  -1.100  -1.099  0.00  0.00    -0.130 NA
ATOM      4  N   UNL     1       5.585  -1.561  -0.753  0.00  0.00    -0.122 NA
ATOM      5  C   UNL     1       5.671  -1.605   0.557  0.00  0.00    +0.192 A 
ENDROOT
BRANCH   1   7
ATOM      6  C   UNL     1       3.444  -2.277   2.942  0.00  0.00    +0.027 C 
ATOM      7  C   UNL     1       4.115  -0.989   2.461  0.00  0.00    +0.122 C 
ENDBRANCH   1   7
BRANCH   5   8
ATOM      8  S   UNL     1       7.051  -2.168   1.497  0.00  0.00    -0.077 S 
BRANCH   8   9
ATOM      9  C   UNL     1       8.183  -2.616   0.158  0.00  0.00    +0.173 C 
BRANCH   9  10
ATOM     10  C   UNL     1       9.470  -3.140   0.741  0.00  0.00    +0.227 C 
ATOM     11  O   UNL     1       9.608  -3.204   1.944  0.00  0.00    -0.275 OA
ATOM     12  N   UNL     1      10.467  -3.537  -0.074  0.00  0.00    -0.285 N 
ATOM     13  H   UNL     1      10.328  -3.562  -1.034  0.00  0.00    +0.155 HD
BRANCH  12  14
ATOM     14  C   UNL     1      11.702  -3.914   0.464  0.00  0.00    +0.038 A 
ATOM     15  C   UNL     1      12.102  -3.423   1.701  0.00  0.00    +0.056 A 
ATOM     16  C   UNL     1      13.319  -3.800   2.231  0.00  0.00    +0.128 A 
ATOM     17  C   UNL     1      14.145  -4.659   1.528  0.00  0.00    +0.033 A 
ATOM     18  C   UNL     1      13.753  -5.146   0.295  0.00  0.00    +0.007 A 
ATOM     19  C   UNL     1      12.534  -4.776  -0.239  0.00  0.00    -0.029 A 
ATOM     20  C   UNL     1      12.106  -5.307  -1.583  0.00  0.00    +0.045 C 
BRANCH  16  21
ATOM     21  N   UNL     1      13.744  -3.281   3.550  0.00  0.00    +0.056 N 
ATOM     22  O   UNL     1      14.820  -3.610   4.016  0.00  0.00    -0.126 OA
ATOM     23  O   UNL     1      13.017  -2.525   4.170  0.00  0.00    -0.126 OA
ENDBRANCH  16  21
ENDBRANCH  12  14
ENDBRANCH   9  10
ENDBRANCH   8   9
ENDBRANCH   5   8
BRANCH   2  24
ATOM     24  C   UNL     1       2.333  -0.252  -0.024  0.00  0.00    +0.305 C 
BRANCH  24  25
ATOM     25  O   UNL     1       2.396   1.175  -0.011  0.00  0.00    -0.481 OA
BRANCH  25  26
ATOM     26  C   UNL     1       1.213   1.845   0.005  0.00  0.00    +0.163 A 
ATOM     27  C   UNL     1       0.018   1.144   0.008  0.00  0.00    +0.050 A 
ATOM     28  C   UNL     1      -1.184   1.827   0.018  0.00  0.00    +0.007 A 
ATOM     29  C   UNL     1      -1.197   3.209   0.037  0.00  0.00    -0.047 A 
ATOM     30  C   UNL     1      -0.009   3.915   0.035  0.00  0.00    +0.052 A 
ATOM     31  C   UNL     1       1.200   3.237   0.019  0.00  0.00    +0.162 A 
ATOM     32  C   UNL     1      -2.510   3.949   0.054  0.00  0.00    +0.044 C 
BRANCH  31  33
ATOM     33  O   UNL     1       2.370   3.930   0.017  0.00  0.00    -0.489 OA
BRANCH  33  34
ATOM     34  C   UNL     1       2.280   5.356   0.032  0.00  0.00    +0.226 C 
ATOM     35  C   UNL     1       3.687   5.956   0.028  0.00  0.00    +0.048 C 
ENDBRANCH  33  34
ENDBRANCH  31  33
ENDBRANCH  25  26
ENDBRANCH  24  25
ENDBRANCH   2  24
TORSDOF 11
