REMARK  Name = ZINC01136135
REMARK  9 active torsions:
REMARK  status: ('A' for Active; 'I' for Inactive)
REMARK    1  A    between atoms: C_3  and  O_21
REMARK    2  A    between atoms: C_6  and  C_7
REMARK    3  A    between atoms: C_7  and  O_8
REMARK    4  A    between atoms: O_8  and  C_9
REMARK    5  A    between atoms: C_9  and  C_11
REMARK    6  A    between atoms: C_11  and  N_12
REMARK    7  A    between atoms: C_13  and  C_15
REMARK    8  A    between atoms: O_21  and  C_22
REMARK    9  A    between atoms: C_25  and  N_28
REMARK                            x       y       z     vdW  Elec       q    Type
REMARK                         _______ _______ _______ _____ _____    ______ ____
ROOT
ATOM      1  C   UNL     1       3.727  -4.665  -0.378  0.00  0.00    +0.010 A 
ATOM      2  C   UNL     1       2.502  -4.039  -0.256  0.00  0.00    +0.046 A 
ATOM      3  C   UNL     1       2.439  -2.658  -0.140  0.00  0.00    +0.128 A 
ATOM      4  C   UNL     1       3.607  -1.909  -0.151  0.00  0.00    +0.046 A 
ATOM      5  C   UNL     1       4.830  -2.540  -0.268  0.00  0.00    +0.010 A 
ATOM      6  C   UNL     1       4.890  -3.917  -0.384  0.00  0.00    -0.010 A 
ENDROOT
BRANCH   6   7
ATOM      7  C   UNL     1       6.225  -4.603  -0.516  0.00  0.00    +0.267 C 
BRANCH   7   8
ATOM      8  O   UNL     1       6.576  -4.713  -1.921  0.00  0.00    -0.459 OA
BRANCH   8   9
ATOM      9  C   UNL     1       7.745  -5.304  -2.213  0.00  0.00    +0.325 C 
ATOM     10  O   UNL     1       8.451  -5.717  -1.324  0.00  0.00    -0.249 OA
BRANCH   9  11
ATOM     11  C   UNL     1       8.175  -5.454  -3.650  0.00  0.00    +0.225 C 
BRANCH  11  12
ATOM     12  N   UNL     1       9.476  -6.126  -3.702  0.00  0.00    -0.298 N 
ATOM     13  C   UNL     1      10.062  -6.369  -4.891  0.00  0.00    +0.280 C 
ATOM     14  O   UNL     1       9.510  -6.029  -5.922  0.00  0.00    -0.267 OA
ATOM     15  H   UNL     1       9.915  -6.396  -2.881  0.00  0.00    +0.150 HD
BRANCH  13  16
ATOM     16  C   UNL     1      11.363  -7.041  -4.944  0.00  0.00    +0.191 A 
ATOM     17  C   UNL     1      12.063  -7.346  -6.076  0.00  0.00    +0.056 A 
ATOM     18  C   UNL     1      13.244  -7.981  -5.661  0.00  0.00    +0.058 A 
ATOM     19  C   UNL     1      13.214  -8.034  -4.310  0.00  0.00    +0.171 A 
ATOM     20  O   UNL     1      12.081  -7.462  -3.881  0.00  0.00    -0.444 OA
ATOM     21 BR   UNL     1      14.554  -8.787  -3.207  0.00  0.00    -0.008 Br
ENDBRANCH  13  16
ENDBRANCH  11  12
ENDBRANCH   9  11
ENDBRANCH   8   9
ENDBRANCH   7   8
ENDBRANCH   6   7
BRANCH   3  22
ATOM     22  O   UNL     1       1.235  -2.039  -0.020  0.00  0.00    -0.456 OA
BRANCH  22  23
ATOM     23  C   UNL     1       1.211  -0.680  -0.037  0.00  0.00    +0.129 A 
ATOM     24  C   UNL     1       1.540   0.007  -1.196  0.00  0.00    +0.048 A 
ATOM     25  C   UNL     1       1.515   1.388  -1.210  0.00  0.00    +0.036 A 
ATOM     26  C   UNL     1       1.162   2.086  -0.070  0.00  0.00    +0.126 A 
ATOM     27  C   UNL     1       0.834   1.403   1.087  0.00  0.00    +0.036 A 
ATOM     28  C   UNL     1       0.858   0.022   1.107  0.00  0.00    +0.048 A 
BRANCH  26  29
ATOM     29  N   UNL     1       1.136   3.565  -0.088  0.00  0.00    +0.056 N 
ATOM     30  O   UNL     1       1.425   4.167  -1.107  0.00  0.00    -0.126 OA
ATOM     31  O   UNL     1       0.826   4.181   0.916  0.00  0.00    -0.126 OA
ENDBRANCH  26  29
ENDBRANCH  22  23
ENDBRANCH   3  22
TORSDOF 9
