REMARK  Name = ZINC17720195
REMARK  9 active torsions:
REMARK  status: ('A' for Active; 'I' for Inactive)
REMARK    1  A    between atoms: C_1  and  C_2
REMARK    2  A    between atoms: C_5  and  C_8
REMARK    3  A    between atoms: C_11  and  C_13
REMARK    4  A    between atoms: C_13  and  C_15
REMARK    5  A    between atoms: C_13  and  S_16
REMARK    6  A    between atoms: S_16  and  C_17
REMARK    7  A    between atoms: C_20  and  C_29
REMARK    8  A    between atoms: N_21  and  C_22
REMARK    9  A    between atoms: C_29  and  N_61
REMARK                            x       y       z     vdW  Elec       q    Type
REMARK                         _______ _______ _______ _____ _____    ______ ____
ROOT
ATOM      1  C   UNL     1       1.708   2.135  -0.003  0.00  0.00    +0.197 A 
ATOM      2  N   UNL     1       2.673   1.244  -0.017  0.00  0.00    -0.122 NA
ATOM      3  N   UNL     1       3.814   1.835  -0.025  0.00  0.00    -0.135 NA
ATOM      4  C   UNL     1       3.650   3.128  -0.017  0.00  0.00    +0.122 A 
ATOM      5  N   UNL     1       2.302   3.368  -0.007  0.00  0.00    -0.276 N 
ENDROOT
BRANCH   5   6
ATOM      6  C   UNL     1       1.663   4.617  -0.001  0.00  0.00    +0.050 A 
ATOM      7  C   UNL     1       1.793   5.469  -1.089  0.00  0.00    +0.029 A 
ATOM      8  C   UNL     1       1.159   6.696  -1.083  0.00  0.00    +0.040 A 
ATOM      9  C   UNL     1       0.403   7.081   0.011  0.00  0.00    +0.124 A 
ATOM     10  C   UNL     1       0.276   6.234   1.099  0.00  0.00    +0.040 A 
ATOM     11  C   UNL     1       0.904   5.004   1.095  0.00  0.00    +0.029 A 
ATOM     12  F   UNL     1      -0.212   8.284   0.017  0.00  0.00    -0.205 F 
ENDBRANCH   5   6
BRANCH   1  13
ATOM     13  S   UNL     1      -0.022   1.806   0.012  0.00  0.00    -0.073 S 
BRANCH  13  14
ATOM     14  C   UNL     1       0.002  -0.004   0.002  0.00  0.00    +0.139 C 
ATOM     15  C   UNL     1       0.631  -0.513   1.301  0.00  0.00    +0.029 C 
BRANCH  14  19
ATOM     16  C   UNL     1      -3.148  -1.652  -0.699  0.00  0.00    +0.248 A 
ATOM     17  N   UNL     1      -3.485  -0.768   0.211  0.00  0.00    -0.107 NA
ATOM     18  N   UNL     1      -2.441  -0.102   0.562  0.00  0.00    -0.111 NA
ATOM     19  C   UNL     1      -1.407  -0.525  -0.111  0.00  0.00    +0.231 A 
ATOM     20  O   UNL     1      -1.825  -1.514  -0.920  0.00  0.00    -0.419 OA
BRANCH  16  25
ATOM     21  C   UNL     1      -6.665  -5.413  -3.268  0.00  0.00    +0.044 C 
ATOM     22  C   UNL     1      -5.744  -4.428  -2.595  0.00  0.00    -0.050 A 
ATOM     23  C   UNL     1      -6.245  -3.552  -1.648  0.00  0.00    +0.004 A 
ATOM     24  C   UNL     1      -5.407  -2.648  -1.029  0.00  0.00    +0.013 A 
ATOM     25  C   UNL     1      -4.052  -2.618  -1.359  0.00  0.00    +0.038 A 
ATOM     26  C   UNL     1      -3.554  -3.500  -2.318  0.00  0.00    +0.013 A 
ATOM     27  C   UNL     1      -4.401  -4.404  -2.926  0.00  0.00    +0.004 A 
ENDBRANCH  16  25
ENDBRANCH  14  19
ENDBRANCH  13  14
ENDBRANCH   1  13
BRANCH   4  28
ATOM     28  C   UNL     1       4.742   4.167  -0.022  0.00  0.00    -0.001 C 
BRANCH  28  34
ATOM     29  C   UNL     1       5.682   3.365  -2.103  0.00  0.00    -0.078 C 
ATOM     30  C   UNL     1       5.890   3.713  -3.579  0.00  0.00    -0.019 C 
ATOM     31  C   UNL     1       6.808   4.934  -3.686  0.00  0.00    -0.004 C 
ATOM     32  C   UNL     1       6.185   6.100  -2.913  0.00  0.00    -0.019 C 
ATOM     33  C   UNL     1       5.968   5.683  -1.457  0.00  0.00    -0.078 C 
ATOM     34  N   UNL     1       5.058   4.519  -1.421  0.00  0.00    +0.384 N 
ATOM     35  H   UNL     1       4.187   4.762  -1.908  0.00  0.00    -0.081 HD
ENDBRANCH  28  34
ENDBRANCH   4  28
TORSDOF 7
