REMARK  Name = ZINC03628230
REMARK  11 active torsions:
REMARK  status: ('A' for Active; 'I' for Inactive)
REMARK    1  A    between atoms: N_7  and  C_15
REMARK    2  A    between atoms: C_15  and  C_16
REMARK    3  A    between atoms: C_16  and  C_18
REMARK    4  A    between atoms: C_16  and  O_26
REMARK    5  A    between atoms: C_18  and  N_19
REMARK    6  A    between atoms: N_19  and  C_20
REMARK    7  A    between atoms: N_19  and  C_23
REMARK    8  A    between atoms: C_20  and  C_21
REMARK    9  A    between atoms: C_21  and  O_22
REMARK   10  A    between atoms: C_23  and  C_24
REMARK   11  A    between atoms: C_24  and  O_25
REMARK                            x       y       z     vdW  Elec       q    Type
REMARK                         _______ _______ _______ _____ _____    ______ ____
ROOT
ATOM      1  C   UNL     1       0.653  -2.856  -0.929  0.00  0.00    +0.140 C 
ENDROOT
BRANCH   1   8
ATOM      2  C   UNL     1       0.476   1.296   0.054  0.00  0.00    +0.002 A 
ATOM      3  C   UNL     1       1.646   2.023  -0.057  0.00  0.00    +0.001 A 
ATOM      4  C   UNL     1       2.855   1.370  -0.232  0.00  0.00    +0.017 A 
ATOM      5  C   UNL     1       2.885  -0.010  -0.296  0.00  0.00    +0.034 A 
ATOM      6  C   UNL     1       1.705  -0.750  -0.185  0.00  0.00    +0.048 A 
ATOM      7  C   UNL     1       0.501  -0.086  -0.010  0.00  0.00    +0.024 A 
ATOM      8  N   UNL     1       1.738  -2.147  -0.246  0.00  0.00    -0.296 N 
ATOM      9  C   UNL     1       2.779  -2.887   0.326  0.00  0.00    +0.048 A 
ATOM     10  C   UNL     1       2.515  -4.098   0.949  0.00  0.00    +0.024 A 
ATOM     11  C   UNL     1       3.549  -4.824   1.514  0.00  0.00    +0.002 A 
ATOM     12  C   UNL     1       4.846  -4.351   1.463  0.00  0.00    +0.001 A 
ATOM     13  C   UNL     1       5.121  -3.143   0.843  0.00  0.00    +0.017 A 
ATOM     14  C   UNL     1       4.092  -2.414   0.278  0.00  0.00    +0.034 A 
ATOM     15  S   UNL     1       4.410  -0.871  -0.519  0.00  0.00    -0.086 S 
ENDBRANCH   1   8
BRANCH   1  16
ATOM     16  C   UNL     1       1.009  -3.030  -2.407  0.00  0.00    +0.116 C 
BRANCH  16  17
ATOM     17  O   UNL     1       1.192  -1.746  -3.008  0.00  0.00    -0.392 OA
ATOM     18  H   UNL     1       0.436  -1.152  -2.903  0.00  0.00    +0.210 HD
ENDBRANCH  16  17
BRANCH  16  19
ATOM     19  C   UNL     1      -0.125  -3.770  -3.120  0.00  0.00    -0.045 C 
BRANCH  19  20
ATOM     20  N   UNL     1       0.219  -3.942  -4.538  0.00  0.00    +0.384 N 
ATOM     21  H   UNL     1       0.445  -3.045  -4.941  0.00  0.00    -0.082 HD
BRANCH  20  22
ATOM     22  C   UNL     1       1.377  -4.838  -4.656  0.00  0.00    -0.050 C 
BRANCH  22  23
ATOM     23  C   UNL     1       1.812  -4.919  -6.121  0.00  0.00    +0.137 C 
BRANCH  23  24
ATOM     24  O   UNL     1       2.279  -3.639  -6.550  0.00  0.00    -0.397 OA
ATOM     25  H   UNL     1       2.572  -3.615  -7.471  0.00  0.00    +0.209 HD
ENDBRANCH  23  24
ENDBRANCH  22  23
ENDBRANCH  20  22
BRANCH  20  26
ATOM     26  C   UNL     1      -0.926  -4.524  -5.252  0.00  0.00    -0.050 C 
BRANCH  26  27
ATOM     27  C   UNL     1      -2.085  -3.526  -5.256  0.00  0.00    +0.137 C 
BRANCH  27  28
ATOM     28  O   UNL     1      -1.706  -2.357  -5.986  0.00  0.00    -0.397 OA
ATOM     29  H   UNL     1      -2.394  -1.680  -6.030  0.00  0.00    +0.209 HD
ENDBRANCH  27  28
ENDBRANCH  26  27
ENDBRANCH  20  26
ENDBRANCH  19  20
ENDBRANCH  16  19
ENDBRANCH   1  16
TORSDOF 11
