REMARK  Name = ZINC10152078
REMARK  7 active torsions:
REMARK  status: ('A' for Active; 'I' for Inactive)
REMARK    1  A    between atoms: C_4  and  C_7
REMARK    2  A    between atoms: C_7  and  C_9
REMARK    3  A    between atoms: C_11  and  N_32
REMARK    4  A    between atoms: C_14  and  N_15
REMARK    5  A    between atoms: C_16  and  C_18
REMARK    6  A    between atoms: C_18  and  C_19
REMARK    7  A    between atoms: C_18  and  C_25
REMARK                            x       y       z     vdW  Elec       q    Type
REMARK                         _______ _______ _______ _____ _____    ______ ____
ROOT
ATOM      1  N   UNL     1      -5.151   4.202   0.713  0.00  0.00    -0.283 N 
ATOM      2  C   UNL     1      -5.283   5.543   0.670  0.00  0.00    +0.243 C 
ATOM      3  O   UNL     1      -4.381   6.227   0.236  0.00  0.00    -0.273 OA
ATOM      4  H   UNL     1      -5.897   3.650   0.996  0.00  0.00    +0.155 HD
ENDROOT
BRANCH   1  10
ATOM      5  C   UNL     1      -3.582   2.363   0.886  0.00  0.00    +0.046 A 
ATOM      6  C   UNL     1      -2.367   1.779   0.514  0.00  0.00    +0.046 A 
ATOM      7  C   UNL     1      -1.536   2.428  -0.373  0.00  0.00    +0.127 A 
ATOM      8  C   UNL     1      -1.895   3.661  -0.895  0.00  0.00    +0.034 A 
ATOM      9  C   UNL     1      -3.094   4.247  -0.542  0.00  0.00    +0.026 A 
ATOM     10  C   UNL     1      -3.944   3.609   0.350  0.00  0.00    +0.044 A 
BRANCH   7  11
ATOM     11  N   UNL     1      -0.251   1.808  -0.765  0.00  0.00    +0.056 N 
ATOM     12  O   UNL     1       0.070   0.728  -0.304  0.00  0.00    -0.126 OA
ATOM     13  O   UNL     1       0.484   2.377  -1.553  0.00  0.00    -0.126 OA
ENDBRANCH   7  11
BRANCH   5  14
ATOM     14  C   UNL     1      -4.476   1.675   1.834  0.00  0.00    +0.195 C 
ATOM     15  O   UNL     1      -5.109   0.701   1.475  0.00  0.00    -0.287 OA
BRANCH  14  19
ATOM     16  C   UNL     1      -4.841   3.093   5.821  0.00  0.00    +0.000 A 
ATOM     17  C   UNL     1      -5.484   1.927   5.443  0.00  0.00    +0.001 A 
ATOM     18  C   UNL     1      -5.370   1.461   4.150  0.00  0.00    +0.012 A 
ATOM     19  C   UNL     1      -4.603   2.168   3.221  0.00  0.00    +0.022 A 
ATOM     20  C   UNL     1      -3.951   3.340   3.611  0.00  0.00    +0.012 A 
ATOM     21  C   UNL     1      -4.079   3.798   4.906  0.00  0.00    +0.001 A 
ENDBRANCH  14  19
ENDBRANCH   5  14
ENDBRANCH   1  10
BRANCH   2  22
ATOM     22  C   UNL     1      -6.551   6.191   1.162  0.00  0.00    +0.152 C 
ATOM     23 BR   UNL     1      -6.821   5.747   3.058  0.00  0.00    -0.064 Br
BRANCH  22  24
ATOM     24  C   UNL     1      -6.444   7.686   1.007  0.00  0.00    -0.018 A 
ATOM     25  C   UNL     1      -5.970   8.226  -0.175  0.00  0.00    +0.006 A 
ATOM     26  C   UNL     1      -5.877   9.598  -0.319  0.00  0.00    +0.000 A 
ATOM     27  C   UNL     1      -6.247  10.429   0.721  0.00  0.00    +0.000 A 
ATOM     28  C   UNL     1      -6.715   9.889   1.905  0.00  0.00    +0.000 A 
ATOM     29  C   UNL     1      -6.814   8.518   2.047  0.00  0.00    +0.006 A 
ENDBRANCH  22  24
BRANCH  22  30
ATOM     30  C   UNL     1      -7.720   5.685   0.356  0.00  0.00    -0.018 A 
ATOM     31  C   UNL     1      -8.328   6.509  -0.572  0.00  0.00    +0.006 A 
ATOM     32  C   UNL     1      -9.396   6.043  -1.315  0.00  0.00    +0.000 A 
ATOM     33  C   UNL     1      -9.863   4.756  -1.121  0.00  0.00    +0.000 A 
ATOM     34  C   UNL     1      -9.259   3.934  -0.189  0.00  0.00    +0.000 A 
ATOM     35  C   UNL     1      -8.187   4.398   0.550  0.00  0.00    +0.006 A 
ENDBRANCH  22  30
ENDBRANCH   2  22
TORSDOF 7
