REMARK  Name = ZINC25781972
REMARK  8 active torsions:
REMARK  status: ('A' for Active; 'I' for Inactive)
REMARK    1  A    between atoms: C_1  and  O_2
REMARK    2  A    between atoms: O_2  and  C_3
REMARK    3  A    between atoms: C_3  and  C_5
REMARK    4  A    between atoms: C_6  and  N_33
REMARK    5  A    between atoms: N_7  and  C_23
REMARK    6  A    between atoms: C_10  and  C_12
REMARK    7  A    between atoms: C_26  and  S_29
REMARK    8  A    between atoms: S_29  and  N_32
REMARK                            x       y       z     vdW  Elec       q    Type
REMARK                         _______ _______ _______ _____ _____    ______ ____
ROOT
ATOM      1  C   UNL     1       2.414   0.278   0.207  0.00  0.00    +0.084 C 
ATOM      2  C   UNL     1       2.129   1.577  -0.086  0.00  0.00    +0.103 C 
ATOM      3  N   UNL     1       0.825   1.972  -0.266  0.00  0.00    -0.261 N 
ATOM      4  C   UNL     1      -0.149   1.051  -0.551  0.00  0.00    +0.024 C 
ATOM      5  C   UNL     1       0.041  -0.258  -0.285  0.00  0.00    +0.025 C 
ATOM      6  C   UNL     1       1.322  -0.742   0.346  0.00  0.00    +0.095 C 
ATOM      7  C   UNL     1      -0.947  -1.211  -0.591  0.00  0.00    +0.162 C 
ATOM      8  O   UNL     1      -0.746  -2.381  -0.331  0.00  0.00    -0.292 OA
ATOM      9  C   UNL     1      -2.246  -0.810  -1.233  0.00  0.00    +0.080 C 
ATOM     10  C   UNL     1      -2.020   0.453  -2.072  0.00  0.00    +0.014 C 
ATOM     11  C   UNL     1      -1.440   1.540  -1.163  0.00  0.00    +0.052 C 
ENDROOT
BRANCH   6  12
ATOM     12  C   UNL     1       1.081  -1.011   1.809  0.00  0.00    -0.017 A 
ATOM     13  C   UNL     1       1.280  -2.280   2.331  0.00  0.00    +0.007 A 
ATOM     14  C   UNL     1       1.046  -2.482   3.682  0.00  0.00    +0.020 A 
ATOM     15  C   UNL     1       0.625  -1.419   4.459  0.00  0.00    +0.111 A 
ATOM     16  N   UNL     1       0.446  -0.225   3.928  0.00  0.00    -0.263 NA
ATOM     17  C   UNL     1       0.665   0.004   2.648  0.00  0.00    +0.115 A 
ENDBRANCH   6  12
BRANCH   3  18
ATOM     18  C   UNL     1       0.490   3.327  -0.159  0.00  0.00    +0.040 A 
ATOM     19  C   UNL     1       0.075   3.847   1.061  0.00  0.00    +0.026 A 
ATOM     20  C   UNL     1      -0.249   5.185   1.165  0.00  0.00    +0.030 A 
ATOM     21  C   UNL     1      -0.172   6.005   0.054  0.00  0.00    +0.105 A 
ATOM     22  C   UNL     1       0.234   5.490  -1.163  0.00  0.00    +0.030 A 
ATOM     23  C   UNL     1       0.566   4.153  -1.272  0.00  0.00    +0.026 A 
BRANCH  21  24
ATOM     24  S   UNL     1      -0.595   7.710   0.190  0.00  0.00    +0.056 S 
ATOM     25  O   UNL     1      -0.419   8.065   1.555  0.00  0.00    -0.153 OA
ATOM     26  O   UNL     1       0.082   8.381  -0.864  0.00  0.00    -0.153 OA
BRANCH  24  27
ATOM     27  N   UNL     1      -2.214   7.841  -0.129  0.00  0.00    -0.204 NA
ATOM     28  H   UNL     1      -2.519   8.895  -0.054  0.00  0.00    +0.144 HD
ATOM     29  H   UNL     1      -2.781   7.243   0.601  0.00  0.00    +0.144 HD
ENDBRANCH  24  27
ENDBRANCH  21  24
ENDBRANCH   3  18
BRANCH   2  30
ATOM     30  N   UNL     1       3.144   2.491  -0.202  0.00  0.00    -0.346 N 
ATOM     31  H   UNL     1       2.915   3.540  -0.438  0.00  0.00    +0.143 HD
ATOM     32  H   UNL     1       4.188   2.175  -0.058  0.00  0.00    +0.143 HD
ENDBRANCH   2  30
BRANCH   1  33
ATOM     33  C   UNL     1       3.749  -0.113   0.381  0.00  0.00    +0.339 C 
ATOM     34  O   UNL     1       4.636   0.723   0.364  0.00  0.00    -0.245 OA
BRANCH  33  36
ATOM     35  C   UNL     1       5.434  -1.742   0.738  0.00  0.00    +0.280 C 
ATOM     36  O   UNL     1       4.053  -1.416   0.568  0.00  0.00    -0.465 OA
ENDBRANCH  33  36
ENDBRANCH   1  33
TORSDOF 7
