REMARK  Name = ZINC41511476
REMARK  12 active torsions:
REMARK  status: ('A' for Active; 'I' for Inactive)
REMARK    1  A    between atoms: C_1  and  C_2
REMARK    2  A    between atoms: C_4  and  O_34
REMARK    3  A    between atoms: C_5  and  C_25
REMARK    4  A    between atoms: C_11  and  C_12
REMARK    5  A    between atoms: C_15  and  O_22
REMARK    6  A    between atoms: C_16  and  O_20
REMARK    7  A    between atoms: C_17  and  O_18
REMARK    8  A    between atoms: O_18  and  C_19
REMARK    9  A    between atoms: O_20  and  C_21
REMARK   10  A    between atoms: O_22  and  C_23
REMARK   11  A    between atoms: C_25  and  N_26
REMARK   12  A    between atoms: C_31  and  C_33
REMARK                            x       y       z     vdW  Elec       q    Type
REMARK                         _______ _______ _______ _____ _____    ______ ____
ROOT
ATOM      1  C   UNL     1      -0.666   1.600   0.135  0.00  0.00    +0.045 C 
ATOM      2  C   UNL     1      -0.766   0.096   0.113  0.00  0.00    -0.033 A 
ATOM      3  C   UNL     1      -1.042  -0.555  -1.057  0.00  0.00    +0.050 A 
ATOM      4  C   UNL     1      -1.134  -1.944  -1.079  0.00  0.00    +0.122 A 
ATOM      5  C   UNL     1      -0.949  -2.681   0.079  0.00  0.00    +0.020 A 
ATOM      6  C   UNL     1      -0.668  -2.035   1.277  0.00  0.00    +0.145 A 
ATOM      7  C   UNL     1      -0.572  -0.634   1.286  0.00  0.00    +0.071 A 
ATOM      8  C   UNL     1      -0.263  -0.248   2.675  0.00  0.00    +0.232 C 
ATOM      9  O   UNL     1      -0.101   0.876   3.118  0.00  0.00    -0.283 OA
ATOM     10  C   UNL     1      -0.193  -1.520   3.404  0.00  0.00    +0.176 C 
ATOM     11  C   UNL     1       0.068  -1.672   4.729  0.00  0.00    +0.062 C 
ATOM     12  O   UNL     1      -0.449  -2.514   2.520  0.00  0.00    -0.451 OA
ENDROOT
BRANCH  11  13
ATOM     13  C   UNL     1      -0.018  -2.998   5.346  0.00  0.00    +0.024 A 
ATOM     14  C   UNL     1      -0.009  -4.149   4.545  0.00  0.00    +0.015 A 
ATOM     15  C   UNL     1      -0.090  -5.393   5.127  0.00  0.00    +0.050 A 
ATOM     16  C   UNL     1      -0.181  -5.516   6.510  0.00  0.00    +0.165 A 
ATOM     17  C   UNL     1      -0.191  -4.383   7.316  0.00  0.00    +0.204 A 
ATOM     18  C   UNL     1      -0.104  -3.123   6.743  0.00  0.00    +0.172 A 
BRANCH  18  19
ATOM     19  O   UNL     1      -0.108  -2.015   7.528  0.00  0.00    -0.491 OA
ATOM     20  C   UNL     1      -1.380  -1.438   7.829  0.00  0.00    +0.277 C 
ENDBRANCH  18  19
BRANCH  17  21
ATOM     21  O   UNL     1      -0.281  -4.511   8.668  0.00  0.00    -0.488 OA
ATOM     22  C   UNL     1       0.947  -4.618   9.393  0.00  0.00    +0.277 C 
ENDBRANCH  17  21
BRANCH  16  23
ATOM     23  O   UNL     1      -0.261  -6.749   7.074  0.00  0.00    -0.491 OA
ATOM     24  C   UNL     1      -0.246  -7.870   6.189  0.00  0.00    +0.277 C 
ENDBRANCH  16  23
ENDBRANCH  11  13
BRANCH   4  25
ATOM     25  O   UNL     1      -1.408  -2.581  -2.246  0.00  0.00    -0.506 OA
ATOM     26  H   UNL     1      -0.623  -2.820  -2.757  0.00  0.00    +0.292 HD
ENDBRANCH   4  25
BRANCH   5  27
ATOM     27  C   UNL     1      -1.052  -4.184   0.040  0.00  0.00    -0.035 C 
BRANCH  27  28
ATOM     28  N   UNL     1       0.270  -4.759  -0.244  0.00  0.00    +0.384 N 
ATOM     29  C   UNL     1       0.698  -4.356  -1.589  0.00  0.00    -0.078 C 
ATOM     30  C   UNL     1       2.108  -4.884  -1.859  0.00  0.00    -0.019 C 
ATOM     31  C   UNL     1       2.102  -6.412  -1.761  0.00  0.00    -0.003 C 
ATOM     32  C   UNL     1       1.583  -6.823  -0.379  0.00  0.00    -0.016 C 
ATOM     33  C   UNL     1       0.193  -6.222  -0.164  0.00  0.00    -0.071 C 
ATOM     34  C   UNL     1      -0.330  -6.630   1.215  0.00  0.00    -0.013 C 
ATOM     35  H   UNL     1       0.935  -4.420   0.434  0.00  0.00    -0.081 HD
ENDBRANCH  27  28
ENDBRANCH   5  27
TORSDOF 7
