REMARK  Name = ZINC13915976
REMARK  12 active torsions:
REMARK  status: ('A' for Active; 'I' for Inactive)
REMARK    1  A    between atoms: C_1  and  C_2
REMARK    2  A    between atoms: C_4  and  C_36
REMARK    3  A    between atoms: C_5  and  C_17
REMARK    4  A    between atoms: C_7  and  C_8
REMARK    5  A    between atoms: C_8  and  O_9
REMARK    6  A    between atoms: O_9  and  C_10
REMARK    7  A    between atoms: C_22  and  C_26
REMARK    8  A    between atoms: C_22  and  C_27
REMARK    9  A    between atoms: C_29  and  C_35
REMARK   10  A    between atoms: C_30  and  C_31
REMARK   11  A    between atoms: C_31  and  O_33
REMARK   12  A    between atoms: O_33  and  C_34
REMARK                            x       y       z     vdW  Elec       q    Type
REMARK                         _______ _______ _______ _____ _____    ______ ____
ROOT
ATOM      1  C   UNL     1       0.025  -2.750  -0.166  0.00  0.00    +0.092 C 
ATOM      2  C   UNL     1      -0.149  -4.200  -0.539  0.00  0.00    +0.024 C 
ATOM      3  C   UNL     1      -1.361  -4.791  -0.465  0.00  0.00    +0.016 C 
ATOM      4  C   UNL     1      -1.543  -6.241  -0.839  0.00  0.00    +0.058 C 
ATOM      5  C   UNL     1      -0.257  -7.015  -0.541  0.00  0.00    -0.023 C 
ATOM      6  C   UNL     1       0.889  -6.374  -1.331  0.00  0.00    +0.086 C 
ATOM      7  C   UNL     1       0.983  -4.918  -0.963  0.00  0.00    +0.162 C 
ATOM      8  O   UNL     1       2.056  -4.353  -1.033  0.00  0.00    -0.292 OA
ATOM      9  C   UNL     1       0.049  -6.946   0.957  0.00  0.00    +0.011 C 
ATOM     10  C   UNL     1      -0.426  -8.475  -0.965  0.00  0.00    +0.011 C 
ATOM     11  N   UNL     1      -2.455  -4.081  -0.051  0.00  0.00    -0.321 N 
ATOM     12  C   UNL     1      -2.454  -2.714  -0.083  0.00  0.00    +0.016 C 
ATOM     13  C   UNL     1      -1.295  -2.036  -0.148  0.00  0.00    +0.065 C 
ATOM     14  C   UNL     1      -3.760  -1.963  -0.052  0.00  0.00    +0.061 C 
ATOM     15  H   UNL     1      -3.349  -4.609   0.313  0.00  0.00    +0.152 HD
ENDROOT
BRANCH   1  20
ATOM     16  C   UNL     1       2.431  -2.420   5.078  0.00  0.00    +0.044 C 
ATOM     17  C   UNL     1       1.804  -2.506   3.710  0.00  0.00    -0.044 A 
ATOM     18  C   UNL     1       2.450  -1.959   2.618  0.00  0.00    +0.007 A 
ATOM     19  C   UNL     1       1.877  -2.042   1.363  0.00  0.00    -0.046 A 
ATOM     20  C   UNL     1       0.652  -2.664   1.202  0.00  0.00    -0.032 A 
ATOM     21  C   UNL     1       0.007  -3.211   2.294  0.00  0.00    +0.012 A 
ATOM     22  C   UNL     1       0.583  -3.133   3.549  0.00  0.00    -0.007 A 
ATOM     23  C   UNL     1       2.584  -1.451   0.170  0.00  0.00    +0.044 C 
BRANCH  22  24
ATOM     24  C   UNL     1      -0.122  -3.730   4.740  0.00  0.00    +0.264 C 
BRANCH  24  25
ATOM     25  O   UNL     1      -1.356  -4.315   4.319  0.00  0.00    -0.486 OA
BRANCH  25  26
ATOM     26  C   UNL     1      -2.119  -4.901   5.279  0.00  0.00    +0.139 A 
ATOM     27  C   UNL     1      -1.687  -4.918   6.597  0.00  0.00    +0.047 A 
ATOM     28  C   UNL     1      -2.467  -5.509   7.572  0.00  0.00    +0.004 A 
ATOM     29  C   UNL     1      -3.673  -6.095   7.233  0.00  0.00    +0.002 A 
ATOM     30  C   UNL     1      -4.105  -6.085   5.920  0.00  0.00    +0.023 A 
ATOM     31  C   UNL     1      -3.330  -5.489   4.941  0.00  0.00    +0.083 A 
ATOM     32 CL   UNL     1      -3.872  -5.478   3.292  0.00  0.00    -0.080 Cl
ENDBRANCH  25  26
ENDBRANCH  24  25
ENDBRANCH  22  24
ENDBRANCH   1  20
BRANCH  13  33
ATOM     33  C   UNL     1      -1.320  -0.623  -0.194  0.00  0.00    +0.337 C 
ATOM     34  O   UNL     1      -2.382  -0.035  -0.277  0.00  0.00    -0.245 OA
BRANCH  33  35
ATOM     35  O   UNL     1      -0.165   0.075  -0.145  0.00  0.00    -0.465 OA
ATOM     36  C   UNL     1      -0.265   1.499  -0.196  0.00  0.00    +0.280 C 
ENDBRANCH  33  35
ENDBRANCH  13  33
TORSDOF 6
