REMARK  Name = ZINC09789683
REMARK  7 active torsions:
REMARK  status: ('A' for Active; 'I' for Inactive)
REMARK    1  A    between atoms: C_6  and  S_11
REMARK    2  A    between atoms: S_11  and  N_14
REMARK    3  A    between atoms: C_17  and  C_20
REMARK    4  A    between atoms: N_22  and  C_23
REMARK    5  A    between atoms: C_23  and  C_24
REMARK    6  A    between atoms: C_24  and  C_26
REMARK    7  A    between atoms: C_24  and  N_68
REMARK                            x       y       z     vdW  Elec       q    Type
REMARK                         _______ _______ _______ _____ _____    ______ ____
ROOT
ATOM      1  N   UNL     1      -0.962   1.888  -1.173  0.00  0.00    -0.177 NA
ATOM      2  C   UNL     1      -1.963   0.975  -1.741  0.00  0.00    +0.110 C 
ATOM      3  C   UNL     1      -3.292   1.733  -1.882  0.00  0.00    +0.030 C 
ATOM      4  C   UNL     1      -3.063   3.003  -2.704  0.00  0.00    +0.077 C 
ATOM      5  C   UNL     1      -2.066   3.910  -1.978  0.00  0.00    +0.030 C 
ATOM      6  C   UNL     1      -0.727   3.179  -1.835  0.00  0.00    +0.110 C 
ENDROOT
BRANCH   4   7
ATOM      7  C   UNL     1      -4.370   3.732  -2.877  0.00  0.00    +0.216 C 
ATOM      8  O   UNL     1      -4.493   4.865  -2.460  0.00  0.00    -0.276 OA
ATOM      9  N   UNL     1      -5.404   3.126  -3.494  0.00  0.00    -0.316 N 
ATOM     10  H   UNL     1      -5.306   2.220  -3.826  0.00  0.00    +0.149 HD
BRANCH   9  11
ATOM     11  C   UNL     1      -6.675   3.834  -3.662  0.00  0.00    +0.096 C 
BRANCH  11  12
ATOM     12  C   UNL     1      -7.672   2.929  -4.387  0.00  0.00    +0.016 C 
BRANCH  12  18
ATOM     13  C   UNL     1      -6.689   3.608  -6.493  0.00  0.00    -0.078 C 
ATOM     14  C   UNL     1      -5.953   3.097  -7.733  0.00  0.00    -0.019 C 
ATOM     15  C   UNL     1      -6.874   2.157  -8.516  0.00  0.00    -0.004 C 
ATOM     16  C   UNL     1      -7.310   1.006  -7.605  0.00  0.00    -0.019 C 
ATOM     17  C   UNL     1      -8.007   1.578  -6.368  0.00  0.00    -0.078 C 
ATOM     18  N   UNL     1      -7.060   2.454  -5.646  0.00  0.00    +0.387 N 
ATOM     19  H   UNL     1      -6.213   1.918  -5.424  0.00  0.00    -0.081 HD
ENDBRANCH  12  18
BRANCH  12  20
ATOM     20  C   UNL     1      -8.937   3.698  -4.669  0.00  0.00    +0.093 A 
ATOM     21  C   UNL     1     -10.117   3.527  -4.046  0.00  0.00    +0.043 A 
ATOM     22  C   UNL     1     -11.020   4.450  -4.620  0.00  0.00    +0.041 A 
ATOM     23  C   UNL     1     -10.338   5.130  -5.559  0.00  0.00    +0.195 A 
ATOM     24  O   UNL     1      -9.075   4.674  -5.580  0.00  0.00    -0.469 OA
ENDBRANCH  12  20
ENDBRANCH  11  12
ENDBRANCH   9  11
ENDBRANCH   4   7
BRANCH   1  25
ATOM     25  S   UNL     1      -0.109   1.468   0.183  0.00  0.00    +0.061 S 
ATOM     26  O   UNL     1      -0.124   0.048   0.248  0.00  0.00    -0.153 OA
ATOM     27  O   UNL     1       1.098   2.216   0.152  0.00  0.00    -0.153 OA
BRANCH  25  33
ATOM     28  C   UNL     1      -4.101   2.639   5.447  0.00  0.00    +0.001 A 
ATOM     29  C   UNL     1      -4.340   1.358   4.952  0.00  0.00    +0.001 A 
ATOM     30  C   UNL     1      -3.652   0.882   3.879  0.00  0.00    +0.008 A 
ATOM     31  C   UNL     1      -2.684   1.691   3.258  0.00  0.00    -0.016 A 
ATOM     32  C   UNL     1      -1.953   1.234   2.148  0.00  0.00    +0.037 A 
ATOM     33  C   UNL     1      -1.024   2.045   1.574  0.00  0.00    +0.106 A 
ATOM     34  C   UNL     1      -0.781   3.324   2.072  0.00  0.00    +0.029 A 
ATOM     35  C   UNL     1      -1.474   3.802   3.141  0.00  0.00    +0.010 A 
ATOM     36  C   UNL     1      -2.442   2.993   3.761  0.00  0.00    -0.018 A 
ATOM     37  C   UNL     1      -3.172   3.450   4.872  0.00  0.00    +0.008 A 
ENDBRANCH  25  33
ENDBRANCH   1  25
TORSDOF 7
