REMARK  Name = ZINC22439199
REMARK  8 active torsions:
REMARK  status: ('A' for Active; 'I' for Inactive)
REMARK    1  A    between atoms: C_1  and  C_2
REMARK    2  A    between atoms: C_6  and  C_28
REMARK    3  A    between atoms: C_7  and  N_8
REMARK    4  A    between atoms: C_9  and  C_13
REMARK    5  A    between atoms: C_13  and  N_20
REMARK    6  A    between atoms: C_16  and  C_19
REMARK    7  A    between atoms: N_20  and  C_21
REMARK    8  A    between atoms: C_21  and  C_22
REMARK                            x       y       z     vdW  Elec       q    Type
REMARK                         _______ _______ _______ _____ _____    ______ ____
ROOT
ATOM      1  C   UNL     1      -2.568   5.523   0.356  0.00  0.00    -0.005 C 
ATOM      2  C   UNL     1      -2.707   4.698  -0.925  0.00  0.00    -0.004 C 
ATOM      3  C   UNL     1      -4.098   4.062  -0.973  0.00  0.00    +0.002 C 
ATOM      4  C   UNL     1      -5.162   5.161  -0.956  0.00  0.00    -0.014 C 
ATOM      5  C   UNL     1      -5.023   5.986   0.325  0.00  0.00    +0.002 C 
ATOM      6  C   UNL     1      -3.633   6.622   0.373  0.00  0.00    -0.004 C 
ATOM      7  C   UNL     1      -6.553   4.524  -1.004  0.00  0.00    +0.007 C 
ENDROOT
BRANCH   1   9
ATOM      8  N   UNL     1      -0.480   6.585  -0.653  0.00  0.00    -0.198 N 
ATOM      9  C   UNL     1      -1.199   6.150   0.404  0.00  0.00    +0.146 A 
ATOM     10  N   UNL     1      -0.485   6.373   1.477  0.00  0.00    -0.114 NA
ATOM     11  N   UNL     1       0.635   6.920   1.169  0.00  0.00    -0.023 NA
ATOM     12  N   UNL     1       0.719   7.077  -0.108  0.00  0.00    -0.039 NA
BRANCH   8  19
ATOM     13  C   UNL     1       0.410   4.389  -2.232  0.00  0.00    +0.046 C 
ATOM     14  C   UNL     1      -0.435   5.494  -2.811  0.00  0.00    -0.025 A 
ATOM     15  C   UNL     1      -0.799   5.460  -4.143  0.00  0.00    +0.005 A 
ATOM     16  C   UNL     1      -1.574   6.474  -4.675  0.00  0.00    +0.001 A 
ATOM     17  C   UNL     1      -1.982   7.528  -3.878  0.00  0.00    +0.005 A 
ATOM     18  C   UNL     1      -1.625   7.564  -2.544  0.00  0.00    -0.025 A 
ATOM     19  C   UNL     1      -0.847   6.548  -2.007  0.00  0.00    +0.075 A 
ATOM     20  C   UNL     1      -2.074   8.710  -1.674  0.00  0.00    +0.046 C 
ENDBRANCH   8  19
ENDBRANCH   1   9
BRANCH   1  21
ATOM     21  N   UNL     1      -2.748   4.649   1.523  0.00  0.00    +0.390 N 
ATOM     22  H   UNL     1      -2.682   5.248   2.444  0.00  0.00    -0.084 HD
ATOM     23  H   UNL     1      -3.734   4.165   1.470  0.00  0.00    -0.084 HD
BRANCH  21  24
ATOM     24  C   UNL     1      -1.713   3.607   1.565  0.00  0.00    -0.045 C 
BRANCH  24  25
ATOM     25  C   UNL     1      -1.974   2.686   2.728  0.00  0.00    -0.064 A 
ATOM     26  C   UNL     1      -1.416   2.957   3.963  0.00  0.00    +0.002 A 
ATOM     27  C   UNL     1      -1.659   2.114   5.032  0.00  0.00    +0.000 A 
ATOM     28  C   UNL     1      -2.453   0.995   4.863  0.00  0.00    +0.000 A 
ATOM     29  C   UNL     1      -3.007   0.721   3.626  0.00  0.00    +0.000 A 
ATOM     30  C   UNL     1      -2.767   1.566   2.559  0.00  0.00    +0.002 A 
ENDBRANCH  24  25
ENDBRANCH  21  24
ENDBRANCH   1  21
TORSDOF 5
