REMARK  Name = ZINC05488063
REMARK  4 active torsions:
REMARK  status: ('A' for Active; 'I' for Inactive)
REMARK    1  A    between atoms: C_4  and  N_7
REMARK    2  A    between atoms: C_12  and  C_14
REMARK    3  A    between atoms: N_16  and  C_17
REMARK    4  A    between atoms: C_18  and  C_27
REMARK                            x       y       z     vdW  Elec       q    Type
REMARK                         _______ _______ _______ _____ _____    ______ ____
ROOT
ATOM      1  C   UNL     1       1.407   2.213   0.533  0.00  0.00    +0.264 C 
ATOM      2  O   UNL     1       2.506   1.692   0.512  0.00  0.00    -0.268 OA
ATOM      3  N   UNL     1       0.314   1.472   0.806  0.00  0.00    -0.274 N 
ATOM      4  H   UNL     1      -0.562   1.887   0.818  0.00  0.00    +0.156 HD
ENDROOT
BRANCH   3   5
ATOM      5  C   UNL     1       0.443   0.116   1.062  0.00  0.00    +0.090 A 
ATOM      6  C   UNL     1      -0.551  -0.801   1.365  0.00  0.00    +0.084 A 
ATOM      7  C   UNL     1      -0.152  -2.184   1.587  0.00  0.00    -0.018 A 
ATOM      8  C   UNL     1       1.175  -2.417   1.486  0.00  0.00    -0.004 A 
ATOM      9  S   UNL     1       1.885  -0.842   1.090  0.00  0.00    -0.077 S 
ATOM     10  C   UNL     1       1.894  -3.715   1.683  0.00  0.00    +0.043 C 
ATOM     11  C   UNL     1       1.186  -4.812   0.876  0.00  0.00    +0.005 C 
ATOM     12  C   UNL     1       0.112  -5.442   1.758  0.00  0.00    +0.001 C 
ATOM     13  C   UNL     1      -0.475  -4.394   2.701  0.00  0.00    +0.005 C 
ATOM     14  C   UNL     1      -1.156  -3.285   1.907  0.00  0.00    +0.037 C 
BRANCH   6  15
ATOM     15  C   UNL     1      -1.923  -0.404   1.452  0.00  0.00    +0.102 C 
ATOM     16  N   UNL     1      -3.013  -0.088   1.522  0.00  0.00    -0.191 NA
ENDBRANCH   6  15
ENDBRANCH   3   5
BRANCH   1  22
ATOM     17  N   UNL     1      -0.074   5.560   0.031  0.00  0.00    -0.160 N 
ATOM     18  C   UNL     1       0.885   6.256  -0.611  0.00  0.00    +0.240 C 
ATOM     19  O   UNL     1       0.731   7.438  -0.835  0.00  0.00    -0.273 OA
ATOM     20  C   UNL     1       2.148   5.561  -1.051  0.00  0.00    +0.104 C 
ATOM     21  C   UNL     1       2.498   4.467  -0.035  0.00  0.00    +0.071 C 
ATOM     22  C   UNL     1       1.271   3.648   0.262  0.00  0.00    +0.122 C 
ATOM     23  N   UNL     1       0.094   4.195   0.286  0.00  0.00    -0.172 NA
BRANCH  17  27
ATOM     24  C   UNL     1      -3.559   7.484   1.262  0.00  0.00    +0.000 A 
ATOM     25  C   UNL     1      -2.326   8.043   1.544  0.00  0.00    +0.002 A 
ATOM     26  C   UNL     1      -1.169   7.407   1.137  0.00  0.00    +0.025 A 
ATOM     27  C   UNL     1      -1.244   6.206   0.444  0.00  0.00    +0.060 A 
ATOM     28  C   UNL     1      -2.485   5.651   0.158  0.00  0.00    +0.025 A 
ATOM     29  C   UNL     1      -3.638   6.288   0.572  0.00  0.00    +0.002 A 
ENDBRANCH  17  27
ENDBRANCH   1  22
TORSDOF 4
