REMARK  Name = ZINC49976137
REMARK  7 active torsions:
REMARK  status: ('A' for Active; 'I' for Inactive)
REMARK    1  A    between atoms: C_1  and  C_2
REMARK    2  A    between atoms: C_4  and  C_21
REMARK    3  A    between atoms: C_6  and  N_8
REMARK    4  A    between atoms: N_8  and  C_9
REMARK    5  A    between atoms: C_10  and  C_12
REMARK    6  A    between atoms: C_12  and  C_17
REMARK    7  A    between atoms: N_18  and  O_19
REMARK                            x       y       z     vdW  Elec       q    Type
REMARK                         _______ _______ _______ _____ _____    ______ ____
ROOT
ATOM      1  N   UNL     1       0.007  -2.783   2.305  0.00  0.00    -0.274 N 
ATOM      2  C   UNL     1      -0.124  -4.239   2.210  0.00  0.00    +0.138 C 
ATOM      3  C   UNL     1       0.120  -2.193   3.512  0.00  0.00    +0.233 C 
ATOM      4  O   UNL     1       0.130  -0.983   3.597  0.00  0.00    -0.274 OA
ENDROOT
BRANCH   1  10
ATOM      5  C   UNL     1      -0.041   1.651   0.181  0.00  0.00    +0.044 C 
ATOM      6  C   UNL     1      -0.010   0.148   0.084  0.00  0.00    -0.048 A 
ATOM      7  C   UNL     1       0.025  -0.463  -1.156  0.00  0.00    +0.006 A 
ATOM      8  C   UNL     1       0.054  -1.843  -1.250  0.00  0.00    -0.048 A 
ATOM      9  C   UNL     1       0.048  -2.614  -0.104  0.00  0.00    +0.027 A 
ATOM     10  C   UNL     1       0.013  -2.003   1.142  0.00  0.00    +0.036 A 
ATOM     11  C   UNL     1      -0.010  -0.618   1.233  0.00  0.00    +0.027 A 
ATOM     12  C   UNL     1       0.091  -2.505  -2.603  0.00  0.00    +0.044 C 
ENDBRANCH   1  10
BRANCH   3  13
ATOM     13  C   UNL     1       0.236  -3.038   4.755  0.00  0.00    +0.105 C 
ATOM     14  C   UNL     1       0.514  -2.143   5.975  0.00  0.00    +0.024 C 
ATOM     15  C   UNL     1       1.873  -2.592   6.551  0.00  0.00    +0.001 C 
ATOM     16  C   UNL     1       2.591  -3.260   5.352  0.00  0.00    +0.001 C 
ATOM     17  C   UNL     1       1.437  -3.999   4.630  0.00  0.00    +0.024 C 
BRANCH  13  18
ATOM     18  C   UNL     1      -1.033  -3.822   4.966  0.00  0.00    +0.147 C 
ATOM     19  N   UNL     1      -0.984  -5.105   5.106  0.00  0.00    -0.076 NA
ATOM     20  N   UNL     1      -2.246  -3.170   5.009  0.00  0.00    -0.343 N 
ATOM     21  H   UNL     1      -2.291  -2.217   4.832  0.00  0.00    +0.144 HD
ATOM     22  H   UNL     1      -3.054  -3.664   5.217  0.00  0.00    +0.144 HD
BRANCH  19  23
ATOM     23  O   UNL     1      -2.177  -5.841   5.304  0.00  0.00    -0.408 OA
ATOM     24  H   UNL     1      -2.040  -6.794   5.399  0.00  0.00    +0.328 HD
ENDBRANCH  19  23
ENDBRANCH  13  18
ENDBRANCH   3  13
TORSDOF 4
