REMARK  Name = ZINC35165529
REMARK  14 active torsions:
REMARK  status: ('A' for Active; 'I' for Inactive)
REMARK    1  A    between atoms: C_1  and  C_2
REMARK    2  A    between atoms: C_2  and  O_41
REMARK    3  A    between atoms: C_6  and  C_31
REMARK    4  A    between atoms: C_8  and  C_22
REMARK    5  A    between atoms: C_10  and  C_12
REMARK    6  A    between atoms: C_12  and  O_14
REMARK    7  A    between atoms: O_14  and  C_15
REMARK    8  A    between atoms: C_15  and  C_16
REMARK    9  A    between atoms: C_25  and  N_28
REMARK   10  A    between atoms: N_28  and  C_29
REMARK   11  A    between atoms: N_28  and  C_30
REMARK   12  A    between atoms: C_31  and  O_33
REMARK   13  A    between atoms: O_33  and  C_34
REMARK   14  A    between atoms: C_34  and  C_35
REMARK                            x       y       z     vdW  Elec       q    Type
REMARK                         _______ _______ _______ _____ _____    ______ ____
ROOT
ATOM      1  C   UNL     1       0.266   1.806  -0.049  0.00  0.00    +0.042 C 
ATOM      2  C   UNL     1      -0.036   0.318   0.137  0.00  0.00    +0.083 C 
ATOM      3  C   UNL     1       0.486  -0.465  -1.073  0.00  0.00    +0.110 C 
ATOM      4  C   UNL     1       1.995  -0.360  -1.098  0.00  0.00    +0.150 C 
ATOM      5  O   UNL     1       2.574  -0.013  -2.099  0.00  0.00    -0.296 OA
ATOM      6  C   UNL     1       2.759  -0.700   0.162  0.00  0.00    +0.172 C 
ATOM      7  C   UNL     1       2.154   0.091   1.327  0.00  0.00    +0.056 C 
ATOM      8  C   UNL     1       0.652  -0.188   1.405  0.00  0.00    +0.138 C 
ENDROOT
BRANCH   7   9
ATOM      9  C   UNL     1       2.812  -0.331   2.616  0.00  0.00    -0.042 A 
ATOM     10  C   UNL     1       3.477  -1.541   2.687  0.00  0.00    +0.006 A 
ATOM     11  C   UNL     1       4.080  -1.930   3.867  0.00  0.00    +0.023 A 
ATOM     12  C   UNL     1       4.019  -1.104   4.982  0.00  0.00    +0.029 A 
ATOM     13  C   UNL     1       3.351   0.111   4.907  0.00  0.00    +0.023 A 
ATOM     14  C   UNL     1       2.754   0.497   3.722  0.00  0.00    +0.006 A 
BRANCH  12  15
ATOM     15  N   UNL     1       4.629  -1.495   6.176  0.00  0.00    -0.336 N 
ATOM     16  C   UNL     1       5.333  -2.777   6.254  0.00  0.00    +0.129 C 
ATOM     17  C   UNL     1       4.563  -0.622   7.352  0.00  0.00    +0.129 C 
ENDBRANCH  12  15
ENDBRANCH   7   9
BRANCH   8  18
ATOM     18  C   UNL     1       0.425  -1.672   1.541  0.00  0.00    +0.314 C 
ATOM     19  O   UNL     1       1.368  -2.422   1.625  0.00  0.00    -0.250 OA
BRANCH  18  20
ATOM     20  O   UNL     1      -0.826  -2.159   1.568  0.00  0.00    -0.460 OA
BRANCH  20  21
ATOM     21  C   UNL     1      -0.967  -3.576   1.698  0.00  0.00    +0.267 C 
BRANCH  21  22
ATOM     22  C   UNL     1      -2.430  -3.935   1.710  0.00  0.00    -0.010 A 
ATOM     23  C   UNL     1      -3.121  -3.983   2.906  0.00  0.00    +0.007 A 
ATOM     24  C   UNL     1      -4.463  -4.313   2.917  0.00  0.00    +0.000 A 
ATOM     25  C   UNL     1      -5.115  -4.595   1.731  0.00  0.00    +0.000 A 
ATOM     26  C   UNL     1      -4.425  -4.546   0.534  0.00  0.00    +0.000 A 
ATOM     27  C   UNL     1      -3.084  -4.212   0.523  0.00  0.00    +0.007 A 
ENDBRANCH  21  22
ENDBRANCH  20  21
ENDBRANCH  18  20
ENDBRANCH   8  18
BRANCH   6  28
ATOM     28  C   UNL     1       4.209  -0.328  -0.009  0.00  0.00    +0.318 C 
ATOM     29  O   UNL     1       4.718   0.477   0.735  0.00  0.00    -0.250 OA
BRANCH  28  30
ATOM     30  O   UNL     1       4.935  -0.890  -0.988  0.00  0.00    -0.459 OA
BRANCH  30  31
ATOM     31  C   UNL     1       6.303  -0.491  -1.091  0.00  0.00    +0.267 C 
BRANCH  31  32
ATOM     32  C   UNL     1       6.954  -1.221  -2.238  0.00  0.00    -0.010 A 
ATOM     33  C   UNL     1       7.562  -2.444  -2.023  0.00  0.00    +0.007 A 
ATOM     34  C   UNL     1       8.159  -3.114  -3.074  0.00  0.00    +0.000 A 
ATOM     35  C   UNL     1       8.147  -2.561  -4.341  0.00  0.00    +0.000 A 
ATOM     36  C   UNL     1       7.538  -1.339  -4.557  0.00  0.00    +0.000 A 
ATOM     37  C   UNL     1       6.938  -0.671  -3.506  0.00  0.00    +0.007 A 
ENDBRANCH  31  32
ENDBRANCH  30  31
ENDBRANCH  28  30
ENDBRANCH   6  28
BRANCH   2  38
ATOM     38  O   UNL     1      -1.448   0.130   0.253  0.00  0.00    -0.388 OA
ATOM     39  H   UNL     1      -1.950   0.429  -0.517  0.00  0.00    +0.210 HD
ENDBRANCH   2  38
TORSDOF 11
