REMARK  Name = ZINC65010990
REMARK  10 active torsions:
REMARK  status: ('A' for Active; 'I' for Inactive)
REMARK    1  A    between atoms: C_1  and  C_2
REMARK    2  A    between atoms: C_2  and  N_3
REMARK    3  A    between atoms: C_7  and  C_9
REMARK    4  A    between atoms: C_9  and  N_10
REMARK    5  A    between atoms: N_10  and  S_11
REMARK    6  A    between atoms: S_11  and  C_14
REMARK    7  A    between atoms: C_15  and  C_34
REMARK    8  A    between atoms: C_16  and  C_33
REMARK    9  A    between atoms: C_21  and  C_24
REMARK   10  A    between atoms: C_22  and  C_23
REMARK                            x       y       z     vdW  Elec       q    Type
REMARK                         _______ _______ _______ _____ _____    ______ ____
ROOT
ATOM      1  C   UNL     1      -4.002  -2.018  -4.007  0.00  0.00    +0.151 A 
ATOM      2  C   UNL     1      -4.905  -3.040  -3.808  0.00  0.00    -0.018 A 
ATOM      3  C   UNL     1      -6.248  -2.869  -4.113  0.00  0.00    -0.045 A 
ATOM      4  C   UNL     1      -6.698  -1.681  -4.617  0.00  0.00    +0.015 A 
ATOM      5  C   UNL     1      -5.799  -0.633  -4.825  0.00  0.00    +0.026 A 
ATOM      6  C   UNL     1      -4.437  -0.799  -4.513  0.00  0.00    +0.163 A 
ATOM      7  O   UNL     1      -3.809   0.357  -4.803  0.00  0.00    -0.448 OA
ATOM      8  C   UNL     1      -4.680   1.271  -5.281  0.00  0.00    +0.194 A 
ATOM      9  C   UNL     1      -5.926   0.733  -5.334  0.00  0.00    +0.008 A 
ATOM     10  C   UNL     1      -7.186   1.411  -5.805  0.00  0.00    +0.048 C 
ATOM     11  C   UNL     1      -7.217  -4.001  -3.887  0.00  0.00    +0.044 C 
ATOM     12  C   UNL     1      -4.429  -4.358  -3.253  0.00  0.00    +0.046 C 
ENDROOT
BRANCH   8  13
ATOM     13  C   UNL     1      -4.330   2.637  -5.694  0.00  0.00    +0.282 C 
ATOM     14  O   UNL     1      -5.207   3.422  -6.003  0.00  0.00    -0.267 OA
ATOM     15  N   UNL     1      -3.039   3.021  -5.731  0.00  0.00    -0.295 N 
ATOM     16  C   UNL     1      -2.025   2.083  -5.302  0.00  0.00    +0.108 C 
ATOM     17  C   UNL     1      -1.785   2.238  -3.780  0.00  0.00    +0.019 C 
ATOM     18  C   UNL     1      -1.086   3.502  -3.499  0.00  0.00    +0.002 C 
ATOM     19  C   UNL     1      -1.869   4.753  -3.887  0.00  0.00    +0.002 C 
ATOM     20  C   UNL     1      -1.635   5.056  -5.346  0.00  0.00    +0.019 C 
ATOM     21  C   UNL     1      -2.717   4.378  -6.213  0.00  0.00    +0.108 C 
ENDBRANCH   8  13
BRANCH   1  22
ATOM     22  S   UNL     1      -2.300  -2.254  -3.615  0.00  0.00    +0.062 S 
ATOM     23  O   UNL     1      -2.260  -3.120  -2.489  0.00  0.00    -0.153 OA
ATOM     24  O   UNL     1      -1.702  -0.965  -3.606  0.00  0.00    -0.153 OA
BRANCH  22  25
ATOM     25  N   UNL     1      -1.618  -3.084  -4.875  0.00  0.00    -0.191 NA
ATOM     26  H   UNL     1      -1.275  -3.981  -4.736  0.00  0.00    +0.148 HD
BRANCH  25  27
ATOM     27  C   UNL     1      -1.532  -2.464  -6.199  0.00  0.00    +0.090 C 
BRANCH  27  32
ATOM     28  N   UNL     1      -0.952  -4.672  -7.115  0.00  0.00    +0.382 N 
ATOM     29  C   UNL     1      -1.210  -5.043  -8.523  0.00  0.00    -0.078 C 
ATOM     30  C   UNL     1      -1.554  -3.708  -9.228  0.00  0.00    -0.020 C 
ATOM     31  C   UNL     1      -0.590  -2.721  -8.518  0.00  0.00    -0.016 C 
ATOM     32  C   UNL     1      -0.552  -3.254  -7.070  0.00  0.00    -0.053 C 
ATOM     33  H   UNL     1      -1.791  -4.806  -6.571  0.00  0.00    -0.081 HD
BRANCH  28  35
ATOM     34  C   UNL     1      -0.338  -6.963  -6.507  0.00  0.00    -0.017 C 
ATOM     35  C   UNL     1       0.128  -5.508  -6.573  0.00  0.00    -0.082 C 
ENDBRANCH  28  35
ENDBRANCH  27  32
ENDBRANCH  25  27
ENDBRANCH  22  25
ENDBRANCH   1  22
TORSDOF 6
