REMARK  Name = ZINC21809725
REMARK  7 active torsions:
REMARK  status: ('A' for Active; 'I' for Inactive)
REMARK    1  A    between atoms: C_1  and  C_2
REMARK    2  A    between atoms: C_2  and  C_4
REMARK    3  A    between atoms: C_2  and  C_29
REMARK    4  A    between atoms: C_4  and  N_5
REMARK    5  A    between atoms: C_14  and  C_15
REMARK    6  A    between atoms: C_14  and  C_16
REMARK    7  A    between atoms: N_18  and  C_19
REMARK                            x       y       z     vdW  Elec       q    Type
REMARK                         _______ _______ _______ _____ _____    ______ ____
ROOT
ATOM      1  N   UNL     1       5.717  -1.012   1.154  0.00  0.00    -0.280 N 
ATOM      2  C   UNL     1       5.711  -2.269   1.658  0.00  0.00    +0.264 C 
ATOM      3  O   UNL     1       4.674  -2.863   1.889  0.00  0.00    -0.268 OA
ATOM      4  C   UNL     1       7.022  -2.878   1.907  0.00  0.00    +0.106 A 
ATOM      5  C   UNL     1       7.360  -4.160   2.224  0.00  0.00    +0.048 A 
ATOM      6  C   UNL     1       8.745  -4.204   2.332  0.00  0.00    +0.038 A 
ATOM      7  C   UNL     1       9.276  -2.930   2.081  0.00  0.00    +0.057 A 
ATOM      8  N   UNL     1       8.185  -2.119   1.827  0.00  0.00    -0.333 N 
ATOM      9  C   UNL     1       8.155  -0.686   1.521  0.00  0.00    +0.157 C 
ATOM     10  C   UNL     1       6.934  -0.387   0.650  0.00  0.00    +0.128 C 
ATOM     11  C   UNL     1       6.726   1.128   0.597  0.00  0.00    +0.043 C 
ATOM     12  C   UNL     1      10.673  -2.830   2.153  0.00  0.00    +0.034 A 
ATOM     13  C   UNL     1      11.417  -3.916   2.450  0.00  0.00    +0.048 A 
ATOM     14  S   UNL     1      10.184  -5.190   2.655  0.00  0.00    -0.095 S 
ENDROOT
BRANCH  10  15
ATOM     15  C   UNL     1       7.198  -0.888  -0.746  0.00  0.00    +0.238 C 
ATOM     16  O   UNL     1       7.685  -0.149  -1.575  0.00  0.00    -0.273 OA
ATOM     17  N   UNL     1       6.892  -2.159  -1.074  0.00  0.00    -0.311 N 
ATOM     18  H   UNL     1       6.450  -2.830  -0.323  0.00  0.00    +0.149 HD
BRANCH  17  19
ATOM     19  C   UNL     1       7.148  -2.647  -2.432  0.00  0.00    +0.073 C 
ATOM     20  C   UNL     1       5.966  -2.244  -3.338  0.00  0.00    +0.022 C 
ATOM     21  C   UNL     1       6.432  -2.273  -4.770  0.00  0.00    +0.002 C 
ATOM     22  C   UNL     1       6.129  -3.617  -5.459  0.00  0.00    +0.000 C 
ATOM     23  C   UNL     1       6.409  -4.830  -4.553  0.00  0.00    +0.000 C 
ATOM     24  C   UNL     1       7.685  -4.680  -3.768  0.00  0.00    +0.002 C 
ATOM     25  C   UNL     1       7.343  -4.089  -2.386  0.00  0.00    +0.022 C 
ENDBRANCH  17  19
ENDBRANCH  10  15
BRANCH   1  26
ATOM     26  C   UNL     1       4.464  -0.255   1.119  0.00  0.00    +0.117 C 
BRANCH  26  28
ATOM     27  C   UNL     1       4.074  -0.548   3.569  0.00  0.00    +0.014 C 
ATOM     28  C   UNL     1       4.272   0.475   2.449  0.00  0.00    +0.033 C 
BRANCH  28  29
ATOM     29  C   UNL     1       3.059   1.366   2.363  0.00  0.00    -0.043 A 
ATOM     30  C   UNL     1       3.188   2.730   2.546  0.00  0.00    +0.004 A 
ATOM     31  C   UNL     1       2.076   3.546   2.467  0.00  0.00    +0.000 A 
ATOM     32  C   UNL     1       0.834   2.999   2.204  0.00  0.00    +0.000 A 
ATOM     33  C   UNL     1       0.705   1.635   2.019  0.00  0.00    +0.000 A 
ATOM     34  C   UNL     1       1.817   0.819   2.100  0.00  0.00    +0.004 A 
ENDBRANCH  28  29
ENDBRANCH  26  28
ENDBRANCH   1  26
TORSDOF 5
