REMARK  Name = ZINC34757549
REMARK  9 active torsions:
REMARK  status: ('A' for Active; 'I' for Inactive)
REMARK    1  A    between atoms: C_1  and  C_2
REMARK    2  A    between atoms: C_5  and  C_9
REMARK    3  A    between atoms: C_6  and  C_8
REMARK    4  A    between atoms: C_9  and  N_10
REMARK    5  A    between atoms: C_23  and  S_25
REMARK    6  A    between atoms: S_25  and  C_26
REMARK    7  A    between atoms: C_26  and  C_27
REMARK    8  A    between atoms: C_30  and  C_34
REMARK    9  A    between atoms: C_32  and  C_33
REMARK                            x       y       z     vdW  Elec       q    Type
REMARK                         _______ _______ _______ _____ _____    ______ ____
ROOT
ATOM      1  N   UNL     1      -2.387  -3.891   0.545  0.00  0.00    +0.384 N 
ATOM      2  C   UNL     1      -3.720  -4.231   1.061  0.00  0.00    -0.059 C 
ATOM      3  C   UNL     1      -3.889  -5.754   1.069  0.00  0.00    +0.088 C 
ATOM      4  N   UNL     1      -3.614  -6.262  -0.284  0.00  0.00    -0.318 N 
ATOM      5  C   UNL     1      -2.370  -5.836  -0.944  0.00  0.00    +0.088 C 
ATOM      6  C   UNL     1      -2.272  -4.310  -0.858  0.00  0.00    -0.059 C 
ATOM      7  C   UNL     1      -4.499  -7.115  -0.917  0.00  0.00    +0.134 A 
ATOM      8  C   UNL     1      -4.426  -8.519  -0.700  0.00  0.00    +0.051 A 
ATOM      9  C   UNL     1      -3.487  -9.264   0.156  0.00  0.00    -0.025 A 
ATOM     10  C   UNL     1      -3.625 -10.599   0.191  0.00  0.00    -0.004 A 
ATOM     11  S   UNL     1      -4.992 -10.951  -0.891  0.00  0.00    -0.073 S 
ATOM     12  C   UNL     1      -5.373  -9.294  -1.392  0.00  0.00    +0.115 A 
ATOM     13  N   UNL     1      -6.268  -8.742  -2.190  0.00  0.00    -0.215 NA
ATOM     14  C   UNL     1      -6.291  -7.426  -2.356  0.00  0.00    +0.191 A 
ATOM     15  N   UNL     1      -5.428  -6.636  -1.728  0.00  0.00    -0.206 NA
ATOM     16  C   UNL     1      -2.612 -11.252   1.092  0.00  0.00    +0.043 C 
ATOM     17  C   UNL     1      -1.524 -10.175   1.297  0.00  0.00    +0.010 C 
ATOM     18  C   UNL     1      -2.325  -8.877   1.075  0.00  0.00    +0.037 C 
ATOM     19  H   UNL     1      -1.686  -4.365   1.095  0.00  0.00    -0.081 HD
ENDROOT
BRANCH   1  20
ATOM     20  C   UNL     1      -2.184  -2.440   0.640  0.00  0.00    -0.043 C 
BRANCH  20  25
ATOM     21  C   UNL     1      -2.169  -0.857   6.198  0.00  0.00    +0.044 C 
ATOM     22  C   UNL     1      -2.173  -1.270   4.748  0.00  0.00    -0.050 A 
ATOM     23  C   UNL     1      -3.310  -1.094   3.982  0.00  0.00    +0.003 A 
ATOM     24  C   UNL     1      -3.314  -1.472   2.653  0.00  0.00    +0.002 A 
ATOM     25  C   UNL     1      -2.180  -2.026   2.089  0.00  0.00    -0.061 A 
ATOM     26  C   UNL     1      -1.042  -2.201   2.854  0.00  0.00    -0.049 A 
ATOM     27  C   UNL     1      -1.037  -1.819   4.183  0.00  0.00    +0.007 A 
ATOM     28  C   UNL     1       0.194  -2.805   2.239  0.00  0.00    +0.044 C 
ENDBRANCH  20  25
ENDBRANCH   1  20
BRANCH  14  29
ATOM     29  S   UNL     1      -7.494  -6.712  -3.426  0.00  0.00    -0.081 S 
BRANCH  29  30
ATOM     30  C   UNL     1      -8.435  -8.135  -4.042  0.00  0.00    +0.112 C 
BRANCH  30  31
ATOM     31  C   UNL     1      -9.512  -7.658  -4.982  0.00  0.00    -0.034 A 
ATOM     32  C   UNL     1     -10.762  -7.330  -4.491  0.00  0.00    +0.005 A 
ATOM     33  C   UNL     1     -11.750  -6.892  -5.353  0.00  0.00    +0.003 A 
ATOM     34  C   UNL     1     -11.487  -6.781  -6.706  0.00  0.00    -0.050 A 
ATOM     35  C   UNL     1     -10.237  -7.108  -7.196  0.00  0.00    +0.007 A 
ATOM     36  C   UNL     1      -9.248  -7.542  -6.333  0.00  0.00    -0.046 A 
ATOM     37  C   UNL     1      -7.883  -7.893  -6.867  0.00  0.00    +0.044 C 
ATOM     38  C   UNL     1     -12.564  -6.304  -7.646  0.00  0.00    +0.044 C 
ENDBRANCH  30  31
ENDBRANCH  29  30
ENDBRANCH  14  29
TORSDOF 5
