REMARK  Name = ZINC08742722
REMARK  10 active torsions:
REMARK  status: ('A' for Active; 'I' for Inactive)
REMARK    1  A    between atoms: C_1  and  C_2
REMARK    2  A    between atoms: C_2  and  C_39
REMARK    3  A    between atoms: C_7  and  C_8
REMARK    4  A    between atoms: C_7  and  N_76
REMARK    5  A    between atoms: C_8  and  N_9
REMARK    6  A    between atoms: N_9  and  C_10
REMARK    7  A    between atoms: C_31  and  C_35
REMARK    8  A    between atoms: C_35  and  C_36
REMARK    9  A    between atoms: C_35  and  C_37
REMARK   10  A    between atoms: C_35  and  C_38
REMARK                            x       y       z     vdW  Elec       q    Type
REMARK                         _______ _______ _______ _____ _____    ______ ____
ROOT
ATOM      1  C   UNL     1      -8.525   0.631   4.518  0.00  0.00    +0.042 A 
ATOM      2  C   UNL     1      -7.217   1.113   4.451  0.00  0.00    +0.072 A 
ATOM      3  C   UNL     1      -6.399   0.779   3.391  0.00  0.00    +0.154 A 
ATOM      4  C   UNL     1      -6.880  -0.055   2.364  0.00  0.00    +0.094 A 
ATOM      5  C   UNL     1      -8.184  -0.546   2.415  0.00  0.00    +0.062 A 
ATOM      6  C   UNL     1      -9.019  -0.200   3.505  0.00  0.00    +0.056 A 
ATOM      7  C   UNL     1     -10.392  -0.710   3.568  0.00  0.00    +0.196 A 
ATOM      8  O   UNL     1     -11.110  -0.413   4.505  0.00  0.00    -0.287 OA
ATOM      9  C   UNL     1     -10.904  -1.586   2.494  0.00  0.00    +0.033 A 
ATOM     10  C   UNL     1     -12.207  -2.074   2.547  0.00  0.00    +0.012 A 
ATOM     11  C   UNL     1     -12.678  -2.892   1.537  0.00  0.00    +0.001 A 
ATOM     12  C   UNL     1     -11.863  -3.231   0.470  0.00  0.00    +0.001 A 
ATOM     13  C   UNL     1     -10.566  -2.755   0.402  0.00  0.00    +0.012 A 
ATOM     14  C   UNL     1     -10.076  -1.930   1.411  0.00  0.00    +0.033 A 
ATOM     15  C   UNL     1      -8.692  -1.417   1.346  0.00  0.00    +0.197 A 
ATOM     16  O   UNL     1      -7.975  -1.713   0.409  0.00  0.00    -0.287 OA
ATOM     17  N   UNL     1      -6.051  -0.386   1.303  0.00  0.00    -0.349 N 
ATOM     18  H   UNL     1      -6.370  -0.960   0.589  0.00  0.00    +0.166 HD
ATOM     19  C   UNL     1      -4.747   0.120   1.278  0.00  0.00    +0.083 A 
ATOM     20  C   UNL     1      -3.896  -0.194   0.228  0.00  0.00    +0.029 A 
ATOM     21  C   UNL     1      -2.609   0.310   0.209  0.00  0.00    +0.006 A 
ATOM     22  C   UNL     1      -2.170   1.127   1.235  0.00  0.00    -0.038 A 
ATOM     23  C   UNL     1      -3.010   1.440   2.287  0.00  0.00    +0.052 A 
ATOM     24  C   UNL     1      -4.304   0.944   2.312  0.00  0.00    +0.152 A 
ATOM     25  O   UNL     1      -5.131   1.257   3.342  0.00  0.00    -0.452 OA
ENDROOT
BRANCH  22  26
ATOM     26  C   UNL     1      -0.765   1.673   1.209  0.00  0.00    -0.013 C 
ATOM     27  C   UNL     1      -0.048   1.176  -0.047  0.00  0.00    +0.015 C 
ATOM     28  C   UNL     1      -0.009   1.196   2.451  0.00  0.00    +0.015 C 
ATOM     29  C   UNL     1      -0.813   3.202   1.197  0.00  0.00    +0.015 C 
ENDBRANCH  22  26
BRANCH   1  30
ATOM     30  N   UNL     1      -9.335   0.976   5.588  0.00  0.00    -0.345 N 
ATOM     31  H   UNL     1     -10.270   0.718   5.590  0.00  0.00    +0.146 HD
BRANCH  30  32
ATOM     32  C   UNL     1      -8.780   1.729   6.715  0.00  0.00    +0.083 C 
BRANCH  32  33
ATOM     33  C   UNL     1      -9.877   1.976   7.753  0.00  0.00    -0.060 C 
BRANCH  33  41
ATOM     34  C   UNL     1      -6.553   2.012  11.378  0.00  0.00    +0.009 C 
ATOM     35  C   UNL     1      -7.737   2.752  10.753  0.00  0.00    -0.050 C 
ATOM     36  C   UNL     1      -7.310   4.173  10.374  0.00  0.00    +0.003 C 
ATOM     37  C   UNL     1      -8.482   4.886   9.694  0.00  0.00    -0.018 C 
ATOM     38  C   UNL     1      -8.920   4.082   8.468  0.00  0.00    -0.079 C 
ATOM     39  C   UNL     1      -8.197   2.010   9.495  0.00  0.00    -0.072 C 
ATOM     40  C   UNL     1      -8.889   2.816  11.758  0.00  0.00    +0.009 C 
ATOM     41  N   UNL     1      -9.342   2.734   8.903  0.00  0.00    +0.381 N 
ATOM     42  H   UNL     1     -10.079   2.828   9.612  0.00  0.00    -0.082 HD
ENDBRANCH  33  41
ENDBRANCH  32  33
ENDBRANCH  30  32
ENDBRANCH   1  30
TORSDOF 5
