REMARK  Name = ZINC39562040
REMARK  6 active torsions:
REMARK  status: ('A' for Active; 'I' for Inactive)
REMARK    1  A    between atoms: C_1  and  C_2
REMARK    2  A    between atoms: C_11  and  O_15
REMARK    3  A    between atoms: O_15  and  C_16
REMARK    4  A    between atoms: C_16  and  C_17
REMARK    5  A    between atoms: N_19  and  C_20
REMARK    6  A    between atoms: C_22  and  N_27
REMARK                            x       y       z     vdW  Elec       q    Type
REMARK                         _______ _______ _______ _____ _____    ______ ____
ROOT
ATOM      1  O   UNL     1      -2.357  -4.769  -0.403  0.00  0.00    -0.466 OA
ENDROOT
BRANCH   1  11
ATOM      2  C   UNL     1      -0.005   1.523  -0.011  0.00  0.00    +0.008 C 
ATOM      3  C   UNL     1       0.017  -0.006  -0.024  0.00  0.00    -0.009 C 
ATOM      4  C   UNL     1      -1.418  -0.541   0.005  0.00  0.00    +0.008 C 
ATOM      5  C   UNL     1      -1.415  -2.047  -0.255  0.00  0.00    +0.037 C 
ATOM      6  C   UNL     1      -0.449  -2.716   0.719  0.00  0.00    -0.023 A 
ATOM      7  C   UNL     1       0.502  -1.991   1.350  0.00  0.00    -0.004 A 
ATOM      8  S   UNL     1       1.380  -3.152   2.366  0.00  0.00    -0.073 S 
ATOM      9  C   UNL     1       0.474  -4.607   1.947  0.00  0.00    +0.116 A 
ATOM     10  C   UNL     1      -0.492  -4.138   1.020  0.00  0.00    +0.073 A 
ATOM     11  C   UNL     1      -1.393  -5.101   0.489  0.00  0.00    +0.227 A 
ATOM     12  N   UNL     1      -1.231  -6.348   0.922  0.00  0.00    -0.201 NA
ATOM     13  C   UNL     1      -0.307  -6.713   1.789  0.00  0.00    +0.226 A 
ATOM     14  N   UNL     1       0.565  -5.866   2.323  0.00  0.00    -0.228 NA
ATOM     15  C   UNL     1       0.761  -0.521   1.217  0.00  0.00    +0.046 C 
ENDBRANCH   1  11
BRANCH   1  16
ATOM     16  C   UNL     1      -3.203  -5.824  -0.867  0.00  0.00    +0.326 C 
BRANCH  16  17
ATOM     17  C   UNL     1      -4.207  -5.270  -1.845  0.00  0.00    +0.255 C 
ATOM     18  O   UNL     1      -4.198  -4.088  -2.119  0.00  0.00    -0.272 OA
ATOM     19  N   UNL     1      -5.113  -6.087  -2.416  0.00  0.00    -0.281 N 
ATOM     20  H   UNL     1      -5.079  -7.042  -2.248  0.00  0.00    +0.155 HD
BRANCH  19  21
ATOM     21  C   UNL     1      -6.104  -5.559  -3.251  0.00  0.00    +0.054 A 
ATOM     22  C   UNL     1      -5.821  -4.469  -4.064  0.00  0.00    +0.057 A 
ATOM     23  C   UNL     1      -6.800  -3.950  -4.887  0.00  0.00    +0.128 A 
ATOM     24  C   UNL     1      -8.063  -4.514  -4.904  0.00  0.00    +0.034 A 
ATOM     25  C   UNL     1      -8.349  -5.599  -4.097  0.00  0.00    +0.024 A 
ATOM     26  C   UNL     1      -7.372  -6.127  -3.274  0.00  0.00    +0.062 A 
ATOM     27 CL   UNL     1      -7.730  -7.494  -2.266  0.00  0.00    -0.082 Cl
BRANCH  23  28
ATOM     28  N   UNL     1      -6.498  -2.788  -5.753  0.00  0.00    +0.056 N 
ATOM     29  O   UNL     1      -5.395  -2.294  -5.739  0.00  0.00    -0.126 OA
ATOM     30  O   UNL     1      -7.355  -2.333  -6.475  0.00  0.00    -0.126 OA
ENDBRANCH  23  28
ENDBRANCH  19  21
ENDBRANCH  16  17
ENDBRANCH   1  16
TORSDOF 5
