REMARK  Name = ZINC40777705
REMARK  8 active torsions:
REMARK  status: ('A' for Active; 'I' for Inactive)
REMARK    1  A    between atoms: C_4  and  N_7
REMARK    2  A    between atoms: N_7  and  C_8
REMARK    3  A    between atoms: N_7  and  N_14
REMARK    4  A    between atoms: C_16  and  N_35
REMARK    5  A    between atoms: C_17  and  N_21
REMARK    6  A    between atoms: N_21  and  N_22
REMARK    7  A    between atoms: N_22  and  C_23
REMARK    8  A    between atoms: N_22  and  C_29
REMARK                            x       y       z     vdW  Elec       q    Type
REMARK                         _______ _______ _______ _____ _____    ______ ____
ROOT
ATOM      1  N   UNL     1       5.542  -0.473   0.368  0.00  0.00    -0.242 N 
ATOM      2  C   UNL     1       6.275   0.387   1.178  0.00  0.00    +0.161 A 
ATOM      3  C   UNL     1       7.220   1.251   0.622  0.00  0.00    +0.106 A 
ATOM      4  C   UNL     1       7.928   2.094   1.481  0.00  0.00    +0.139 A 
ATOM      5  N   UNL     1       7.678   2.041   2.787  0.00  0.00    -0.332 N 
ATOM      6  C   UNL     1       6.777   1.210   3.271  0.00  0.00    +0.200 A 
ATOM      7  N   UNL     1       6.083   0.402   2.495  0.00  0.00    -0.219 NA
ATOM      8  H   UNL     1       5.688  -0.478  -0.591  0.00  0.00    +0.172 HD
ATOM      9  H   UNL     1       8.165   2.623   3.391  0.00  0.00    +0.168 HD
ENDROOT
BRANCH   3  10
ATOM     10  N   UNL     1       7.451   1.273  -0.763  0.00  0.00    -0.353 N 
ATOM     11  H   UNL     1       6.952   0.681  -1.347  0.00  0.00    +0.143 HD
ATOM     12  H   UNL     1       8.111   1.879  -1.135  0.00  0.00    +0.143 HD
ENDBRANCH   3  10
BRANCH   4  13
ATOM     13  N   UNL     1       8.880   2.974   0.980  0.00  0.00    -0.243 N 
ATOM     14  H   UNL     1       9.056   3.006   0.026  0.00  0.00    +0.172 HD
BRANCH  13  15
ATOM     15  N   UNL     1       9.584   3.815   1.851  0.00  0.00    -0.221 N 
BRANCH  15  16
ATOM     16  C   UNL     1      10.916   3.535   2.168  0.00  0.00    +0.053 A 
ATOM     17  C   UNL     1      11.380   2.226   2.130  0.00  0.00    +0.025 A 
ATOM     18  C   UNL     1      12.697   1.953   2.443  0.00  0.00    +0.002 A 
ATOM     19  C   UNL     1      13.553   2.980   2.796  0.00  0.00    +0.000 A 
ATOM     20  C   UNL     1      13.094   4.284   2.835  0.00  0.00    +0.002 A 
ATOM     21  C   UNL     1      11.780   4.565   2.516  0.00  0.00    +0.025 A 
ENDBRANCH  15  16
BRANCH  15  22
ATOM     22  C   UNL     1       8.955   4.933   2.403  0.00  0.00    +0.053 A 
ATOM     23  C   UNL     1       8.220   5.789   1.593  0.00  0.00    +0.025 A 
ATOM     24  C   UNL     1       7.599   6.894   2.142  0.00  0.00    +0.002 A 
ATOM     25  C   UNL     1       7.709   7.149   3.497  0.00  0.00    +0.000 A 
ATOM     26  C   UNL     1       8.441   6.299   4.306  0.00  0.00    +0.002 A 
ATOM     27  C   UNL     1       9.059   5.189   3.765  0.00  0.00    +0.025 A 
ENDBRANCH  15  22
ENDBRANCH  13  15
ENDBRANCH   4  13
BRANCH   1  28
ATOM     28  N   UNL     1       4.593  -1.332   0.937  0.00  0.00    -0.221 N 
BRANCH  28  32
ATOM     29  C   UNL     1       0.939   0.177   2.245  0.00  0.00    +0.000 A 
ATOM     30  C   UNL     1       1.481  -0.941   2.853  0.00  0.00    +0.002 A 
ATOM     31  C   UNL     1       2.692  -1.444   2.421  0.00  0.00    +0.025 A 
ATOM     32  C   UNL     1       3.367  -0.826   1.376  0.00  0.00    +0.053 A 
ATOM     33  C   UNL     1       2.819   0.297   0.768  0.00  0.00    +0.025 A 
ATOM     34  C   UNL     1       1.607   0.794   1.204  0.00  0.00    +0.002 A 
ENDBRANCH  28  32
BRANCH  28  35
ATOM     35  C   UNL     1       4.872  -2.695   1.065  0.00  0.00    +0.053 A 
ATOM     36  C   UNL     1       3.942  -3.639   0.648  0.00  0.00    +0.025 A 
ATOM     37  C   UNL     1       4.222  -4.985   0.776  0.00  0.00    +0.002 A 
ATOM     38  C   UNL     1       5.426  -5.394   1.319  0.00  0.00    +0.000 A 
ATOM     39  C   UNL     1       6.354  -4.457   1.736  0.00  0.00    +0.002 A 
ATOM     40  C   UNL     1       6.083  -3.109   1.606  0.00  0.00    +0.025 A 
ENDBRANCH  28  35
ENDBRANCH   1  28
TORSDOF 8
