REMARK  Name = ZINC01249723
REMARK  9 active torsions:
REMARK  status: ('A' for Active; 'I' for Inactive)
REMARK    1  A    between atoms: C_4  and  C_7
REMARK    2  A    between atoms: C_7  and  O_8
REMARK    3  A    between atoms: O_8  and  C_9
REMARK    4  A    between atoms: C_12  and  N_15
REMARK    5  A    between atoms: C_16  and  C_18
REMARK    6  A    between atoms: C_18  and  S_19
REMARK    7  A    between atoms: S_19  and  C_20
REMARK    8  A    between atoms: N_33  and  C_34
REMARK    9  A    between atoms: C_34  and  C_35
REMARK                            x       y       z     vdW  Elec       q    Type
REMARK                         _______ _______ _______ _____ _____    ______ ____
ROOT
ATOM      1  S   UNL     1      11.203  -4.525   5.139  0.00  0.00    -0.078 S 
ENDROOT
BRANCH   1   2
ATOM      2  C   UNL     1      12.797  -5.274   5.173  0.00  0.00    +0.173 A 
ATOM      3  N   UNL     1      13.385  -5.605   4.041  0.00  0.00    -0.216 NA
ATOM      4  C   UNL     1      14.586  -6.170   4.038  0.00  0.00    +0.117 A 
ATOM      5  C   UNL     1      15.287  -6.443   5.225  0.00  0.00    +0.076 A 
ATOM      6  C   UNL     1      16.600  -7.069   5.062  0.00  0.00    -0.023 A 
ATOM      7  C   UNL     1      17.006  -7.321   3.801  0.00  0.00    -0.004 A 
ATOM      8  S   UNL     1      15.684  -6.748   2.769  0.00  0.00    -0.073 S 
ATOM      9  C   UNL     1      18.297  -7.950   3.372  0.00  0.00    +0.043 C 
ATOM     10  C   UNL     1      19.264  -7.934   4.564  0.00  0.00    +0.005 C 
ATOM     11  C   UNL     1      18.526  -8.453   5.802  0.00  0.00    +0.005 C 
ATOM     12  C   UNL     1      17.484  -7.429   6.253  0.00  0.00    +0.037 C 
ATOM     13  C   UNL     1      14.626  -6.072   6.439  0.00  0.00    +0.264 A 
ATOM     14  O   UNL     1      15.158  -6.270   7.517  0.00  0.00    -0.267 OA
ATOM     15  N   UNL     1      13.410  -5.498   6.372  0.00  0.00    -0.280 N 
BRANCH  15  16
ATOM     16  C   UNL     1      12.730  -5.112   7.611  0.00  0.00    +0.201 C 
BRANCH  16  17
ATOM     17  C   UNL     1      11.892  -6.263   8.104  0.00  0.00    +0.125 A 
ATOM     18  C   UNL     1      12.300  -7.229   8.946  0.00  0.00    +0.046 A 
ATOM     19  C   UNL     1      11.201  -8.097   9.138  0.00  0.00    +0.041 A 
ATOM     20  C   UNL     1      10.186  -7.610   8.401  0.00  0.00    +0.195 A 
ATOM     21  O   UNL     1      10.609  -6.495   7.782  0.00  0.00    -0.466 OA
ENDBRANCH  16  17
ENDBRANCH  15  16
ENDBRANCH   1   2
BRANCH   1  22
ATOM     22  C   UNL     1      10.800  -4.430   3.373  0.00  0.00    +0.173 C 
BRANCH  22  24
ATOM     23  N   UNL     1       8.932  -3.626   1.965  0.00  0.00    -0.285 N 
ATOM     24  C   UNL     1       9.442  -3.800   3.200  0.00  0.00    +0.227 C 
ATOM     25  O   UNL     1       8.808  -3.450   4.173  0.00  0.00    -0.275 OA
ATOM     26  H   UNL     1       9.404  -3.975   1.192  0.00  0.00    +0.155 HD
BRANCH  23  30
ATOM     27  C   UNL     1       5.329  -1.589   1.465  0.00  0.00    +0.121 A 
ATOM     28  C   UNL     1       6.195  -1.226   2.486  0.00  0.00    +0.047 A 
ATOM     29  C   UNL     1       7.388  -1.900   2.652  0.00  0.00    +0.027 A 
ATOM     30  C   UNL     1       7.721  -2.942   1.797  0.00  0.00    +0.034 A 
ATOM     31  C   UNL     1       6.854  -3.305   0.775  0.00  0.00    +0.027 A 
ATOM     32  C   UNL     1       5.658  -2.634   0.614  0.00  0.00    +0.047 A 
BRANCH  27  33
ATOM     33  O   UNL     1       4.154  -0.924   1.301  0.00  0.00    -0.487 OA
BRANCH  33  34
ATOM     34  C   UNL     1       3.878   0.141   2.213  0.00  0.00    +0.264 C 
BRANCH  34  38
ATOM     35  C   UNL     1       0.094   1.883   1.272  0.00  0.00    +0.000 A 
ATOM     36  C   UNL     1       0.167   0.828   2.162  0.00  0.00    +0.000 A 
ATOM     37  C   UNL     1       1.391   0.264   2.467  0.00  0.00    +0.007 A 
ATOM     38  C   UNL     1       2.543   0.755   1.881  0.00  0.00    -0.010 A 
ATOM     39  C   UNL     1       2.470   1.809   0.989  0.00  0.00    +0.007 A 
ATOM     40  C   UNL     1       1.246   2.374   0.686  0.00  0.00    +0.000 A 
ENDBRANCH  34  38
ENDBRANCH  33  34
ENDBRANCH  27  33
ENDBRANCH  23  30
ENDBRANCH  22  24
ENDBRANCH   1  22
TORSDOF 9
