REMARK  Name = ZINC35531883
REMARK  12 active torsions:
REMARK  status: ('A' for Active; 'I' for Inactive)
REMARK    1  A    between atoms: C_1  and  C_2
REMARK    2  A    between atoms: C_2  and  O_3
REMARK    3  A    between atoms: O_3  and  C_4
REMARK    4  A    between atoms: C_4  and  C_6
REMARK    5  A    between atoms: C_11  and  N_12
REMARK    6  A    between atoms: C_13  and  C_15
REMARK    7  A    between atoms: C_15  and  S_16
REMARK    8  A    between atoms: S_16  and  C_17
REMARK    9  A    between atoms: N_29  and  C_30
REMARK   10  A    between atoms: C_30  and  C_31
REMARK   11  A    between atoms: C_31  and  C_32
REMARK   12  A    between atoms: C_31  and  C_33
REMARK                            x       y       z     vdW  Elec       q    Type
REMARK                         _______ _______ _______ _____ _____    ______ ____
ROOT
ATOM      1  S   UNL     1       1.563  -8.641  -1.266  0.00  0.00    -0.076 S 
ENDROOT
BRANCH   1   2
ATOM      2  C   UNL     1       0.832  -9.674  -0.040  0.00  0.00    +0.198 A 
ATOM      3  N   UNL     1       0.044  -9.280   0.931  0.00  0.00    -0.120 NA
ATOM      4  N   UNL     1      -0.318 -10.407   1.680  0.00  0.00    -0.109 NA
ATOM      5  C   UNL     1       0.262 -11.457   1.141  0.00  0.00    +0.240 A 
ATOM      6  N   UNL     1       0.981 -11.029   0.063  0.00  0.00    -0.255 N 
ATOM      7  C   UNL     1       1.712 -11.939  -0.722  0.00  0.00    +0.071 A 
ATOM      8  C   UNL     1       2.502 -11.708  -1.845  0.00  0.00    +0.035 A 
ATOM      9  C   UNL     1       3.123 -12.743  -2.451  0.00  0.00    +0.048 A 
ATOM     10  S   UNL     1       2.678 -14.086  -1.544  0.00  0.00    -0.090 S 
ATOM     11  C   UNL     1       1.655 -13.280  -0.342  0.00  0.00    +0.101 A 
ATOM     12  C   UNL     1       0.909 -13.705   0.766  0.00  0.00    +0.270 A 
ATOM     13  O   UNL     1       0.881 -14.884   1.071  0.00  0.00    -0.266 OA
ATOM     14  N   UNL     1       0.228 -12.797   1.498  0.00  0.00    -0.276 N 
BRANCH  14  15
ATOM     15  C   UNL     1      -0.558 -13.228   2.657  0.00  0.00    +0.131 C 
BRANCH  15  16
ATOM     16  C   UNL     1      -1.979 -13.575   2.209  0.00  0.00    +0.003 C 
ATOM     17  C   UNL     1      -1.937 -14.786   1.274  0.00  0.00    +0.009 C 
ATOM     18  C   UNL     1      -2.833 -13.906   3.434  0.00  0.00    +0.009 C 
ENDBRANCH  15  16
ENDBRANCH  14  15
ENDBRANCH   1   2
BRANCH   1  19
ATOM     19  C   UNL     1       0.976  -6.977  -0.845  0.00  0.00    +0.173 C 
BRANCH  19  21
ATOM     20  N   UNL     1       1.232  -4.675  -1.712  0.00  0.00    -0.284 N 
ATOM     21  C   UNL     1       1.536  -5.982  -1.829  0.00  0.00    +0.228 C 
ATOM     22  O   UNL     1       2.260  -6.359  -2.727  0.00  0.00    -0.275 OA
ATOM     23  H   UNL     1       0.717  -4.362  -0.952  0.00  0.00    +0.155 HD
BRANCH  20  29
ATOM     24  C   UNL     1       2.022  -2.466  -2.320  0.00  0.00    +0.080 A 
ATOM     25  C   UNL     1       2.453  -1.571  -3.303  0.00  0.00    +0.017 A 
ATOM     26  C   UNL     1       2.513  -1.973  -4.620  0.00  0.00    +0.001 A 
ATOM     27  C   UNL     1       2.148  -3.262  -4.975  0.00  0.00    +0.002 A 
ATOM     28  C   UNL     1       1.719  -4.157  -4.016  0.00  0.00    +0.024 A 
ATOM     29  C   UNL     1       1.658  -3.772  -2.683  0.00  0.00    +0.047 A 
BRANCH  24  30
ATOM     30  C   UNL     1       1.956  -2.042  -0.910  0.00  0.00    +0.341 C 
ATOM     31  O   UNL     1       1.501  -2.794  -0.071  0.00  0.00    -0.245 OA
BRANCH  30  32
ATOM     32  O   UNL     1       2.401  -0.822  -0.551  0.00  0.00    -0.461 OA
BRANCH  32  34
ATOM     33  C   UNL     1       2.855   0.934   1.045  0.00  0.00    +0.048 C 
ATOM     34  C   UNL     1       2.307  -0.478   0.832  0.00  0.00    +0.229 C 
ENDBRANCH  32  34
ENDBRANCH  30  32
ENDBRANCH  24  30
ENDBRANCH  20  29
ENDBRANCH  19  21
ENDBRANCH   1  19
TORSDOF 9
