REMARK  Name = ZINC43492515
REMARK  4 active torsions:
REMARK  status: ('A' for Active; 'I' for Inactive)
REMARK    1  A    between atoms: C_6  and  N_7
REMARK    2  A    between atoms: N_10  and  C_11
REMARK    3  A    between atoms: C_11  and  C_12
REMARK    4  A    between atoms: C_12  and  N_17
REMARK                            x       y       z     vdW  Elec       q    Type
REMARK                         _______ _______ _______ _____ _____    ______ ____
ROOT
ATOM      1  N   UNL     1      -1.204  -0.770  -0.025  0.00  0.00    -0.269 N 
ATOM      2  C   UNL     1      -2.368  -0.104   0.099  0.00  0.00    +0.304 C 
ATOM      3  O   UNL     1      -2.376   1.112   0.103  0.00  0.00    -0.253 OA
ATOM      4  N   UNL     1      -3.525  -0.785   0.217  0.00  0.00    -0.300 N 
ATOM      5  H   UNL     1      -1.203  -1.738  -0.093  0.00  0.00    +0.156 HD
ATOM      6  H   UNL     1      -3.519  -1.755   0.213  0.00  0.00    +0.150 HD
ENDROOT
BRANCH   1  12
ATOM      7  C   UNL     1       1.142  -0.612   0.527  0.00  0.00    +0.027 A 
ATOM      8  C   UNL     1       2.340   0.080   0.499  0.00  0.00    +0.051 A 
ATOM      9  C   UNL     1       2.403   1.321  -0.111  0.00  0.00    +0.162 A 
ATOM     10  C   UNL     1       1.269   1.871  -0.694  0.00  0.00    +0.164 A 
ATOM     11  C   UNL     1       0.070   1.180  -0.668  0.00  0.00    +0.072 A 
ATOM     12  C   UNL     1       0.007  -0.065  -0.055  0.00  0.00    +0.038 A 
ATOM     13  O   UNL     1       1.345   3.094  -1.294  0.00  0.00    -0.488 OA
ATOM     14  C   UNL     1       1.563   4.205  -0.421  0.00  0.00    +0.232 C 
ATOM     15  C   UNL     1       3.045   4.380  -0.131  0.00  0.00    +0.082 C 
ATOM     16  C   UNL     1       3.627   3.205   0.640  0.00  0.00    +0.232 C 
ATOM     17  O   UNL     1       3.580   2.012  -0.144  0.00  0.00    -0.488 OA
ENDBRANCH   1  12
BRANCH   4  18
ATOM     18  C   UNL     1      -4.792  -0.060   0.351  0.00  0.00    +0.094 C 
BRANCH  18  19
ATOM     19  C   UNL     1      -5.926  -1.058   0.594  0.00  0.00    -0.050 C 
ATOM     20  C   UNL     1      -6.146  -1.925  -0.662  0.00  0.00    -0.010 C 
ATOM     21  C   UNL     1      -7.681  -2.120  -0.726  0.00  0.00    -0.001 C 
ATOM     22  C   UNL     1      -8.219  -0.741  -0.269  0.00  0.00    -0.001 C 
ATOM     23  C   UNL     1      -7.245  -0.305   0.844  0.00  0.00    -0.010 C 
BRANCH  19  24
ATOM     24  N   UNL     1      -5.608  -1.911   1.747  0.00  0.00    +0.386 N 
ATOM     25  C   UNL     1      -6.614  -2.969   1.854  0.00  0.00    -0.067 C 
ATOM     26  C   UNL     1      -6.114  -4.071   2.794  0.00  0.00    +0.050 C 
ATOM     27  S   UNL     1      -5.876  -3.347   4.447  0.00  0.00    -0.164 S 
ATOM     28  C   UNL     1      -4.888  -1.860   4.092  0.00  0.00    +0.050 C 
ATOM     29  C   UNL     1      -5.572  -1.088   2.958  0.00  0.00    -0.067 C 
ATOM     30  H   UNL     1      -4.701  -2.331   1.606  0.00  0.00    -0.081 HD
ENDBRANCH  19  24
ENDBRANCH  18  19
ENDBRANCH   4  18
TORSDOF 4
