REMARK  Name = ZINC12163924
REMARK  8 active torsions:
REMARK  status: ('A' for Active; 'I' for Inactive)
REMARK    1  A    between atoms: C_1  and  N_2
REMARK    2  A    between atoms: C_6  and  S_7
REMARK    3  A    between atoms: S_7  and  C_8
REMARK    4  A    between atoms: C_8  and  C_9
REMARK    5  A    between atoms: C_9  and  N_10
REMARK    6  A    between atoms: C_11  and  C_13
REMARK    7  A    between atoms: C_13  and  N_55
REMARK    8  A    between atoms: C_22  and  C_25
REMARK                            x       y       z     vdW  Elec       q    Type
REMARK                         _______ _______ _______ _____ _____    ______ ____
ROOT
ATOM      1  C   UNL     1       5.396   0.816  -0.916  0.00  0.00    -0.038 C 
ATOM      2  C   UNL     1       5.381   0.420   0.547  0.00  0.00    -0.022 A 
ATOM      3  C   UNL     1       6.363  -0.408   1.052  0.00  0.00    +0.005 A 
ATOM      4  C   UNL     1       6.368  -0.722   2.399  0.00  0.00    +0.000 A 
ATOM      5  C   UNL     1       5.394  -0.208   3.235  0.00  0.00    +0.004 A 
ATOM      6  C   UNL     1       4.404   0.612   2.728  0.00  0.00    +0.046 A 
ATOM      7  C   UNL     1       4.394   0.920   1.375  0.00  0.00    +0.123 A 
ATOM      8  O   UNL     1       3.412   1.709   0.859  0.00  0.00    -0.486 OA
ATOM      9  C   UNL     1       2.490   1.048  -0.016  0.00  0.00    +0.187 C 
ATOM     10  C   UNL     1       3.025   1.015  -1.431  0.00  0.00    -0.028 C 
ATOM     11  N   UNL     1       4.232   0.174  -1.572  0.00  0.00    +0.391 N 
ATOM     12  H   UNL     1       4.057  -0.732  -1.120  0.00  0.00    -0.080 HD
ENDROOT
BRANCH   9  13
ATOM     13  C   UNL     1       1.175   1.783   0.000  0.00  0.00    -0.009 A 
ATOM     14  C   UNL     1      -0.013   1.076   0.008  0.00  0.00    +0.007 A 
ATOM     15  C   UNL     1      -1.219   1.751   0.017  0.00  0.00    +0.000 A 
ATOM     16  C   UNL     1      -1.238   3.133   0.030  0.00  0.00    +0.000 A 
ATOM     17  C   UNL     1      -0.050   3.840   0.022  0.00  0.00    +0.000 A 
ATOM     18  C   UNL     1       1.156   3.165   0.008  0.00  0.00    +0.007 A 
ENDBRANCH   9  13
BRANCH  11  19
ATOM     19  C   UNL     1       4.520  -0.053  -2.998  0.00  0.00    +0.019 C 
BRANCH  19  21
ATOM     20  N   UNL     1       4.984   1.255  -5.045  0.00  0.00    -0.316 N 
ATOM     21  C   UNL     1       4.711   1.252  -3.725  0.00  0.00    +0.196 C 
ATOM     22  O   UNL     1       4.620   2.301  -3.123  0.00  0.00    -0.278 OA
ATOM     23  H   UNL     1       5.057   0.416  -5.527  0.00  0.00    +0.149 HD
BRANCH  20  24
ATOM     24  C   UNL     1       5.169   2.524  -5.753  0.00  0.00    +0.115 C 
BRANCH  24  25
ATOM     25  C   UNL     1       5.465   2.247  -7.228  0.00  0.00    +0.096 C 
BRANCH  25  26
ATOM     26  S   UNL     1       5.695   3.816  -8.102  0.00  0.00    -0.084 S 
BRANCH  26  32
ATOM     27  C   UNL     1       6.325   5.433 -10.916  0.00  0.00    +0.152 C 
ATOM     28  N   UNL     1       6.264   3.972 -10.837  0.00  0.00    -0.312 N 
ATOM     29  C   UNL     1       6.448   3.081 -11.858  0.00  0.00    +0.225 A 
ATOM     30  N   UNL     1       6.308   1.885 -11.360  0.00  0.00    -0.137 NA
ATOM     31  N   UNL     1       6.055   1.958 -10.102  0.00  0.00    -0.123 NA
ATOM     32  C   UNL     1       6.011   3.216  -9.728  0.00  0.00    +0.191 A 
ENDBRANCH  26  32
ENDBRANCH  25  26
ENDBRANCH  24  25
ENDBRANCH  20  24
ENDBRANCH  19  21
ENDBRANCH  11  19
TORSDOF 7
