REMARK  Name = ZINC37572238
REMARK  10 active torsions:
REMARK  status: ('A' for Active; 'I' for Inactive)
REMARK    1  A    between atoms: C_1  and  O_2
REMARK    2  A    between atoms: O_2  and  C_3
REMARK    3  A    between atoms: C_5  and  C_11
REMARK    4  A    between atoms: C_7  and  O_9
REMARK    5  A    between atoms: O_9  and  C_10
REMARK    6  A    between atoms: C_11  and  N_12
REMARK    7  A    between atoms: C_15  and  N_18
REMARK    8  A    between atoms: N_18  and  C_19
REMARK    9  A    between atoms: N_18  and  S_26
REMARK   10  A    between atoms: S_26  and  C_29
REMARK                            x       y       z     vdW  Elec       q    Type
REMARK                         _______ _______ _______ _____ _____    ______ ____
ROOT
ATOM      1  N   UNL     1       0.547  -5.275  -3.471  0.00  0.00    +0.382 N 
ATOM      2  C   UNL     1      -0.485  -4.700  -2.600  0.00  0.00    -0.077 C 
ATOM      3  C   UNL     1      -1.866  -4.930  -3.219  0.00  0.00    +0.006 C 
ATOM      4  C   UNL     1      -2.106  -6.435  -3.374  0.00  0.00    +0.095 C 
ATOM      5  C   UNL     1      -0.982  -7.036  -4.223  0.00  0.00    +0.006 C 
ATOM      6  C   UNL     1       0.366  -6.728  -3.567  0.00  0.00    -0.077 C 
ATOM      7  H   UNL     1       0.473  -4.867  -4.391  0.00  0.00    -0.081 HD
ENDROOT
BRANCH   1   8
ATOM      8  C   UNL     1       1.874  -4.984  -2.913  0.00  0.00    -0.043 C 
BRANCH   8  11
ATOM      9  C   UNL     1       1.956  -1.356  -1.854  0.00  0.00    +0.124 A 
ATOM     10  C   UNL     1       1.739  -2.727  -1.842  0.00  0.00    +0.047 A 
ATOM     11  C   UNL     1       2.111  -3.495  -2.929  0.00  0.00    -0.057 A 
ATOM     12  C   UNL     1       2.698  -2.902  -4.029  0.00  0.00    +0.047 A 
ATOM     13  C   UNL     1       2.917  -1.532  -4.046  0.00  0.00    +0.124 A 
ATOM     14  C   UNL     1       2.540  -0.757  -2.959  0.00  0.00    +0.091 A 
BRANCH   9  16
ATOM     15  C   UNL     1       1.839   0.804  -0.868  0.00  0.00    +0.277 C 
ATOM     16  O   UNL     1       1.591  -0.601  -0.784  0.00  0.00    -0.495 OA
ENDBRANCH   9  16
BRANCH  13  17
ATOM     17  O   UNL     1       3.495  -0.948  -5.129  0.00  0.00    -0.495 OA
ATOM     18  C   UNL     1       3.689   0.467  -5.077  0.00  0.00    +0.277 C 
ENDBRANCH  13  17
ENDBRANCH   8  11
ENDBRANCH   1   8
BRANCH   4  19
ATOM     19  N   UNL     1      -3.393  -6.660  -4.035  0.00  0.00    -0.200 N 
BRANCH  19  20
ATOM     20  C   UNL     1      -3.587  -6.233  -5.352  0.00  0.00    +0.052 A 
ATOM     21  C   UNL     1      -3.718  -4.879  -5.633  0.00  0.00    +0.027 A 
ATOM     22  C   UNL     1      -3.909  -4.460  -6.935  0.00  0.00    +0.040 A 
ATOM     23  C   UNL     1      -3.969  -5.388  -7.960  0.00  0.00    +0.124 A 
ATOM     24  C   UNL     1      -3.839  -6.739  -7.683  0.00  0.00    +0.040 A 
ATOM     25  C   UNL     1      -3.643  -7.162  -6.383  0.00  0.00    +0.027 A 
ATOM     26  F   UNL     1      -4.156  -4.976  -9.233  0.00  0.00    -0.205 F 
ENDBRANCH  19  20
BRANCH  19  27
ATOM     27  S   UNL     1      -4.620  -7.420  -3.222  0.00  0.00    +0.075 S 
ATOM     28  O   UNL     1      -5.538  -7.875  -4.206  0.00  0.00    -0.150 OA
ATOM     29  O   UNL     1      -4.005  -8.298  -2.289  0.00  0.00    -0.150 OA
BRANCH  27  30
ATOM     30  C   UNL     1      -5.460  -6.191  -2.279  0.00  0.00    +0.109 A 
ATOM     31  C   UNL     1      -5.049  -5.909  -0.990  0.00  0.00    +0.030 A 
ATOM     32  C   UNL     1      -5.708  -4.945  -0.250  0.00  0.00    +0.022 A 
ATOM     33  C   UNL     1      -6.779  -4.263  -0.800  0.00  0.00    +0.041 A 
ATOM     34  C   UNL     1      -7.189  -4.546  -2.090  0.00  0.00    +0.022 A 
ATOM     35  C   UNL     1      -6.526  -5.506  -2.831  0.00  0.00    +0.030 A 
ATOM     36 CL   UNL     1      -7.607  -3.053   0.129  0.00  0.00    -0.084 Cl
ENDBRANCH  27  30
ENDBRANCH  19  27
ENDBRANCH   4  19
TORSDOF 8
