REMARK  Name = ZINC33592161
REMARK  10 active torsions:
REMARK  status: ('A' for Active; 'I' for Inactive)
REMARK    1  A    between atoms: C_1  and  C_2
REMARK    2  A    between atoms: C_2  and  O_3
REMARK    3  A    between atoms: O_3  and  C_4
REMARK    4  A    between atoms: C_4  and  C_6
REMARK    5  A    between atoms: C_7  and  C_37
REMARK    6  A    between atoms: C_11  and  C_20
REMARK    7  A    between atoms: C_12  and  O_19
REMARK    8  A    between atoms: C_20  and  C_22
REMARK    9  A    between atoms: C_20  and  N_30
REMARK   10  A    between atoms: C_33  and  C_36
REMARK                            x       y       z     vdW  Elec       q    Type
REMARK                         _______ _______ _______ _____ _____    ______ ____
ROOT
ATOM      1  C   UNL     1      -2.432   2.036  -0.005  0.00  0.00    +0.108 A 
ATOM      2  C   UNL     1      -2.263   3.383   0.102  0.00  0.00    +0.117 A 
ATOM      3  O   UNL     1      -0.988   3.653   0.401  0.00  0.00    -0.459 OA
ATOM      4  C   UNL     1      -0.259   2.523   0.501  0.00  0.00    +0.144 A 
ATOM      5  C   UNL     1      -1.104   1.444   0.253  0.00  0.00    +0.040 A 
ATOM      6  C   UNL     1      -0.621   0.128   0.287  0.00  0.00    -0.003 A 
ATOM      7  C   UNL     1       0.687  -0.125   0.565  0.00  0.00    +0.127 A 
ATOM      8  C   UNL     1       1.575   0.944   0.822  0.00  0.00    +0.027 A 
ATOM      9  C   UNL     1       1.101   2.277   0.790  0.00  0.00    +0.029 A 
ATOM     10  C   UNL     1       1.990   3.332   1.047  0.00  0.00    +0.012 A 
ATOM     11  C   UNL     1       3.296   3.062   1.323  0.00  0.00    +0.001 A 
ATOM     12  C   UNL     1       3.764   1.750   1.355  0.00  0.00    +0.001 A 
ATOM     13  C   UNL     1       2.928   0.703   1.111  0.00  0.00    +0.012 A 
ATOM     14  C   UNL     1      -3.348   4.413  -0.082  0.00  0.00    +0.087 C 
ENDROOT
BRANCH   1  15
ATOM     15  C   UNL     1      -3.678   1.320  -0.315  0.00  0.00    +0.343 C 
ATOM     16  O   UNL     1      -4.470   1.067   0.572  0.00  0.00    -0.245 OA
BRANCH  15  17
ATOM     17  O   UNL     1      -3.942   0.944  -1.582  0.00  0.00    -0.461 OA
BRANCH  17  19
ATOM     18  C   UNL     1      -5.314  -0.102  -3.300  0.00  0.00    +0.048 C 
ATOM     19  C   UNL     1      -5.191   0.240  -1.814  0.00  0.00    +0.229 C 
ENDBRANCH  17  19
ENDBRANCH  15  17
ENDBRANCH   1  15
BRANCH   7  20
ATOM     20  O   UNL     1       1.140  -1.406   0.594  0.00  0.00    -0.506 OA
ATOM     21  H   UNL     1       2.197  -1.611   0.819  0.00  0.00    +0.292 HD
ENDBRANCH   7  20
BRANCH   6  22
ATOM     22  C   UNL     1      -1.561  -1.018   0.014  0.00  0.00    -0.001 C 
BRANCH  22  23
ATOM     23  C   UNL     1      -0.826  -2.322   0.187  0.00  0.00    -0.038 A 
ATOM     24  C   UNL     1      -0.722  -2.897   1.440  0.00  0.00    +0.005 A 
ATOM     25  C   UNL     1      -0.053  -4.095   1.599  0.00  0.00    +0.020 A 
ATOM     26  C   UNL     1       0.523  -4.716   0.505  0.00  0.00    +0.042 A 
ATOM     27  C   UNL     1       0.425  -4.139  -0.749  0.00  0.00    +0.040 A 
ATOM     28  C   UNL     1      -0.249  -2.942  -0.908  0.00  0.00    +0.044 A 
ATOM     29 CL   UNL     1      -0.372  -2.217  -2.480  0.00  0.00    -0.083 Cl
ATOM     30 CL   UNL     1       1.369  -6.219   0.705  0.00  0.00    -0.083 Cl
ENDBRANCH  22  23
BRANCH  22  31
ATOM     31  N   UNL     1      -2.688  -0.963   0.954  0.00  0.00    +0.387 N 
ATOM     32  C   UNL     1      -2.262  -0.429   2.255  0.00  0.00    -0.077 C 
ATOM     33  C   UNL     1      -3.484  -0.250   3.158  0.00  0.00    -0.015 C 
ATOM     34  C   UNL     1      -4.179  -1.601   3.343  0.00  0.00    -0.018 C 
ATOM     35  C   UNL     1      -4.569  -2.158   1.971  0.00  0.00    -0.015 C 
ATOM     36  C   UNL     1      -3.316  -2.282   1.102  0.00  0.00    -0.077 C 
ATOM     37  C   UNL     1      -5.436  -1.417   4.196  0.00  0.00    +0.007 C 
ATOM     38  H   UNL     1      -3.442  -0.277   0.541  0.00  0.00    -0.080 HD
ENDBRANCH  22  31
ENDBRANCH   6  22
TORSDOF 7
