REMARK  Name = ZINC40028526
REMARK  12 active torsions:
REMARK  status: ('A' for Active; 'I' for Inactive)
REMARK    1  A    between atoms: C_1  and  O_2
REMARK    2  A    between atoms: O_2  and  C_3
REMARK    3  A    between atoms: C_10  and  C_12
REMARK    4  A    between atoms: C_12  and  C_14
REMARK    5  A    between atoms: N_18  and  C_33
REMARK    6  A    between atoms: C_19  and  C_21
REMARK    7  A    between atoms: C_24  and  O_29
REMARK    8  A    between atoms: C_25  and  O_27
REMARK    9  A    between atoms: O_27  and  C_28
REMARK   10  A    between atoms: O_29  and  C_30
REMARK   11  A    between atoms: C_30  and  C_31
REMARK   12  A    between atoms: C_33  and  C_34
REMARK                            x       y       z     vdW  Elec       q    Type
REMARK                         _______ _______ _______ _____ _____    ______ ____
ROOT
ATOM      1  C   UNL     1      -0.025  -5.305  -1.270  0.00  0.00    +0.079 C 
ATOM      2  C   UNL     1      -0.387  -6.310  -2.100  0.00  0.00    +0.249 C 
ATOM      3  C   UNL     1      -1.296  -5.781  -3.136  0.00  0.00    +0.288 C 
ATOM      4  O   UNL     1      -1.794  -6.438  -4.029  0.00  0.00    -0.266 OA
ATOM      5  N   UNL     1      -1.491  -4.463  -2.947  0.00  0.00    -0.280 N 
ATOM      6  C   UNL     1      -0.720  -4.059  -1.765  0.00  0.00    +0.145 C 
ATOM      7  O   UNL     1       0.019  -7.597  -1.997  0.00  0.00    -0.282 OA
ENDROOT
BRANCH   6   8
ATOM      8  C   UNL     1       0.297  -3.014  -2.146  0.00  0.00    -0.019 A 
ATOM      9  C   UNL     1       1.021  -3.151  -3.316  0.00  0.00    +0.009 A 
ATOM     10  C   UNL     1       1.956  -2.196  -3.670  0.00  0.00    +0.050 A 
ATOM     11  C   UNL     1       2.168  -1.098  -2.852  0.00  0.00    +0.162 A 
ATOM     12  C   UNL     1       1.439  -0.960  -1.675  0.00  0.00    +0.162 A 
ATOM     13  C   UNL     1       0.500  -1.918  -1.328  0.00  0.00    +0.055 A 
BRANCH  12  14
ATOM     14  O   UNL     1       1.643   0.116  -0.868  0.00  0.00    -0.491 OA
ATOM     15  C   UNL     1       0.919   0.151   0.363  0.00  0.00    +0.277 C 
ENDBRANCH  12  14
BRANCH  11  16
ATOM     16  O   UNL     1       3.087  -0.157  -3.198  0.00  0.00    -0.484 OA
BRANCH  16  17
ATOM     17  C   UNL     1       3.799  -0.364  -4.420  0.00  0.00    +0.256 C 
BRANCH  17  18
ATOM     18  C   UNL     1       4.766   0.770  -4.637  0.00  0.00    +0.006 C 
ATOM     19  C   UNL     1       5.994   0.521  -5.019  0.00  0.00    +0.007 C 
ENDBRANCH  17  18
ENDBRANCH  16  17
ENDBRANCH  11  16
ENDBRANCH   6   8
BRANCH   1  20
ATOM     20  C   UNL     1       0.866  -5.407  -0.109  0.00  0.00    +0.230 C 
ATOM     21  O   UNL     1       2.042  -5.685  -0.266  0.00  0.00    -0.283 OA
BRANCH  20  29
ATOM     22  C   UNL     1      -2.206  -4.407   3.663  0.00  0.00    +0.163 A 
ATOM     23  C   UNL     1      -2.058  -4.323   5.035  0.00  0.00    +0.049 A 
ATOM     24  C   UNL     1      -0.823  -4.538   5.630  0.00  0.00    +0.004 A 
ATOM     25  C   UNL     1       0.271  -4.837   4.867  0.00  0.00    +0.012 A 
ATOM     26  C   UNL     1       0.145  -4.927   3.477  0.00  0.00    +0.025 A 
ATOM     27  C   UNL     1      -1.104  -4.716   2.866  0.00  0.00    +0.177 A 
ATOM     28  O   UNL     1      -0.940  -4.869   1.537  0.00  0.00    -0.448 OA
ATOM     29  C   UNL     1       0.341  -5.173   1.243  0.00  0.00    +0.176 A 
ATOM     30  C   UNL     1       1.075  -5.218   2.388  0.00  0.00    +0.062 A 
BRANCH  22  32
ATOM     31  C   UNL     1      -4.485  -3.797   3.962  0.00  0.00    +0.277 C 
ATOM     32  O   UNL     1      -3.421  -4.193   3.093  0.00  0.00    -0.491 OA
ENDBRANCH  22  32
ENDBRANCH  20  29
ENDBRANCH   1  20
BRANCH   5  33
ATOM     33  C   UNL     1      -2.329  -3.588  -3.771  0.00  0.00    +0.136 C 
BRANCH  33  34
ATOM     34  C   UNL     1      -3.732  -3.573  -3.221  0.00  0.00    -0.016 C 
ATOM     35  C   UNL     1      -4.302  -2.434  -2.912  0.00  0.00    +0.005 C 
ENDBRANCH  33  34
ENDBRANCH   5  33
TORSDOF 10
