REMARK  Name = ZINC36017180
REMARK  15 active torsions:
REMARK  status: ('A' for Active; 'I' for Inactive)
REMARK    1  A    between atoms: C_1  and  C_2
REMARK    2  A    between atoms: C_2  and  N_3
REMARK    3  A    between atoms: C_4  and  C_24
REMARK    4  A    between atoms: C_5  and  C_19
REMARK    5  A    between atoms: C_6  and  C_11
REMARK    6  A    between atoms: C_16  and  O_17
REMARK    7  A    between atoms: O_17  and  C_18
REMARK    8  A    between atoms: C_19  and  O_21
REMARK    9  A    between atoms: O_21  and  C_22
REMARK   10  A    between atoms: C_22  and  C_23
REMARK   11  A    between atoms: C_24  and  N_25
REMARK   12  A    between atoms: N_34  and  C_35
REMARK   13  A    between atoms: C_35  and  C_36
REMARK   14  A    between atoms: C_35  and  C_37
REMARK   15  A    between atoms: C_35  and  C_38
REMARK                            x       y       z     vdW  Elec       q    Type
REMARK                         _______ _______ _______ _____ _____    ______ ____
ROOT
ATOM      1  N   UNL     1       0.372  -0.427  -1.341  0.00  0.00    -0.261 N 
ATOM      2  C   UNL     1      -0.498  -0.769  -2.337  0.00  0.00    +0.010 C 
ATOM      3  C   UNL     1      -0.055  -1.281  -3.505  0.00  0.00    +0.077 C 
ATOM      4  C   UNL     1       1.440  -1.464  -3.672  0.00  0.00    +0.147 C 
ATOM      5  N   UNL     1       2.292  -1.065  -2.539  0.00  0.00    -0.288 N 
ATOM      6  C   UNL     1       1.700  -0.563  -1.437  0.00  0.00    +0.307 C 
ATOM      7  O   UNL     1       2.395  -0.227  -0.498  0.00  0.00    -0.252 OA
ATOM      8  H   UNL     1       3.256  -1.157  -2.586  0.00  0.00    +0.151 HD
ENDROOT
BRANCH   4   9
ATOM      9  C   UNL     1       1.701  -2.921  -3.958  0.00  0.00    +0.019 A 
ATOM     10  C   UNL     1       1.970  -3.792  -2.919  0.00  0.00    +0.009 A 
ATOM     11  C   UNL     1       2.210  -5.128  -3.181  0.00  0.00    +0.001 A 
ATOM     12  C   UNL     1       2.181  -5.596  -4.482  0.00  0.00    +0.004 A 
ATOM     13  C   UNL     1       1.913  -4.729  -5.523  0.00  0.00    +0.046 A 
ATOM     14  C   UNL     1       1.667  -3.389  -5.263  0.00  0.00    +0.125 A 
BRANCH  14  15
ATOM     15  O   UNL     1       1.397  -2.535  -6.286  0.00  0.00    -0.495 OA
ATOM     16  C   UNL     1       1.272  -3.105  -7.590  0.00  0.00    +0.277 C 
ENDBRANCH  14  15
ENDBRANCH   4   9
BRANCH   1  18
ATOM     17  C   UNL     1      -0.094   1.650  -0.138  0.00  0.00    +0.025 C 
ATOM     18  C   UNL     1      -0.179   0.123  -0.100  0.00  0.00    +0.111 C 
ENDBRANCH   1  18
BRANCH   3  19
ATOM     19  C   UNL     1      -0.955  -1.636  -4.537  0.00  0.00    +0.339 C 
ATOM     20  O   UNL     1      -1.058  -0.931  -5.523  0.00  0.00    -0.245 OA
BRANCH  19  21
ATOM     21  O   UNL     1      -1.699  -2.757  -4.427  0.00  0.00    -0.462 OA
BRANCH  21  22
ATOM     22  C   UNL     1      -2.504  -3.113  -5.553  0.00  0.00    +0.229 C 
ATOM     23  C   UNL     1      -3.362  -4.330  -5.201  0.00  0.00    +0.048 C 
ENDBRANCH  21  22
ENDBRANCH  19  21
ENDBRANCH   3  19
BRANCH   2  24
ATOM     24  C   UNL     1      -1.978  -0.571  -2.129  0.00  0.00    -0.026 C 
BRANCH  24  25
ATOM     25  N   UNL     1      -2.357   0.781  -2.563  0.00  0.00    +0.384 N 
ATOM     26  C   UNL     1      -3.709   1.056  -2.084  0.00  0.00    -0.077 C 
ATOM     27  C   UNL     1      -3.864   2.543  -1.853  0.00  0.00    +0.000 C 
ATOM     28  C   UNL     1      -4.449   3.200  -3.116  0.00  0.00    +0.107 C 
ATOM     29  N   UNL     1      -3.863   2.616  -4.339  0.00  0.00    -0.287 N 
ATOM     30  C   UNL     1      -2.453   2.305  -4.450  0.00  0.00    +0.091 C 
ATOM     31  C   UNL     1      -2.193   0.861  -3.964  0.00  0.00    -0.059 C 
ATOM     32  C   UNL     1      -4.669   2.362  -5.388  0.00  0.00    +0.303 C 
ATOM     33  O   UNL     1      -5.869   2.531  -5.288  0.00  0.00    -0.253 OA
ATOM     34  N   UNL     1      -4.145   1.921  -6.549  0.00  0.00    -0.294 N 
ATOM     35  H   UNL     1      -3.199   1.716  -6.608  0.00  0.00    +0.151 HD
ATOM     36  H   UNL     1      -1.728   1.440  -2.131  0.00  0.00    -0.081 HD
BRANCH  34  37
ATOM     37  C   UNL     1      -5.005   1.751  -7.723  0.00  0.00    +0.028 C 
ATOM     38  C   UNL     1      -5.639   3.094  -8.090  0.00  0.00    +0.031 C 
ATOM     39  C   UNL     1      -4.169   1.243  -8.899  0.00  0.00    +0.031 C 
ATOM     40  C   UNL     1      -6.106   0.737  -7.406  0.00  0.00    +0.031 C 
ENDBRANCH  34  37
ENDBRANCH  24  25
ENDBRANCH   2  24
TORSDOF 9
