REMARK  Name = ZINC13513603
REMARK  2 active torsions:
REMARK  status: ('A' for Active; 'I' for Inactive)
REMARK    1  A    between atoms: C_3  and  C_11
REMARK    2  A    between atoms: C_7  and  C_9
REMARK                            x       y       z     vdW  Elec       q    Type
REMARK                         _______ _______ _______ _____ _____    ______ ____
ROOT
ATOM      1  C   UNL     1      -2.761   3.577  -0.576  0.00  0.00    +0.021 C 
ATOM      2  C   UNL     1      -3.562   2.382   0.006  0.00  0.00    +0.035 C 
ATOM      3  C   UNL     1      -2.522   1.243   0.021  0.00  0.00    +0.189 C 
ATOM      4  N   UNL     1      -1.191   1.867   0.018  0.00  0.00    -0.278 N 
ATOM      5  C   UNL     1      -1.356   3.332   0.033  0.00  0.00    +0.109 C 
ATOM      6  C   UNL     1      -0.014   1.209   0.009  0.00  0.00    +0.329 C 
ATOM      7  O   UNL     1       0.002  -0.004   0.002  0.00  0.00    -0.263 OA
ENDROOT
BRANCH   6   8
ATOM      8  C   UNL     1       1.270   1.974   0.001  0.00  0.00    +0.440 C 
ATOM      9  O   UNL     1       1.253   3.186   0.007  0.00  0.00    -0.235 OA
ATOM     10  O   UNL     1       2.444   1.317  -0.014  0.00  0.00    -0.235 OA
ENDBRANCH   6   8
BRANCH   3  11
ATOM     11  C   UNL     1      -2.692   0.405   1.262  0.00  0.00    +0.376 C 
ATOM     12  O   UNL     1      -1.969   0.582   2.214  0.00  0.00    -0.244 OA
ATOM     13  O   UNL     1      -3.647  -0.537   1.310  0.00  0.00    -0.244 OA
ENDBRANCH   3  11
TORSDOF 2
