REMARK  Name = ZINC12652406
REMARK  7 active torsions:
REMARK  status: ('A' for Active; 'I' for Inactive)
REMARK    1  A    between atoms: C_1  and  O_2
REMARK    2  A    between atoms: O_2  and  C_3
REMARK    3  A    between atoms: C_6  and  C_9
REMARK    4  A    between atoms: C_21  and  C_23
REMARK    5  A    between atoms: C_28  and  O_29
REMARK    6  A    between atoms: O_29  and  C_30
REMARK    7  A    between atoms: C_34  and  C_37
REMARK                            x       y       z     vdW  Elec       q    Type
REMARK                         _______ _______ _______ _____ _____    ______ ____
ROOT
ATOM      1  C   UNL     1      -1.723  -1.511   0.925  0.00  0.00    +0.252 C 
ATOM      2  O   UNL     1      -2.933  -1.606   0.994  0.00  0.00    -0.270 OA
ATOM      3  N   UNL     1      -1.141  -1.154  -0.237  0.00  0.00    -0.254 N 
ATOM      4  C   UNL     1       0.238  -0.940  -0.278  0.00  0.00    +0.059 A 
ATOM      5  C   UNL     1       1.139  -1.973  -0.082  0.00  0.00    +0.025 A 
ATOM      6  C   UNL     1       2.494  -1.727  -0.222  0.00  0.00    +0.002 A 
ATOM      7  C   UNL     1       2.946  -0.462  -0.554  0.00  0.00    +0.002 A 
ATOM      8  C   UNL     1       2.048   0.576  -0.733  0.00  0.00    +0.025 A 
ATOM      9  C   UNL     1       0.693   0.336  -0.576  0.00  0.00    +0.053 A 
ATOM     10  N   UNL     1      -0.253   1.349  -0.653  0.00  0.00    -0.316 N 
ATOM     11  C   UNL     1      -1.227   1.433  -1.593  0.00  0.00    +0.017 C 
ATOM     12  C   UNL     1      -2.013   0.408  -1.968  0.00  0.00    +0.037 C 
ATOM     13  C   UNL     1      -1.955  -0.998  -1.424  0.00  0.00    +0.150 C 
ATOM     14  C   UNL     1      -3.002   0.599  -2.962  0.00  0.00    +0.163 C 
ATOM     15  O   UNL     1      -3.712  -0.339  -3.271  0.00  0.00    -0.292 OA
ATOM     16  C   UNL     1      -3.206   1.916  -3.647  0.00  0.00    +0.091 C 
ATOM     17  C   UNL     1      -1.871   2.670  -3.662  0.00  0.00    +0.068 C 
ATOM     18  C   UNL     1      -1.399   2.807  -2.215  0.00  0.00    +0.063 C 
ATOM     19  H   UNL     1      -0.214   2.050   0.016  0.00  0.00    +0.152 HD
ENDROOT
BRANCH   1  23
ATOM     20  C   UNL     1       0.669  -2.303   4.342  0.00  0.00    +0.120 A 
ATOM     21  C   UNL     1      -0.560  -2.934   4.196  0.00  0.00    +0.046 A 
ATOM     22  C   UNL     1      -1.339  -2.680   3.089  0.00  0.00    +0.016 A 
ATOM     23  C   UNL     1      -0.892  -1.786   2.112  0.00  0.00    +0.037 A 
ATOM     24  C   UNL     1       0.348  -1.158   2.261  0.00  0.00    +0.016 A 
ATOM     25  C   UNL     1       1.118  -1.414   3.373  0.00  0.00    +0.046 A 
BRANCH  20  27
ATOM     26  C   UNL     1       2.687  -1.875   5.522  0.00  0.00    +0.277 C 
ATOM     27  O   UNL     1       1.434  -2.557   5.434  0.00  0.00    -0.495 OA
ENDBRANCH  20  27
ENDBRANCH   1  23
BRANCH  13  28
ATOM     28  C   UNL     1      -1.407  -1.900  -2.500  0.00  0.00    +0.020 A 
ATOM     29  C   UNL     1      -0.650  -1.369  -3.527  0.00  0.00    +0.009 A 
ATOM     30  C   UNL     1      -0.143  -2.197  -4.512  0.00  0.00    +0.001 A 
ATOM     31  C   UNL     1      -0.400  -3.555  -4.477  0.00  0.00    +0.004 A 
ATOM     32  C   UNL     1      -1.160  -4.089  -3.455  0.00  0.00    +0.046 A 
ATOM     33  C   UNL     1      -1.666  -3.262  -2.463  0.00  0.00    +0.125 A 
BRANCH  33  34
ATOM     34  O   UNL     1      -2.414  -3.785  -1.456  0.00  0.00    -0.495 OA
ATOM     35  C   UNL     1      -2.640  -5.196  -1.482  0.00  0.00    +0.277 C 
ENDBRANCH  33  34
ENDBRANCH  13  28
BRANCH  17  36
ATOM     36  C   UNL     1      -2.062   4.037  -4.268  0.00  0.00    +0.109 A 
ATOM     37  C   UNL     1      -1.418   4.516  -5.348  0.00  0.00    +0.045 A 
ATOM     38  C   UNL     1      -1.901   5.826  -5.565  0.00  0.00    +0.041 A 
ATOM     39  C   UNL     1      -2.812   6.070  -4.605  0.00  0.00    +0.195 A 
ATOM     40  O   UNL     1      -2.910   4.980  -3.826  0.00  0.00    -0.468 OA
ENDBRANCH  17  36
TORSDOF 5
