REMARK  Name = ZINC04030469
REMARK  6 active torsions:
REMARK  status: ('A' for Active; 'I' for Inactive)
REMARK    1  A    between atoms: C_1  and  C_2
REMARK    2  A    between atoms: N_13  and  C_16
REMARK    3  A    between atoms: C_19  and  N_25
REMARK    4  A    between atoms: C_20  and  N_22
REMARK    5  A    between atoms: C_28  and  C_31
REMARK    6  A    between atoms: C_28  and  N_71
REMARK                            x       y       z     vdW  Elec       q    Type
REMARK                         _______ _______ _______ _____ _____    ______ ____
ROOT
ATOM      1  C   UNL     1       7.050  -1.464   7.730  0.00  0.00    +0.046 A 
ATOM      2  C   UNL     1       7.527  -0.540   6.810  0.00  0.00    +0.026 A 
ATOM      3  C   UNL     1       6.716  -0.110   5.780  0.00  0.00    +0.027 A 
ATOM      4  C   UNL     1       5.422  -0.601   5.663  0.00  0.00    +0.060 A 
ATOM      5  C   UNL     1       4.943  -1.521   6.586  0.00  0.00    +0.149 A 
ATOM      6  C   UNL     1       5.756  -1.955   7.614  0.00  0.00    +0.058 A 
ENDROOT
BRANCH   1  16
ATOM      7  C   UNL     1      10.009  -6.520  11.006  0.00  0.00    +0.007 C 
ATOM      8  C   UNL     1       9.287  -5.196  10.748  0.00  0.00    -0.013 C 
ATOM      9  C   UNL     1       8.844  -4.576  12.080  0.00  0.00    +0.004 C 
ATOM     10  C   UNL     1       7.961  -3.375  11.771  0.00  0.00    +0.014 C 
ATOM     11  C   UNL     1       8.665  -2.328  10.931  0.00  0.00    +0.088 C 
ATOM     12  C   UNL     1       9.653  -2.845   9.910  0.00  0.00    +0.088 C 
ATOM     13  C   UNL     1      10.237  -4.211  10.075  0.00  0.00    +0.016 C 
ATOM     14  C   UNL     1       8.989  -2.625   8.575  0.00  0.00    +0.230 C 
ATOM     15  O   UNL     1       9.391  -3.027   7.505  0.00  0.00    -0.275 OA
ATOM     16  N   UNL     1       7.875  -1.902   8.778  0.00  0.00    -0.210 N 
ATOM     17  C   UNL     1       7.615  -1.639  10.066  0.00  0.00    +0.230 C 
ATOM     18  O   UNL     1       6.696  -0.963  10.477  0.00  0.00    -0.275 OA
ENDBRANCH   1  16
BRANCH   4  19
ATOM     19  N   UNL     1       4.599  -0.164   4.620  0.00  0.00    -0.328 N 
ATOM     20  C   UNL     1       4.310   1.270   4.743  0.00  0.00    +0.104 C 
ATOM     21  C   UNL     1       3.295   1.681   3.673  0.00  0.00    +0.016 C 
ATOM     22  C   UNL     1       3.869   1.374   2.288  0.00  0.00    +0.015 C 
ATOM     23  C   UNL     1       4.209  -0.117   2.201  0.00  0.00    +0.016 C 
ATOM     24  C   UNL     1       5.196  -0.475   3.314  0.00  0.00    +0.104 C 
BRANCH  22  30
ATOM     25  C   UNL     1       3.409   1.466  -0.087  0.00  0.00    -0.077 C 
ATOM     26  C   UNL     1       2.407   1.963  -1.132  0.00  0.00    -0.019 C 
ATOM     27  C   UNL     1       1.077   1.228  -0.947  0.00  0.00    -0.004 C 
ATOM     28  C   UNL     1       0.568   1.461   0.478  0.00  0.00    -0.019 C 
ATOM     29  C   UNL     1       1.623   0.978   1.476  0.00  0.00    -0.077 C 
ATOM     30  N   UNL     1       2.871   1.741   1.262  0.00  0.00    +0.389 N 
ATOM     31  H   UNL     1       2.666   2.744   1.341  0.00  0.00    -0.080 HD
ENDBRANCH  22  30
BRANCH  22  32
ATOM     32  C   UNL     1       5.118   2.188   2.069  0.00  0.00    +0.200 C 
ATOM     33  O   UNL     1       6.208   1.690   2.255  0.00  0.00    -0.278 OA
ATOM     34  N   UNL     1       5.024   3.471   1.666  0.00  0.00    -0.330 N 
ATOM     35  H   UNL     1       4.154   3.889   1.576  0.00  0.00    +0.145 HD
ATOM     36  H   UNL     1       5.828   3.977   1.466  0.00  0.00    +0.145 HD
ENDBRANCH  22  32
ENDBRANCH   4  19
BRANCH   5  37
ATOM     37  N   UNL     1       3.562  -2.041   6.466  0.00  0.00    +0.058 N 
ATOM     38  O   UNL     1       3.107  -2.768   7.330  0.00  0.00    -0.126 OA
ATOM     39  O   UNL     1       2.880  -1.741   5.502  0.00  0.00    -0.126 OA
ENDBRANCH   5  37
TORSDOF 5
