REMARK  Name = ZINC10210945
REMARK  10 active torsions:
REMARK  status: ('A' for Active; 'I' for Inactive)
REMARK    1  A    between atoms: C_1  and  C_2
REMARK    2  A    between atoms: C_2  and  N_3
REMARK    3  A    between atoms: N_3  and  C_4
REMARK    4  A    between atoms: C_10  and  C_12
REMARK    5  A    between atoms: C_12  and  O_13
REMARK    6  A    between atoms: O_13  and  C_14
REMARK    7  A    between atoms: C_14  and  C_16
REMARK    8  A    between atoms: C_21  and  N_22
REMARK    9  A    between atoms: N_22  and  S_23
REMARK   10  A    between atoms: S_23  and  C_26
REMARK                            x       y       z     vdW  Elec       q    Type
REMARK                         _______ _______ _______ _____ _____    ______ ____
ROOT
ATOM      1  C   UNL     1       4.102  -0.047  -3.812  0.00  0.00    +0.081 A 
ATOM      2  C   UNL     1       4.305   1.055  -4.647  0.00  0.00    +0.017 A 
ATOM      3  C   UNL     1       4.965   2.166  -4.170  0.00  0.00    +0.001 A 
ATOM      4  C   UNL     1       5.431   2.197  -2.864  0.00  0.00    +0.002 A 
ATOM      5  C   UNL     1       5.234   1.120  -2.026  0.00  0.00    +0.025 A 
ATOM      6  C   UNL     1       4.575  -0.012  -2.490  0.00  0.00    +0.062 A 
ENDROOT
BRANCH   1   7
ATOM      7  C   UNL     1       3.396  -1.238  -4.315  0.00  0.00    +0.341 C 
ATOM      8  O   UNL     1       3.222  -2.195  -3.586  0.00  0.00    -0.245 OA
BRANCH   7   9
ATOM      9  O   UNL     1       2.944  -1.268  -5.584  0.00  0.00    -0.452 OA
BRANCH   9  10
ATOM     10  C   UNL     1       2.258  -2.474  -6.012  0.00  0.00    +0.328 C 
BRANCH  10  12
ATOM     11  N   UNL     1       1.168  -3.326  -8.062  0.00  0.00    -0.269 N 
ATOM     12  C   UNL     1       1.827  -2.324  -7.448  0.00  0.00    +0.258 C 
ATOM     13  O   UNL     1       2.075  -1.302  -8.052  0.00  0.00    -0.272 OA
BRANCH  11  14
ATOM     14  C   UNL     1       0.862  -3.231  -9.424  0.00  0.00    +0.036 A 
ATOM     15  C   UNL     1      -0.035  -2.269  -9.870  0.00  0.00    +0.023 A 
ATOM     16  C   UNL     1      -0.331  -2.175 -11.216  0.00  0.00    +0.002 A 
ATOM     17  C   UNL     1       0.256  -3.044 -12.117  0.00  0.00    +0.000 A 
ATOM     18  C   UNL     1       1.145  -4.007 -11.675  0.00  0.00    +0.002 A 
ATOM     19  C   UNL     1       1.449  -4.103 -10.332  0.00  0.00    +0.023 A 
ENDBRANCH  11  14
BRANCH  11  21
ATOM     20  C   UNL     1      -0.624  -4.301  -6.713  0.00  0.00    +0.025 C 
ATOM     21  C   UNL     1       0.771  -4.515  -7.303  0.00  0.00    +0.110 C 
ENDBRANCH  11  21
ENDBRANCH  10  12
ENDBRANCH   9  10
ENDBRANCH   7   9
ENDBRANCH   1   7
BRANCH   6  22
ATOM     22  N   UNL     1       4.381  -1.100  -1.650  0.00  0.00    -0.215 N 
ATOM     23  H   UNL     1       4.423  -2.002  -2.006  0.00  0.00    +0.174 HD
BRANCH  22  24
ATOM     24  S   UNL     1       4.077  -0.860  -0.040  0.00  0.00    +0.072 S 
ATOM     25  O   UNL     1       5.117  -0.022   0.448  0.00  0.00    -0.150 OA
ATOM     26  O   UNL     1       3.803  -2.138   0.517  0.00  0.00    -0.150 OA
BRANCH  24  27
ATOM     27  C   UNL     1       2.585   0.070   0.075  0.00  0.00    +0.112 A 
ATOM     28  C   UNL     1       1.369  -0.583   0.154  0.00  0.00    +0.032 A 
ATOM     29  C   UNL     1       0.197   0.143   0.244  0.00  0.00    +0.051 A 
ATOM     30  C   UNL     1       0.237   1.530   0.256  0.00  0.00    +0.162 A 
ATOM     31  C   UNL     1       1.460   2.186   0.179  0.00  0.00    +0.164 A 
ATOM     32  C   UNL     1       2.632   1.452   0.088  0.00  0.00    +0.078 A 
ATOM     33  O   UNL     1       1.522   3.546   0.198  0.00  0.00    -0.485 OA
ATOM     34  C   UNL     1       0.308   4.250  -0.087  0.00  0.00    +0.270 C 
ATOM     35  C   UNL     1      -0.823   3.606   0.726  0.00  0.00    +0.270 C 
ATOM     36  O   UNL     1      -0.927   2.231   0.337  0.00  0.00    -0.485 OA
ENDBRANCH  24  27
ENDBRANCH  22  24
ENDBRANCH   6  22
TORSDOF 9
