REMARK  Name = ZINC35921930
REMARK  13 active torsions:
REMARK  status: ('A' for Active; 'I' for Inactive)
REMARK    1  A    between atoms: C_1  and  C_2
REMARK    2  A    between atoms: C_2  and  N_3
REMARK    3  A    between atoms: C_8  and  C_19
REMARK    4  A    between atoms: N_10  and  C_11
REMARK    5  A    between atoms: C_16  and  O_17
REMARK    6  A    between atoms: O_17  and  C_18
REMARK    7  A    between atoms: C_19  and  N_20
REMARK    8  A    between atoms: N_20  and  C_21
REMARK    9  A    between atoms: N_20  and  S_25
REMARK   10  A    between atoms: C_21  and  C_22
REMARK   11  A    between atoms: C_22  and  C_23
REMARK   12  A    between atoms: C_22  and  C_24
REMARK   13  A    between atoms: S_25  and  C_28
REMARK                            x       y       z     vdW  Elec       q    Type
REMARK                         _______ _______ _______ _____ _____    ______ ____
ROOT
ATOM      1  N   UNL     1       0.128  -0.661   3.038  0.00  0.00    +0.383 N 
ATOM      2  C   UNL     1       1.313   0.055   2.548  0.00  0.00    -0.072 C 
ATOM      3  C   UNL     1       2.538  -0.334   3.388  0.00  0.00    +0.037 C 
ATOM      4  C   UNL     1       2.587  -1.841   3.454  0.00  0.00    +0.045 A 
ATOM      5  C   UNL     1       1.529  -2.630   3.121  0.00  0.00    -0.018 A 
ATOM      6  C   UNL     1       1.914  -3.955   3.290  0.00  0.00    +0.081 A 
ATOM      7  N   UNL     1       3.157  -3.969   3.711  0.00  0.00    -0.169 NA
ATOM      8  N   UNL     1       3.599  -2.641   3.823  0.00  0.00    -0.233 N 
ATOM      9  C   UNL     1       0.201  -2.083   2.662  0.00  0.00    -0.039 C 
ATOM     10  H   UNL     1       0.085  -0.583   4.043  0.00  0.00    -0.081 HD
ENDROOT
BRANCH   8  11
ATOM     11  C   UNL     1       4.871  -2.225   4.244  0.00  0.00    +0.107 A 
ATOM     12  C   UNL     1       4.995  -1.228   5.201  0.00  0.00    +0.031 A 
ATOM     13  C   UNL     1       6.248  -0.820   5.615  0.00  0.00    +0.002 A 
ATOM     14  C   UNL     1       7.382  -1.403   5.077  0.00  0.00    +0.004 A 
ATOM     15  C   UNL     1       7.266  -2.396   4.123  0.00  0.00    +0.048 A 
ATOM     16  C   UNL     1       6.012  -2.816   3.708  0.00  0.00    +0.145 A 
BRANCH  16  17
ATOM     17  O   UNL     1       5.897  -3.797   2.774  0.00  0.00    -0.493 OA
ATOM     18  C   UNL     1       7.110  -4.357   2.268  0.00  0.00    +0.277 C 
ENDBRANCH  16  17
ENDBRANCH   8  11
BRANCH   1  20
ATOM     19  C   UNL     1      -1.214   1.383   2.927  0.00  0.00    -0.017 C 
ATOM     20  C   UNL     1      -1.079  -0.064   2.452  0.00  0.00    -0.082 C 
ENDBRANCH   1  20
BRANCH   6  21
ATOM     21  C   UNL     1       1.054  -5.166   3.034  0.00  0.00    +0.166 C 
BRANCH  21  22
ATOM     22  N   UNL     1       1.429  -5.770   1.753  0.00  0.00    -0.170 NA
BRANCH  22  23
ATOM     23  S   UNL     1       0.348  -5.791   0.499  0.00  0.00    +0.061 S 
ATOM     24  O   UNL     1       0.613  -6.972  -0.246  0.00  0.00    -0.153 OA
ATOM     25  O   UNL     1      -0.929  -5.514   1.059  0.00  0.00    -0.153 OA
BRANCH  23  26
ATOM     26  C   UNL     1       0.742  -4.433  -0.552  0.00  0.00    +0.105 A 
ATOM     27  C   UNL     1       0.045  -3.245  -0.438  0.00  0.00    +0.028 A 
ATOM     28  C   UNL     1       0.354  -2.180  -1.262  0.00  0.00    +0.002 A 
ATOM     29  C   UNL     1       1.361  -2.302  -2.201  0.00  0.00    +0.000 A 
ATOM     30  C   UNL     1       2.059  -3.490  -2.316  0.00  0.00    +0.002 A 
ATOM     31  C   UNL     1       1.752  -4.554  -1.488  0.00  0.00    +0.028 A 
ENDBRANCH  23  26
ENDBRANCH  22  23
BRANCH  22  32
ATOM     32  C   UNL     1       2.761  -6.355   1.581  0.00  0.00    +0.113 C 
BRANCH  32  33
ATOM     33  C   UNL     1       2.744  -7.810   2.053  0.00  0.00    -0.001 C 
ATOM     34  C   UNL     1       4.102  -8.455   1.768  0.00  0.00    +0.008 C 
ATOM     35  C   UNL     1       2.463  -7.856   3.556  0.00  0.00    +0.008 C 
ENDBRANCH  32  33
ENDBRANCH  22  32
ENDBRANCH  21  22
ENDBRANCH   6  21
TORSDOF 9
