REMARK  Name = ZINC34750117
REMARK  9 active torsions:
REMARK  status: ('A' for Active; 'I' for Inactive)
REMARK    1  A    between atoms: C_1  and  C_2
REMARK    2  A    between atoms: C_2  and  C_3
REMARK    3  A    between atoms: C_3  and  N_4
REMARK    4  A    between atoms: C_17  and  S_19
REMARK    5  A    between atoms: S_19  and  C_20
REMARK    6  A    between atoms: C_20  and  C_21
REMARK    7  A    between atoms: C_24  and  N_27
REMARK    8  A    between atoms: C_32  and  C_34
REMARK    9  A    between atoms: C_32  and  C_35
REMARK                            x       y       z     vdW  Elec       q    Type
REMARK                         _______ _______ _______ _____ _____    ______ ____
ROOT
ATOM      1  N   UNL     1      -0.232  -2.631  -0.029  0.00  0.00    +0.382 N 
ATOM      2  C   UNL     1       0.111  -4.050  -0.188  0.00  0.00    -0.060 C 
ATOM      3  C   UNL     1      -1.175  -4.878  -0.274  0.00  0.00    +0.088 C 
ATOM      4  N   UNL     1      -2.001  -4.582   0.906  0.00  0.00    -0.318 N 
ATOM      5  C   UNL     1      -2.260  -3.171   1.235  0.00  0.00    +0.088 C 
ATOM      6  C   UNL     1      -0.922  -2.424   1.250  0.00  0.00    -0.060 C 
ATOM      7  C   UNL     1      -2.521  -5.600   1.685  0.00  0.00    +0.134 A 
ATOM      8  C   UNL     1      -3.846  -6.071   1.462  0.00  0.00    +0.051 A 
ATOM      9  C   UNL     1      -4.825  -5.622   0.474  0.00  0.00    -0.020 A 
ATOM     10  C   UNL     1      -6.025  -6.241   0.471  0.00  0.00    +0.021 A 
ATOM     11  S   UNL     1      -5.926  -7.443   1.767  0.00  0.00    -0.071 S 
ATOM     12  C   UNL     1      -4.270  -7.112   2.313  0.00  0.00    +0.115 A 
ATOM     13  N   UNL     1      -3.482  -7.605   3.248  0.00  0.00    -0.215 NA
ATOM     14  C   UNL     1      -2.256  -7.126   3.411  0.00  0.00    +0.191 A 
ATOM     15  N   UNL     1      -1.791  -6.150   2.639  0.00  0.00    -0.206 NA
ATOM     16  C   UNL     1      -7.172  -5.946  -0.445  0.00  0.00    +0.203 C 
ATOM     17  O   UNL     1      -6.904  -4.696  -1.100  0.00  0.00    -0.368 OA
ATOM     18  C   UNL     1      -5.589  -4.614  -1.654  0.00  0.00    +0.068 C 
ATOM     19  C   UNL     1      -4.550  -4.507  -0.533  0.00  0.00    +0.071 C 
ATOM     20  C   UNL     1      -5.310  -5.867  -2.487  0.00  0.00    +0.041 C 
ATOM     21  C   UNL     1      -5.493  -3.379  -2.553  0.00  0.00    +0.041 C 
ATOM     22  H   UNL     1      -0.836  -2.346  -0.785  0.00  0.00    -0.082 HD
ENDROOT
BRANCH   1  23
ATOM     23  C   UNL     1       0.997  -1.826  -0.056  0.00  0.00    -0.079 C 
BRANCH  23  25
ATOM     24  C   UNL     1       2.933  -1.105  -1.462  0.00  0.00    +0.002 C 
ATOM     25  C   UNL     1       1.653  -1.944  -1.433  0.00  0.00    -0.022 C 
ENDBRANCH  23  25
ENDBRANCH   1  23
BRANCH  14  26
ATOM     26  S   UNL     1      -1.223  -7.802   4.668  0.00  0.00    -0.081 S 
BRANCH  26  27
ATOM     27  C   UNL     1      -2.252  -9.080   5.441  0.00  0.00    +0.112 C 
BRANCH  27  28
ATOM     28  C   UNL     1      -1.477  -9.746   6.549  0.00  0.00    -0.037 A 
ATOM     29  C   UNL     1      -0.699 -10.856   6.278  0.00  0.00    +0.007 A 
ATOM     30  C   UNL     1       0.012 -11.467   7.294  0.00  0.00    +0.033 A 
ATOM     31  C   UNL     1      -0.056 -10.968   8.582  0.00  0.00    +0.126 A 
ATOM     32  C   UNL     1      -0.834  -9.857   8.853  0.00  0.00    +0.033 A 
ATOM     33  C   UNL     1      -1.541  -9.244   7.835  0.00  0.00    +0.007 A 
BRANCH  31  34
ATOM     34  N   UNL     1       0.704 -11.622   9.670  0.00  0.00    +0.056 N 
ATOM     35  O   UNL     1       1.384 -12.594   9.433  0.00  0.00    -0.126 OA
ATOM     36  O   UNL     1       0.645 -11.186  10.796  0.00  0.00    -0.126 OA
ENDBRANCH  31  34
ENDBRANCH  27  28
ENDBRANCH  26  27
ENDBRANCH  14  26
TORSDOF 6
