REMARK  Name = ZINC66756258
REMARK  6 active torsions:
REMARK  status: ('A' for Active; 'I' for Inactive)
REMARK    1  A    between atoms: C_6  and  C_7
REMARK    2  A    between atoms: C_7  and  C_10
REMARK    3  A    between atoms: C_10  and  N_11
REMARK    4  A    between atoms: C_12  and  C_14
REMARK    5  A    between atoms: C_14  and  S_15
REMARK    6  A    between atoms: S_15  and  C_16
REMARK                            x       y       z     vdW  Elec       q    Type
REMARK                         _______ _______ _______ _____ _____    ______ ____
ROOT
ATOM      1  N   UNL     1      -2.256   1.406  -0.534  0.00  0.00    -0.314 N 
ATOM      2  C   UNL     1      -3.206   2.256  -0.972  0.00  0.00    +0.223 C 
ATOM      3  O   UNL     1      -4.219   1.825  -1.481  0.00  0.00    -0.275 OA
ATOM      4  H   UNL     1      -1.446   1.751  -0.128  0.00  0.00    +0.149 HD
ENDROOT
BRANCH   1   5
ATOM      5  C   UNL     1      -2.448  -0.040  -0.672  0.00  0.00    +0.115 C 
BRANCH   5   6
ATOM      6  C   UNL     1      -1.263  -0.774  -0.042  0.00  0.00    +0.011 C 
ATOM      7  C   UNL     1      -1.263  -0.941   1.479  0.00  0.00    +0.014 C 
ATOM      8  C   UNL     1      -1.530  -2.147   0.577  0.00  0.00    +0.014 C 
BRANCH   6  14
ATOM      9  C   UNL     1       0.966   0.353  -0.205  0.00  0.00    +0.005 A 
ATOM     10  C   UNL     1       2.186   0.547  -0.825  0.00  0.00    +0.020 A 
ATOM     11  C   UNL     1       2.507  -0.176  -1.960  0.00  0.00    +0.041 A 
ATOM     12  C   UNL     1       1.607  -1.092  -2.474  0.00  0.00    +0.020 A 
ATOM     13  C   UNL     1       0.387  -1.285  -1.853  0.00  0.00    +0.005 A 
ATOM     14  C   UNL     1       0.067  -0.563  -0.718  0.00  0.00    -0.040 A 
ATOM     15 CL   UNL     1       4.039   0.067  -2.740  0.00  0.00    -0.084 Cl
ENDBRANCH   6  14
ENDBRANCH   5   6
ENDBRANCH   1   5
BRANCH   2  16
ATOM     16  C   UNL     1      -3.008   3.744  -0.831  0.00  0.00    +0.165 C 
BRANCH  16  17
ATOM     17  S   UNL     1      -4.449   4.612  -1.509  0.00  0.00    -0.146 S 
BRANCH  17  18
ATOM     18  C   UNL     1      -4.059   6.367  -1.265  0.00  0.00    +0.069 C 
ATOM     19  C   UNL     1      -4.023   6.687   0.239  0.00  0.00    +0.038 C 
ATOM     20  C   UNL     1      -4.012   8.220   0.453  0.00  0.00    +0.167 C 
ATOM     21  S   UNL     1      -4.889   8.841  -1.040  0.00  0.00    -0.030 S 
ATOM     22  O   UNL     1      -6.147   9.374  -0.648  0.00  0.00    -0.174 OA
ATOM     23  O   UNL     1      -3.996   9.644  -1.800  0.00  0.00    -0.174 OA
ATOM     24  C   UNL     1      -5.162   7.246  -1.920  0.00  0.00    +0.180 C 
ENDBRANCH  17  18
ENDBRANCH  16  17
ENDBRANCH   2  16
TORSDOF 6
