REMARK  Name = ZINC37131355
REMARK  6 active torsions:
REMARK  status: ('A' for Active; 'I' for Inactive)
REMARK    1  A    between atoms: C_1  and  C_2
REMARK    2  A    between atoms: C_2  and  C_4
REMARK    3  A    between atoms: C_2  and  N_11
REMARK    4  A    between atoms: C_9  and  O_10
REMARK    5  A    between atoms: N_11  and  C_12
REMARK    6  A    between atoms: C_15  and  N_19
REMARK                            x       y       z     vdW  Elec       q    Type
REMARK                         _______ _______ _______ _____ _____    ______ ____
ROOT
ATOM      1  N   UNL     1      -1.372  -0.511   0.012  0.00  0.00    -0.336 N 
ATOM      2  H   UNL     1      -1.810  -0.743  -0.822  0.00  0.00    +0.147 HD
ENDROOT
BRANCH   1   3
ATOM      3  C   UNL     1      -2.053  -0.660   1.224  0.00  0.00    +0.042 A 
ATOM      4  C   UNL     1      -1.430  -0.323   2.418  0.00  0.00    +0.026 A 
ATOM      5  C   UNL     1      -2.105  -0.472   3.614  0.00  0.00    +0.034 A 
ATOM      6  C   UNL     1      -3.401  -0.956   3.623  0.00  0.00    +0.127 A 
ATOM      7  C   UNL     1      -4.024  -1.293   2.436  0.00  0.00    +0.049 A 
ATOM      8  C   UNL     1      -3.357  -1.141   1.235  0.00  0.00    +0.041 A 
ATOM      9 BR   UNL     1      -4.213  -1.595  -0.388  0.00  0.00    -0.048 Br
BRANCH   6  10
ATOM     10  N   UNL     1      -4.120  -1.114   4.906  0.00  0.00    +0.056 N 
ATOM     11  O   UNL     1      -3.576  -0.821   5.945  0.00  0.00    -0.126 OA
ATOM     12  O   UNL     1      -5.253  -1.537   4.916  0.00  0.00    -0.126 OA
ENDBRANCH   6  10
ENDBRANCH   1   3
BRANCH   1  14
ATOM     13  C   UNL     1      -0.019   1.526   0.010  0.00  0.00    +0.033 C 
ATOM     14  C   UNL     1       0.002  -0.004   0.002  0.00  0.00    +0.101 C 
BRANCH  14  15
ATOM     15  C   UNL     1       0.707  -0.490  -1.238  0.00  0.00    +0.014 A 
ATOM     16  C   UNL     1      -0.022  -0.817  -2.365  0.00  0.00    +0.009 A 
ATOM     17  C   UNL     1       0.625  -1.264  -3.502  0.00  0.00    +0.001 A 
ATOM     18  C   UNL     1       2.002  -1.383  -3.516  0.00  0.00    +0.004 A 
ATOM     19  C   UNL     1       2.736  -1.057  -2.392  0.00  0.00    +0.046 A 
ATOM     20  C   UNL     1       2.090  -0.604  -1.250  0.00  0.00    +0.122 A 
BRANCH  20  21
ATOM     21  O   UNL     1       2.810  -0.277  -0.145  0.00  0.00    -0.506 OA
ATOM     22  H   UNL     1       2.952  -1.015   0.464  0.00  0.00    +0.292 HD
ENDBRANCH  20  21
ENDBRANCH  14  15
ENDBRANCH   1  14
TORSDOF 5
