REMARK  Name = ZINC18024420
REMARK  8 active torsions:
REMARK  status: ('A' for Active; 'I' for Inactive)
REMARK    1  A    between atoms: C_1  and  N_2
REMARK    2  A    between atoms: N_2  and  C_3
REMARK    3  A    between atoms: N_2  and  C_4
REMARK    4  A    between atoms: C_7  and  C_10
REMARK    5  A    between atoms: N_11  and  N_12
REMARK    6  A    between atoms: C_13  and  S_15
REMARK    7  A    between atoms: S_15  and  C_16
REMARK    8  A    between atoms: N_21  and  C_24
REMARK                            x       y       z     vdW  Elec       q    Type
REMARK                         _______ _______ _______ _____ _____    ______ ____
ROOT
ATOM      1  N   UNL     1      -7.135  -2.086   0.446  0.00  0.00    -0.217 N 
ATOM      2  C   UNL     1      -8.439  -1.650   0.374  0.00  0.00    +0.146 C 
ATOM      3  N   UNL     1      -8.704  -0.373   0.429  0.00  0.00    -0.380 N 
ATOM      4  H   UNL     1      -6.938  -3.035   0.405  0.00  0.00    +0.176 HD
ATOM      5  H   UNL     1      -9.623  -0.066   0.378  0.00  0.00    +0.158 HD
ATOM      6  H   UNL     1      -7.982   0.268   0.520  0.00  0.00    +0.158 HD
ENDROOT
BRANCH   1   8
ATOM      7  C   UNL     1      -4.864  -1.570   0.645  0.00  0.00    +0.138 C 
ATOM      8  N   UNL     1      -6.093  -1.159   0.578  0.00  0.00    -0.188 NA
BRANCH   7  12
ATOM      9  C   UNL     1      -1.705   1.239   1.044  0.00  0.00    +0.029 A 
ATOM     10  C   UNL     1      -1.420  -0.121   0.986  0.00  0.00    +0.024 A 
ATOM     11  C   UNL     1      -2.443  -1.036   0.857  0.00  0.00    +0.011 A 
ATOM     12  C   UNL     1      -3.767  -0.595   0.784  0.00  0.00    -0.005 A 
ATOM     13  C   UNL     1      -4.049   0.773   0.842  0.00  0.00    +0.011 A 
ATOM     14  C   UNL     1      -3.022   1.681   0.977  0.00  0.00    +0.024 A 
BRANCH   9  16
ATOM     15  C   UNL     1      -0.964   3.595   1.241  0.00  0.00    +0.129 C 
ATOM     16  N   UNL     1      -0.667   2.162   1.174  0.00  0.00    -0.336 N 
ATOM     17  C   UNL     1       0.721   1.698   1.245  0.00  0.00    +0.129 C 
ENDBRANCH   9  16
ENDBRANCH   7  12
ENDBRANCH   1   8
BRANCH   2  18
ATOM     18  S   UNL     1      -9.750  -2.815   0.208  0.00  0.00    -0.078 S 
BRANCH  18  19
ATOM     19  C   UNL     1     -11.245  -1.790   0.157  0.00  0.00    +0.149 C 
ATOM     20  C   UNL     1     -12.507  -2.673   0.083  0.00  0.00    +0.120 C 
ATOM     21  C   UNL     1     -13.140  -2.279  -1.234  0.00  0.00    +0.228 C 
ATOM     22  O   UNL     1     -14.166  -2.740  -1.685  0.00  0.00    -0.275 OA
ATOM     23  N   UNL     1     -12.388  -1.339  -1.820  0.00  0.00    -0.209 N 
ATOM     24  C   UNL     1     -11.296  -0.986  -1.124  0.00  0.00    +0.240 C 
ATOM     25  O   UNL     1     -10.480  -0.157  -1.466  0.00  0.00    -0.274 OA
BRANCH  23  26
ATOM     26  C   UNL     1     -12.714  -0.770  -3.059  0.00  0.00    +0.044 A 
ATOM     27  C   UNL     1     -13.836   0.040  -3.178  0.00  0.00    +0.025 A 
ATOM     28  C   UNL     1     -14.155   0.600  -4.399  0.00  0.00    +0.017 A 
ATOM     29  C   UNL     1     -13.359   0.354  -5.504  0.00  0.00    +0.018 A 
ATOM     30  C   UNL     1     -12.241  -0.452  -5.388  0.00  0.00    +0.017 A 
ATOM     31  C   UNL     1     -11.914  -1.010  -4.167  0.00  0.00    +0.025 A 
ATOM     32 BR   UNL     1     -13.800   1.122  -7.175  0.00  0.00    -0.050 Br
ENDBRANCH  23  26
ENDBRANCH  18  19
ENDBRANCH   2  18
TORSDOF 6
