REMARK  Name = ZINC31164721
REMARK  5 active torsions:
REMARK  status: ('A' for Active; 'I' for Inactive)
REMARK    1  A    between atoms: C_1  and  C_2
REMARK    2  A    between atoms: C_10  and  O_27
REMARK    3  A    between atoms: C_17  and  O_26
REMARK    4  A    between atoms: C_19  and  O_25
REMARK    5  A    between atoms: C_21  and  O_24
REMARK                            x       y       z     vdW  Elec       q    Type
REMARK                         _______ _______ _______ _____ _____    ______ ____
ROOT
ATOM      1  C   UNL     1      -3.310   3.559   4.348  0.00  0.00    +0.008 C 
ATOM      2  C   UNL     1      -2.614   3.143   3.050  0.00  0.00    -0.003 C 
ATOM      3  C   UNL     1      -1.161   3.600   3.080  0.00  0.00    +0.035 C 
ATOM      4  C   UNL     1      -0.391   3.104   1.876  0.00  0.00    -0.059 C 
ATOM      5  C   UNL     1      -0.770   2.024   1.204  0.00  0.00    +0.036 C 
ATOM      6  C   UNL     1      -1.980   1.281   1.599  0.00  0.00    +0.163 C 
ATOM      7  O   UNL     1      -2.438   0.418   0.879  0.00  0.00    -0.292 OA
ATOM      8  C   UNL     1      -2.640   1.613   2.917  0.00  0.00    +0.083 C 
ATOM      9  C   UNL     1      -0.018   1.502   0.010  0.00  0.00    +0.188 C 
ATOM     10  C   UNL     1       0.002  -0.004   0.002  0.00  0.00    +0.202 C 
ATOM     11  O   UNL     1      -0.807  -0.631  -0.647  0.00  0.00    -0.288 OA
ATOM     12  C   UNL     1       1.028  -0.699   0.802  0.00  0.00    +0.030 A 
ATOM     13  C   UNL     1       0.954  -2.083   0.978  0.00  0.00    +0.012 A 
ATOM     14  C   UNL     1       1.920  -2.735   1.716  0.00  0.00    +0.004 A 
ATOM     15  C   UNL     1       2.960  -2.018   2.280  0.00  0.00    +0.046 A 
ATOM     16  C   UNL     1       3.038  -0.643   2.114  0.00  0.00    +0.123 A 
ATOM     17  C   UNL     1       2.070   0.028   1.378  0.00  0.00    +0.036 A 
ATOM     18  C   UNL     1       2.163   1.520   1.235  0.00  0.00    +0.184 C 
ATOM     19  C   UNL     1       1.419   2.025  -0.001  0.00  0.00    +0.136 C 
ATOM     20  C   UNL     1       1.322   3.559   0.096  0.00  0.00    +0.046 C 
ATOM     21  C   UNL     1       0.836   3.904   1.500  0.00  0.00    +0.034 C 
ENDROOT
BRANCH  19  22
ATOM     22  O   UNL     1       2.093   1.622  -1.194  0.00  0.00    -0.382 OA
ATOM     23  H   UNL     1       3.140   1.917  -1.361  0.00  0.00    +0.210 HD
ENDBRANCH  19  22
BRANCH  18  24
ATOM     24  O   UNL     1       1.601   2.134   2.397  0.00  0.00    -0.384 OA
ATOM     25  H   UNL     1       1.576   3.230   2.482  0.00  0.00    +0.210 HD
ENDBRANCH  18  24
BRANCH  16  26
ATOM     26  O   UNL     1       4.065   0.049   2.673  0.00  0.00    -0.506 OA
ATOM     27  H   UNL     1       4.128   1.139   2.542  0.00  0.00    +0.292 HD
ENDBRANCH  16  26
BRANCH   9  28
ATOM     28  O   UNL     1      -0.683   1.960  -1.169  0.00  0.00    -0.373 OA
ATOM     29  H   UNL     1      -0.293   1.688  -2.161  0.00  0.00    +0.211 HD
ENDBRANCH   9  28
TORSDOF 4
