REMARK  Name = ZINC01947138
REMARK  12 active torsions:
REMARK  status: ('A' for Active; 'I' for Inactive)
REMARK    1  A    between atoms: C_1  and  C_2
REMARK    2  A    between atoms: C_2  and  O_3
REMARK    3  A    between atoms: O_3  and  C_4
REMARK    4  A    between atoms: C_4  and  C_6
REMARK    5  A    between atoms: C_10  and  N_11
REMARK    6  A    between atoms: C_12  and  C_14
REMARK    7  A    between atoms: C_14  and  O_15
REMARK    8  A    between atoms: O_15  and  C_16
REMARK    9  A    between atoms: C_16  and  C_18
REMARK   10  A    between atoms: C_18  and  C_19
REMARK   11  A    between atoms: C_19  and  N_20
REMARK   12  A    between atoms: C_32  and  C_36
REMARK                            x       y       z     vdW  Elec       q    Type
REMARK                         _______ _______ _______ _____ _____    ______ ____
ROOT
ATOM      1  N   UNL     1      -1.492  -0.852  -2.475  0.00  0.00    -0.277 N 
ATOM      2  C   UNL     1      -2.243  -1.282  -3.508  0.00  0.00    +0.255 C 
ATOM      3  O   UNL     1      -3.268  -1.896  -3.298  0.00  0.00    -0.272 OA
ATOM      4  H   UNL     1      -0.672  -0.360  -2.643  0.00  0.00    +0.155 HD
ENDROOT
BRANCH   1   9
ATOM      5  C   UNL     1      -1.256  -0.753   0.010  0.00  0.00    +0.091 A 
ATOM      6  C   UNL     1      -1.892  -1.146   1.257  0.00  0.00    -0.021 A 
ATOM      7  C   UNL     1      -3.047  -1.833   1.122  0.00  0.00    -0.004 A 
ATOM      8  S   UNL     1      -3.296  -1.962  -0.626  0.00  0.00    -0.077 S 
ATOM      9  C   UNL     1      -1.889  -1.111  -1.173  0.00  0.00    +0.086 A 
ATOM     10  C   UNL     1      -3.916  -2.363   2.220  0.00  0.00    +0.046 C 
ATOM     11  C   UNL     1      -3.111  -2.339   3.528  0.00  0.00    -0.009 C 
ATOM     12  C   UNL     1      -2.443  -0.969   3.671  0.00  0.00    +0.008 C 
ATOM     13  C   UNL     1      -1.327  -0.824   2.634  0.00  0.00    +0.037 C 
ATOM     14  C   UNL     1      -4.049  -2.582   4.712  0.00  0.00    +0.008 C 
BRANCH   5  15
ATOM     15  C   UNL     1       0.002  -0.004   0.002  0.00  0.00    +0.342 C 
ATOM     16  O   UNL     1       1.064  -0.598  -0.011  0.00  0.00    -0.245 OA
BRANCH  15  17
ATOM     17  O   UNL     1      -0.016   1.345   0.009  0.00  0.00    -0.461 OA
BRANCH  17  19
ATOM     18  C   UNL     1       1.047   3.535   0.011  0.00  0.00    +0.048 C 
ATOM     19  C   UNL     1       1.268   2.021   0.001  0.00  0.00    +0.229 C 
ENDBRANCH  17  19
ENDBRANCH  15  17
ENDBRANCH   5  15
ENDBRANCH   1   9
BRANCH   2  20
ATOM     20  C   UNL     1      -1.811  -1.000  -4.924  0.00  0.00    +0.328 C 
BRANCH  20  21
ATOM     21  O   UNL     1      -2.780  -1.562  -5.847  0.00  0.00    -0.455 OA
BRANCH  21  22
ATOM     22  C   UNL     1      -2.541  -1.397  -7.157  0.00  0.00    +0.309 C 
ATOM     23  O   UNL     1      -1.554  -0.803  -7.521  0.00  0.00    -0.251 OA
BRANCH  22  24
ATOM     24  C   UNL     1      -3.503  -1.953  -8.175  0.00  0.00    +0.140 C 
BRANCH  24  25
ATOM     25  C   UNL     1      -2.999  -1.629  -9.583  0.00  0.00    +0.128 C 
BRANCH  25  26
ATOM     26  N   UNL     1      -3.935  -2.170 -10.573  0.00  0.00    -0.234 N 
ATOM     27  C   UNL     1      -3.850  -3.402 -11.107  0.00  0.00    +0.254 C 
ATOM     28  O   UNL     1      -2.999  -4.229 -10.850  0.00  0.00    -0.270 OA
ATOM     29  C   UNL     1      -4.967  -3.581 -12.058  0.00  0.00    +0.049 A 
ATOM     30  C   UNL     1      -5.381  -4.616 -12.881  0.00  0.00    +0.014 A 
ATOM     31  C   UNL     1      -6.504  -4.453 -13.678  0.00  0.00    +0.001 A 
ATOM     32  C   UNL     1      -7.212  -3.266 -13.657  0.00  0.00    +0.001 A 
ATOM     33  C   UNL     1      -6.809  -2.222 -12.839  0.00  0.00    +0.014 A 
ATOM     34  C   UNL     1      -5.689  -2.370 -12.037  0.00  0.00    +0.049 A 
ATOM     35  C   UNL     1      -4.989  -1.498 -11.070  0.00  0.00    +0.254 C 
ATOM     36  O   UNL     1      -5.311  -0.365 -10.775  0.00  0.00    -0.270 OA
ENDBRANCH  25  26
ENDBRANCH  24  25
ENDBRANCH  22  24
ENDBRANCH  21  22
ENDBRANCH  20  21
ENDBRANCH   2  20
TORSDOF 10
