REMARK  Name = ZINC38700937
REMARK  13 active torsions:
REMARK  status: ('A' for Active; 'I' for Inactive)
REMARK    1  A    between atoms: C_1  and  C_2
REMARK    2  A    between atoms: C_2  and  C_3
REMARK    3  A    between atoms: C_3  and  C_4
REMARK    4  A    between atoms: C_4  and  C_5
REMARK    5  A    between atoms: C_8  and  C_11
REMARK    6  A    between atoms: C_11  and  O_13
REMARK    7  A    between atoms: O_13  and  C_14
REMARK    8  A    between atoms: C_21  and  N_37
REMARK    9  A    between atoms: C_22  and  C_35
REMARK   10  A    between atoms: C_23  and  C_25
REMARK   11  A    between atoms: C_28  and  C_31
REMARK   12  A    between atoms: C_31  and  O_33
REMARK   13  A    between atoms: O_33  and  C_34
REMARK                            x       y       z     vdW  Elec       q    Type
REMARK                         _______ _______ _______ _____ _____    ______ ____
ROOT
ATOM      1  C   UNL     1       4.725  -6.735  -1.316  0.00  0.00    +0.135 A 
ATOM      2  C   UNL     1       5.318  -5.944  -2.291  0.00  0.00    +0.047 A 
ATOM      3  C   UNL     1       5.854  -6.529  -3.421  0.00  0.00    +0.012 A 
ATOM      4  C   UNL     1       5.803  -7.902  -3.587  0.00  0.00    +0.008 A 
ATOM      5  C   UNL     1       5.212  -8.696  -2.616  0.00  0.00    +0.138 A 
ATOM      6  C   UNL     1       4.678  -8.110  -1.476  0.00  0.00    +0.093 A 
ATOM      7  O   UNL     1       5.152 -10.043  -2.761  0.00  0.00    -0.441 OA
ATOM      8  C   UNL     1       5.977 -10.661  -3.623  0.00  0.00    +0.199 C 
ATOM      9  C   UNL     1       6.597  -9.995  -4.625  0.00  0.00    +0.098 C 
ATOM     10  C   UNL     1       6.393  -8.520  -4.827  0.00  0.00    +0.098 C 
ENDROOT
BRANCH  10  11
ATOM     11  C   UNL     1       5.457  -8.300  -5.987  0.00  0.00    -0.035 A 
ATOM     12  C   UNL     1       4.167  -8.798  -5.937  0.00  0.00    +0.005 A 
ATOM     13  C   UNL     1       3.306  -8.600  -6.996  0.00  0.00    +0.015 A 
ATOM     14  C   UNL     1       3.738  -7.895  -8.121  0.00  0.00    +0.059 A 
ATOM     15  C   UNL     1       5.041  -7.396  -8.166  0.00  0.00    +0.015 A 
ATOM     16  C   UNL     1       5.891  -7.596  -7.097  0.00  0.00    +0.005 A 
BRANCH  14  17
ATOM     17  C   UNL     1       2.822  -7.680  -9.259  0.00  0.00    +0.339 C 
ATOM     18  O   UNL     1       1.689  -8.116  -9.217  0.00  0.00    -0.245 OA
BRANCH  17  19
ATOM     19  O   UNL     1       3.242  -7.000 -10.343  0.00  0.00    -0.464 OA
ATOM     20  C   UNL     1       2.303  -6.829 -11.406  0.00  0.00    +0.280 C 
ENDBRANCH  17  19
ENDBRANCH  14  17
ENDBRANCH  10  11
BRANCH   8  21
ATOM     21  N   UNL     1       6.197 -12.009  -3.482  0.00  0.00    -0.328 N 
ATOM     22  H   UNL     1       5.761 -12.500  -2.768  0.00  0.00    +0.145 HD
ATOM     23  H   UNL     1       6.790 -12.470  -4.096  0.00  0.00    +0.145 HD
ENDBRANCH   8  21
BRANCH   9  24
ATOM     24  C   UNL     1       7.466 -10.711  -5.511  0.00  0.00    +0.101 C 
ATOM     25  N   UNL     1       8.155 -11.278  -6.213  0.00  0.00    -0.191 NA
ENDBRANCH   9  24
BRANCH   1  26
ATOM     26  O   UNL     1       4.196  -6.161  -0.203  0.00  0.00    -0.426 OA
BRANCH  26  27
ATOM     27  C   UNL     1       3.003  -5.555  -0.312  0.00  0.00    +0.315 C 
ATOM     28  O   UNL     1       2.474  -5.454  -1.393  0.00  0.00    -0.250 OA
BRANCH  27  32
ATOM     29  C   UNL     1       0.050  -4.938   2.760  0.00  0.00    -0.011 C 
ATOM     30  C   UNL     1       0.299  -3.807   1.761  0.00  0.00    +0.004 C 
ATOM     31  C   UNL     1       0.989  -4.369   0.516  0.00  0.00    +0.015 C 
ATOM     32  C   UNL     1       2.324  -5.002   0.914  0.00  0.00    +0.098 C 
ATOM     33  C   UNL     1       2.074  -6.133   1.913  0.00  0.00    +0.015 C 
ATOM     34  C   UNL     1       1.385  -5.571   3.158  0.00  0.00    +0.004 C 
BRANCH  29  35
ATOM     35  C   UNL     1      -0.846  -5.999   2.116  0.00  0.00    +0.003 C 
BRANCH  35  36
ATOM     36  C   UNL     1      -2.224  -5.399   1.831  0.00  0.00    +0.000 C 
BRANCH  36  38
ATOM     37  C   UNL     1      -4.497  -5.859   0.903  0.00  0.00    +0.004 C 
ATOM     38  C   UNL     1      -3.119  -6.460   1.188  0.00  0.00    -0.003 C 
ENDBRANCH  36  38
ENDBRANCH  35  36
ENDBRANCH  29  35
ENDBRANCH  27  32
ENDBRANCH  26  27
ENDBRANCH   1  26
TORSDOF 11
