REMARK  Name = ZINC21165534
REMARK  9 active torsions:
REMARK  status: ('A' for Active; 'I' for Inactive)
REMARK    1  A    between atoms: C_1  and  C_2
REMARK    2  A    between atoms: C_2  and  C_3
REMARK    3  A    between atoms: C_3  and  C_4
REMARK    4  A    between atoms: N_14  and  C_15
REMARK    5  A    between atoms: N_14  and  C_16
REMARK    6  A    between atoms: C_16  and  C_17
REMARK    7  A    between atoms: N_19  and  C_20
REMARK    8  A    between atoms: C_20  and  C_21
REMARK    9  A    between atoms: C_21  and  N_22
REMARK                            x       y       z     vdW  Elec       q    Type
REMARK                         _______ _______ _______ _____ _____    ______ ____
ROOT
ATOM      1  C   UNL     1       0.398  -2.735  -0.017  0.00  0.00    +0.049 A 
ATOM      2  C   UNL     1      -0.882  -2.224  -0.002  0.00  0.00    +0.095 A 
ATOM      3  C   UNL     1      -1.076  -0.843   0.007  0.00  0.00    +0.275 A 
ATOM      4  O   UNL     1      -2.208  -0.384   0.020  0.00  0.00    -0.266 OA
ATOM      5  N   UNL     1       0.002  -0.004   0.002  0.00  0.00    -0.170 N 
ATOM      6  C   UNL     1       1.234  -0.594  -0.013  0.00  0.00    +0.201 A 
ATOM      7  N   UNL     1       1.425  -1.889  -0.022  0.00  0.00    -0.226 NA
ATOM      8  S   UNL     1       2.334   0.805  -0.016  0.00  0.00    -0.013 S 
ATOM      9  C   UNL     1       1.088   2.084   0.003  0.00  0.00    +0.184 A 
ATOM     10  N   UNL     1      -0.017   1.387   0.010  0.00  0.00    -0.139 NA
ATOM     11  N   UNL     1       1.252   3.458   0.009  0.00  0.00    -0.302 N 
ATOM     12  C   UNL     1       0.078   4.335   0.025  0.00  0.00    +0.132 C 
ENDROOT
BRANCH   1  13
ATOM     13  C   UNL     1       0.630  -4.224  -0.027  0.00  0.00    +0.055 C 
BRANCH  13  15
ATOM     14  C   UNL     1       1.055  -6.212  -1.479  0.00  0.00    +0.004 C 
ATOM     15  C   UNL     1       0.819  -4.701  -1.469  0.00  0.00    +0.003 C 
ENDBRANCH  13  15
ENDBRANCH   1  13
BRANCH  11  16
ATOM     16  C   UNL     1       2.598   4.036  -0.001  0.00  0.00    +0.202 C 
BRANCH  16  17
ATOM     17  C   UNL     1       3.046   4.241  -1.425  0.00  0.00    +0.230 C 
ATOM     18  O   UNL     1       2.313   3.935  -2.342  0.00  0.00    -0.274 OA
ATOM     19  N   UNL     1       4.261   4.765  -1.680  0.00  0.00    -0.316 N 
ATOM     20  H   UNL     1       4.926   5.043  -0.849  0.00  0.00    +0.149 HD
BRANCH  19  21
ATOM     21  C   UNL     1       4.697   4.965  -3.065  0.00  0.00    +0.086 C 
BRANCH  21  22
ATOM     22  C   UNL     1       6.103   5.569  -3.075  0.00  0.00    -0.060 C 
BRANCH  22  23
ATOM     23  N   UNL     1       6.539   5.769  -4.463  0.00  0.00    +0.381 N 
ATOM     24  C   UNL     1       6.598   4.482  -5.192  0.00  0.00    -0.079 C 
ATOM     25  C   UNL     1       7.293   4.596  -6.521  0.00  0.00    -0.019 C 
ATOM     26  C   UNL     1       8.780   4.234  -6.328  0.00  0.00    -0.002 C 
ATOM     27  C   UNL     1       9.543   5.333  -5.746  0.00  0.00    -0.002 C 
ATOM     28  C   UNL     1       9.023   5.726  -4.347  0.00  0.00    -0.019 C 
ATOM     29  C   UNL     1       7.786   6.566  -4.517  0.00  0.00    -0.079 C 
ATOM     30  H   UNL     1       5.784   6.371  -4.990  0.00  0.00    -0.082 HD
ENDBRANCH  22  23
ENDBRANCH  21  22
ENDBRANCH  19  21
ENDBRANCH  16  17
ENDBRANCH  11  16
TORSDOF 7
