REMARK  Name = ZINC20764820
REMARK  8 active torsions:
REMARK  status: ('A' for Active; 'I' for Inactive)
REMARK    1  A    between atoms: C_1  and  C_2
REMARK    2  A    between atoms: C_2  and  C_3
REMARK    3  A    between atoms: C_6  and  C_9
REMARK    4  A    between atoms: C_11  and  C_25
REMARK    5  A    between atoms: C_14  and  C_17
REMARK    6  A    between atoms: C_22  and  O_23
REMARK    7  A    between atoms: C_30  and  O_31
REMARK    8  A    between atoms: O_31  and  C_32
REMARK                            x       y       z     vdW  Elec       q    Type
REMARK                         _______ _______ _______ _____ _____    ______ ____
ROOT
ATOM      1  C   UNL     1      -0.931   4.569   3.149  0.00  0.00    +0.040 C 
ATOM      2  N   UNL     1      -1.074   3.333   2.851  0.00  0.00    -0.298 NA
ATOM      3  C   UNL     1      -2.018   2.437   3.507  0.00  0.00    +0.084 C 
ATOM      4  N   UNL     1      -3.043   3.202   4.227  0.00  0.00    +0.401 N 
ATOM      5  C   UNL     1      -2.410   4.202   5.103  0.00  0.00    -0.028 C 
ATOM      6  C   UNL     1      -1.736   5.255   4.218  0.00  0.00    +0.044 C 
ATOM      7  H   UNL     1      -3.693   3.716   3.504  0.00  0.00    -0.081 HD
ATOM      8  H   UNL     1      -3.648   2.517   4.841  0.00  0.00    -0.081 HD
ENDROOT
BRANCH   5   9
ATOM      9  C   UNL     1      -3.457   4.858   5.966  0.00  0.00    -0.018 A 
ATOM     10  C   UNL     1      -4.788   4.810   5.596  0.00  0.00    +0.025 A 
ATOM     11  C   UNL     1      -5.749   5.412   6.387  0.00  0.00    +0.041 A 
ATOM     12  C   UNL     1      -5.381   6.063   7.551  0.00  0.00    +0.023 A 
ATOM     13  C   UNL     1      -4.052   6.114   7.925  0.00  0.00    +0.047 A 
ATOM     14  C   UNL     1      -3.087   5.506   7.135  0.00  0.00    +0.119 A 
ATOM     15 CL   UNL     1      -7.420   5.349   5.920  0.00  0.00    -0.084 Cl
BRANCH  14  16
ATOM     16  O   UNL     1      -1.780   5.550   7.504  0.00  0.00    -0.507 OA
ATOM     17  H   UNL     1      -1.487   6.063   8.432  0.00  0.00    +0.292 HD
ENDBRANCH  14  16
ENDBRANCH   5   9
BRANCH   3  18
ATOM     18  C   UNL     1      -2.683   1.569   2.470  0.00  0.00    +0.002 A 
ATOM     19  C   UNL     1      -3.999   1.181   2.633  0.00  0.00    +0.022 A 
ATOM     20  C   UNL     1      -4.608   0.381   1.684  0.00  0.00    +0.018 A 
ATOM     21  C   UNL     1      -3.902  -0.030   0.567  0.00  0.00    +0.019 A 
ATOM     22  C   UNL     1      -2.588   0.359   0.397  0.00  0.00    +0.047 A 
ATOM     23  C   UNL     1      -1.975   1.163   1.348  0.00  0.00    +0.123 A 
ATOM     24 BR   UNL     1      -6.407  -0.154   1.913  0.00  0.00    -0.050 Br
BRANCH  23  25
ATOM     25  O   UNL     1      -0.682   1.547   1.184  0.00  0.00    -0.495 OA
ATOM     26  C   UNL     1      -0.013   1.086   0.008  0.00  0.00    +0.277 C 
ENDBRANCH  23  25
ENDBRANCH   3  18
BRANCH   1  30
ATOM     27  C   UNL     1       1.956   6.841   1.020  0.00  0.00    -0.048 A 
ATOM     28  C   UNL     1       1.776   5.503   0.721  0.00  0.00    +0.004 A 
ATOM     29  C   UNL     1       0.840   4.758   1.409  0.00  0.00    +0.010 A 
ATOM     30  C   UNL     1       0.073   5.359   2.409  0.00  0.00    -0.004 A 
ATOM     31  C   UNL     1       0.255   6.712   2.702  0.00  0.00    +0.010 A 
ATOM     32  C   UNL     1       1.199   7.443   2.010  0.00  0.00    +0.004 A 
BRANCH  27  34
ATOM     33  C   UNL     1       2.328   8.273  -0.970  0.00  0.00    +0.009 C 
ATOM     34  C   UNL     1       2.980   7.648   0.265  0.00  0.00    +0.032 C 
ENDBRANCH  27  34
ENDBRANCH   1  30
TORSDOF 6
