REMARK  Name = ZINC31160479
REMARK  8 active torsions:
REMARK  status: ('A' for Active; 'I' for Inactive)
REMARK    1  A    between atoms: CG1_1  and  CB_2
REMARK    2  A    between atoms: CB_2  and  CG2_3
REMARK    3  A    between atoms: CB_2  and  CA_4
REMARK    4  A    between atoms: C_9  and  C_14
REMARK    5  A    between atoms: C_14  and  C_15
REMARK    6  A    between atoms: C_15  and  O_37
REMARK    7  A    between atoms: C_26  and  C_30
REMARK    8  A    between atoms: C_30  and  C_31
REMARK                            x       y       z     vdW  Elec       q    Type
REMARK                         _______ _______ _______ _____ _____    ______ ____
ROOT
ATOM      1  C   UNK A   1       5.595   1.924  -2.744  0.00  0.00    +0.091 C 
ATOM      2  C   UNK A   1       6.903   2.694  -2.772  0.00  0.00    +0.005 A 
ATOM      3  C   UNK A   1       8.082   2.471  -3.450  0.00  0.00    +0.008 A 
ATOM      4  C   UNK A   1       9.162   3.314  -3.257  0.00  0.00    +0.000 A 
ATOM      5  C   UNK A   1       9.058   4.380  -2.383  0.00  0.00    +0.002 A 
ATOM      6  C   UNK A   1       7.873   4.621  -1.720  0.00  0.00    +0.024 A 
ATOM      7  C   UNK A   1       6.775   3.792  -1.928  0.00  0.00    +0.040 A 
ATOM      8  N   UNK A   1       5.447   3.900  -1.452  0.00  0.00    -0.291 N 
ATOM      9  C   UNK A   1       4.872   2.541  -1.535  0.00  0.00    +0.001 C 
ATOM     10  N   UNK A   1       3.436   2.742  -1.794  0.00  0.00    +0.395 NA
ATOM     11  C   UNK A   1       3.159   4.002  -1.055  0.00  0.00    -0.040 C 
ATOM     12  C   UNK A   1       4.479   4.747  -1.052  0.00  0.00    +0.197 C 
ATOM     13  O   UNK A   1       4.636   5.909  -0.743  0.00  0.00    -0.277 OA
ENDROOT
BRANCH   1  14
ATOM     14  O   UNK A   1       4.852   2.142  -3.945  0.00  0.00    -0.384 OA
ATOM     15  H   UNK A   1       4.588   3.165  -4.250  0.00  0.00    +0.211 HD
ENDBRANCH   1  14
BRANCH   1  16
ATOM     16  C   UNK A   1       5.844   0.430  -2.525  0.00  0.00    +0.071 C 
BRANCH  16  21
ATOM     17  CA  VAL A   2       4.149  -2.512  -4.068  0.00  0.00    +0.161 C 
ATOM     18  C   VAL A   2       3.466  -1.188  -4.228  0.00  0.00    +0.234 C 
ATOM     19  O   VAL A   2       2.721  -1.028  -5.171  0.00  0.00    -0.274 OA
ATOM     20  N   UNK A   1       3.645  -0.177  -3.373  0.00  0.00    -0.302 N 
ATOM     21  C   UNK A   1       4.518  -0.267  -2.211  0.00  0.00    +0.162 C 
ATOM     22  C   UNK A   1       4.790  -1.695  -1.845  0.00  0.00    +0.234 C 
ATOM     23  O   UNK A   1       5.182  -1.943  -0.725  0.00  0.00    -0.274 OA
ATOM     24  N   VAL A   2       4.616  -2.706  -2.702  0.00  0.00    -0.302 N 
ATOM     25  H   UNK A   1       3.097   0.755  -3.579  0.00  0.00    +0.150 HD
ATOM     26  H   VAL A   2       4.841  -3.718  -2.336  0.00  0.00    +0.150 HD
BRANCH  17  28
ATOM     27  CG1 VAL A   2       4.865  -2.369  -6.457  0.00  0.00    +0.009 C 
ATOM     28  CB  VAL A   2       5.346  -2.576  -5.019  0.00  0.00    +0.012 C 
ATOM     29  CG2 VAL A   2       6.347  -1.478  -4.654  0.00  0.00    +0.009 C 
ENDBRANCH  17  28
ENDBRANCH  16  21
ENDBRANCH   1  16
BRANCH  11  30
ATOM     30  C   UNK A   1       2.718   3.694   0.377  0.00  0.00    +0.020 C 
BRANCH  30  31
ATOM     31  C   UNK A   1       1.401   2.962   0.351  0.00  0.00    -0.049 A 
ATOM     32  C   UNK A   1       1.379   1.581   0.293  0.00  0.00    +0.003 A 
ATOM     33  C   UNK A   1       0.171   0.909   0.268  0.00  0.00    +0.000 A 
ATOM     34  C   UNK A   1      -1.015   1.619   0.297  0.00  0.00    +0.000 A 
ATOM     35  C   UNK A   1      -0.993   2.999   0.360  0.00  0.00    +0.000 A 
ATOM     36  C   UNK A   1       0.215   3.671   0.385  0.00  0.00    +0.003 A 
ENDBRANCH  30  31
ENDBRANCH  11  30
TORSDOF 6
