REMARK  Name = ZINC08870409
REMARK  13 active torsions:
REMARK  status: ('A' for Active; 'I' for Inactive)
REMARK    1  A    between atoms: C_1  and  C_2
REMARK    2  A    between atoms: C_2  and  C_3
REMARK    3  A    between atoms: C_3  and  C_4
REMARK    4  A    between atoms: C_3  and  C_5
REMARK    5  A    between atoms: C_3  and  C_6
REMARK    6  A    between atoms: C_14  and  N_20
REMARK    7  A    between atoms: C_15  and  C_19
REMARK    8  A    between atoms: N_20  and  S_21
REMARK    9  A    between atoms: S_21  and  C_24
REMARK   10  A    between atoms: C_27  and  C_30
REMARK   11  A    between atoms: C_30  and  C_31
REMARK   12  A    between atoms: C_30  and  C_32
REMARK   13  A    between atoms: C_30  and  C_33
REMARK                            x       y       z     vdW  Elec       q    Type
REMARK                         _______ _______ _______ _____ _____    ______ ____
ROOT
ATOM      1  C   UNL     1       1.865   1.391  -0.322  0.00  0.00    -0.000 C 
ATOM      2  C   UNL     1       1.142   1.911   0.925  0.00  0.00    +0.012 C 
ATOM      3  C   UNL     1      -0.277   1.333   0.970  0.00  0.00    +0.075 C 
ATOM      4  C   UNL     1      -0.196  -0.163   0.777  0.00  0.00    +0.109 A 
ATOM      5  C   UNL     1       0.886  -0.793   0.280  0.00  0.00    +0.002 A 
ATOM      6  C   UNL     1       0.564  -2.207   0.255  0.00  0.00    +0.025 A 
ATOM      7  C   UNL     1       1.275  -3.338  -0.149  0.00  0.00    +0.036 A 
ATOM      8  C   UNL     1       0.626  -4.561  -0.024  0.00  0.00    +0.052 A 
ATOM      9  C   UNL     1      -0.667  -4.652   0.478  0.00  0.00    -0.025 A 
ATOM     10  C   UNL     1      -1.382  -3.538   0.883  0.00  0.00    +0.052 A 
ATOM     11  C   UNL     1      -0.753  -2.302   0.767  0.00  0.00    +0.136 A 
ATOM     12  O   UNL     1      -1.158  -1.061   1.063  0.00  0.00    -0.459 OA
ATOM     13  C   UNL     1      -1.313  -6.010   0.587  0.00  0.00    +0.046 C 
ATOM     14  C   UNL     1       2.155  -0.105  -0.151  0.00  0.00    +0.043 C 
ENDROOT
BRANCH   1  15
ATOM     15  C   UNL     1       3.181   2.150  -0.502  0.00  0.00    -0.032 C 
ATOM     16  C   UNL     1       4.064   1.939   0.730  0.00  0.00    +0.011 C 
ATOM     17  C   UNL     1       3.906   1.627  -1.744  0.00  0.00    +0.011 C 
BRANCH  15  19
ATOM     18  C   UNL     1       4.207   4.401  -0.852  0.00  0.00    +0.004 C 
ATOM     19  C   UNL     1       2.891   3.642  -0.672  0.00  0.00    +0.003 C 
ENDBRANCH  15  19
ENDBRANCH   1  15
BRANCH   8  20
ATOM     20  N   UNL     1       1.290  -5.729  -0.413  0.00  0.00    -0.216 N 
ATOM     21  H   UNL     1       0.795  -6.455  -0.824  0.00  0.00    +0.174 HD
BRANCH  20  22
ATOM     22  S   UNL     1       2.923  -5.873  -0.173  0.00  0.00    +0.072 S 
ATOM     23  O   UNL     1       3.272  -7.200  -0.540  0.00  0.00    -0.150 OA
ATOM     24  O   UNL     1       3.523  -4.733  -0.773  0.00  0.00    -0.150 OA
BRANCH  22  25
ATOM     25  C   UNL     1       3.208  -5.738   1.560  0.00  0.00    +0.109 A 
ATOM     26  C   UNL     1       3.446  -4.500   2.127  0.00  0.00    +0.029 A 
ATOM     27  C   UNL     1       3.665  -4.394   3.488  0.00  0.00    +0.006 A 
ATOM     28  C   UNL     1       3.656  -5.527   4.280  0.00  0.00    -0.042 A 
ATOM     29  C   UNL     1       3.423  -6.765   3.712  0.00  0.00    +0.006 A 
ATOM     30  C   UNL     1       3.199  -6.871   2.352  0.00  0.00    +0.029 A 
BRANCH  28  31
ATOM     31  C   UNL     1       3.901  -5.412   5.763  0.00  0.00    -0.013 C 
ATOM     32  C   UNL     1       5.137  -6.230   6.141  0.00  0.00    +0.015 C 
ATOM     33  C   UNL     1       4.129  -3.944   6.130  0.00  0.00    +0.015 C 
ATOM     34  C   UNL     1       2.685  -5.944   6.523  0.00  0.00    +0.015 C 
ENDBRANCH  28  31
ENDBRANCH  22  25
ENDBRANCH  20  22
ENDBRANCH   8  20
TORSDOF 6
