REMARK  Name = ZINC06952106
REMARK  9 active torsions:
REMARK  status: ('A' for Active; 'I' for Inactive)
REMARK    1  A    between atoms: C_1  and  C_2
REMARK    2  A    between atoms: C_2  and  C_3
REMARK    3  A    between atoms: C_2  and  C_4
REMARK    4  A    between atoms: C_4  and  C_5
REMARK    5  A    between atoms: C_5  and  C_7
REMARK    6  A    between atoms: C_5  and  N_21
REMARK    7  A    between atoms: N_9  and  N_10
REMARK    8  A    between atoms: C_11  and  C_12
REMARK    9  A    between atoms: C_17  and  O_18
REMARK                            x       y       z     vdW  Elec       q    Type
REMARK                         _______ _______ _______ _____ _____    ______ ____
ROOT
ATOM      1  C   UNL     1      -2.819  -2.590   0.013  0.00  0.00    +0.218 C 
ATOM      2  O   UNL     1      -3.453  -2.886  -0.979  0.00  0.00    -0.276 OA
ATOM      3  N   UNL     1      -3.370  -2.737   1.234  0.00  0.00    -0.208 N 
ATOM      4  H   UNL     1      -2.864  -2.501   2.026  0.00  0.00    +0.177 HD
ENDROOT
BRANCH   3   5
ATOM      5  N   UNL     1      -4.675  -3.232   1.358  0.00  0.00    -0.188 NA
ATOM      6  C   UNL     1      -5.206  -3.374   2.534  0.00  0.00    +0.142 C 
BRANCH   6   7
ATOM      7  C   UNL     1      -6.579  -3.895   2.664  0.00  0.00    +0.038 A 
ATOM      8  C   UNL     1      -7.156  -4.044   3.928  0.00  0.00    +0.028 A 
ATOM      9  C   UNL     1      -8.441  -4.531   4.044  0.00  0.00    +0.020 A 
ATOM     10  C   UNL     1      -9.163  -4.874   2.912  0.00  0.00    +0.034 A 
ATOM     11  C   UNL     1      -8.602  -4.731   1.656  0.00  0.00    +0.061 A 
ATOM     12  C   UNL     1      -7.314  -4.238   1.522  0.00  0.00    +0.139 A 
ATOM     13 BR   UNL     1      -9.597  -5.202   0.119  0.00  0.00    -0.046 Br
ATOM     14 BR   UNL     1      -9.221  -4.733   5.755  0.00  0.00    -0.050 Br
BRANCH  12  15
ATOM     15  O   UNL     1      -6.764  -4.092   0.288  0.00  0.00    -0.505 OA
ATOM     16  H   UNL     1      -6.289  -4.873  -0.025  0.00  0.00    +0.292 HD
ENDBRANCH  12  15
ENDBRANCH   6   7
ENDBRANCH   3   5
BRANCH   1  17
ATOM     17  C   UNL     1      -1.416  -2.058  -0.121  0.00  0.00    +0.015 C 
BRANCH  17  18
ATOM     18  N   UNL     1      -0.875  -2.427  -1.436  0.00  0.00    +0.386 N 
ATOM     19  H   UNL     1      -1.455  -2.033  -2.161  0.00  0.00    -0.089 HD
ATOM     20  H   UNL     1       0.065  -2.071  -1.526  0.00  0.00    -0.089 HD
ATOM     21  H   UNL     1      -0.863  -3.432  -1.524  0.00  0.00    -0.089 HD
ENDBRANCH  17  18
BRANCH  17  22
ATOM     22  C   UNL     1      -1.433  -0.534   0.013  0.00  0.00    -0.004 C 
BRANCH  22  24
ATOM     23  C   UNL     1      -0.019   1.526   0.010  0.00  0.00    +0.007 C 
ATOM     24  C   UNL     1       0.002  -0.004   0.002  0.00  0.00    -0.018 C 
ATOM     25  C   UNL     1       0.742  -0.511   1.242  0.00  0.00    +0.007 C 
ENDBRANCH  22  24
ENDBRANCH  17  22
ENDBRANCH   1  17
TORSDOF 7
