REMARK  Name = ZINC08995005
REMARK  4 active torsions:
REMARK  status: ('A' for Active; 'I' for Inactive)
REMARK    1  A    between atoms: C_1  and  C_2
REMARK    2  A    between atoms: C_5  and  C_8
REMARK    3  A    between atoms: C_8  and  C_10
REMARK    4  A    between atoms: C_32  and  C_37
REMARK                            x       y       z     vdW  Elec       q    Type
REMARK                         _______ _______ _______ _____ _____    ______ ____
ROOT
ATOM      1  C   UNL     1       1.386  -0.391   0.582  0.00  0.00    +0.066 C 
ATOM      2  C   UNL     1       0.097   0.240  -0.002  0.00  0.00    -0.055 C 
ATOM      3  C   UNL     1      -1.088  -0.032   0.937  0.00  0.00    -0.016 C 
ATOM      4  C   UNL     1      -1.523   1.358   1.455  0.00  0.00    -0.020 C 
ATOM      5  C   UNL     1      -0.226   2.205   1.286  0.00  0.00    -0.076 C 
ATOM      6  C   UNL     1       1.801   1.920   0.005  0.00  0.00    +0.060 C 
ATOM      7  C   UNL     1       2.470   0.550   0.021  0.00  0.00    +0.085 C 
ATOM      8  C   UNL     1       3.712   0.528   0.863  0.00  0.00    -0.011 A 
ATOM      9  C   UNL     1       3.971   0.817   2.184  0.00  0.00    +0.006 A 
ATOM     10  C   UNL     1       5.257   0.701   2.680  0.00  0.00    +0.000 A 
ATOM     11  C   UNL     1       6.282   0.292   1.846  0.00  0.00    +0.002 A 
ATOM     12  C   UNL     1       6.027   0.000   0.522  0.00  0.00    +0.023 A 
ATOM     13  C   UNL     1       4.736   0.115   0.014  0.00  0.00    +0.038 A 
ATOM     14  N   UNL     1       4.236  -0.118  -1.269  0.00  0.00    -0.285 N 
ATOM     15  C   UNL     1       2.911   0.116  -1.348  0.00  0.00    +0.228 C 
ATOM     16  O   UNL     1       2.212  -0.001  -2.332  0.00  0.00    -0.275 OA
ATOM     17  C   UNL     1       2.227   2.727  -1.192  0.00  0.00    -0.026 A 
ATOM     18  C   UNL     1       2.132   2.524  -2.550  0.00  0.00    +0.004 A 
ATOM     19  C   UNL     1       2.629   3.471  -3.428  0.00  0.00    +0.001 A 
ATOM     20  C   UNL     1       3.221   4.621  -2.937  0.00  0.00    +0.005 A 
ATOM     21  C   UNL     1       3.318   4.828  -1.577  0.00  0.00    -0.029 A 
ATOM     22  C   UNL     1       2.820   3.879  -0.686  0.00  0.00    +0.039 A 
ATOM     23  N   UNL     1       2.801   3.860   0.709  0.00  0.00    -0.286 N 
ATOM     24  C   UNL     1       2.223   2.747   1.194  0.00  0.00    +0.212 C 
ATOM     25  O   UNL     1       2.070   2.462   2.363  0.00  0.00    -0.277 OA
ATOM     26  C   UNL     1       3.965   6.085  -1.053  0.00  0.00    +0.045 C 
ATOM     27  H   UNL     1       4.779  -0.414  -2.016  0.00  0.00    +0.155 HD
ATOM     28  H   UNL     1       3.164   4.568   1.265  0.00  0.00    +0.155 HD
ATOM     29  N   UNL     1       0.342   1.679   0.033  0.00  0.00    +0.395 N 
ATOM     30  H   UNL     1      -0.101   2.135  -0.773  0.00  0.00    -0.079 HD
ENDROOT
BRANCH   1  31
ATOM     31  C   UNL     1       1.368  -0.358   2.089  0.00  0.00    +0.166 C 
ATOM     32  O   UNL     1       0.632   0.410   2.670  0.00  0.00    -0.292 OA
BRANCH  31  37
ATOM     33  C   UNL     1       4.793  -3.876   5.080  0.00  0.00    +0.044 C 
ATOM     34  C   UNL     1       3.894  -2.954   4.296  0.00  0.00    -0.050 A 
ATOM     35  C   UNL     1       3.055  -2.079   4.963  0.00  0.00    +0.004 A 
ATOM     36  C   UNL     1       2.231  -1.232   4.253  0.00  0.00    +0.011 A 
ATOM     37  C   UNL     1       2.244  -1.259   2.855  0.00  0.00    +0.018 A 
ATOM     38  C   UNL     1       3.091  -2.150   2.188  0.00  0.00    +0.011 A 
ATOM     39  C   UNL     1       3.914  -2.987   2.913  0.00  0.00    +0.004 A 
ENDBRANCH  31  37
ENDBRANCH   1  31
TORSDOF 2
