REMARK  Name = ZINC39289912
REMARK  4 active torsions:
REMARK  status: ('A' for Active; 'I' for Inactive)
REMARK    1  A    between atoms: C_6  and  N_7
REMARK    2  A    between atoms: C_11  and  C_12
REMARK    3  A    between atoms: C_15  and  S_17
REMARK    4  A    between atoms: S_17  and  C_18
REMARK                            x       y       z     vdW  Elec       q    Type
REMARK                         _______ _______ _______ _____ _____    ______ ____
ROOT
ATOM      1  N   UNL     1      -1.080  -0.970  -1.612  0.00  0.00    -0.216 N 
ATOM      2  C   UNL     1      -1.195  -2.026  -0.778  0.00  0.00    +0.262 C 
ATOM      3  O   UNL     1      -0.386  -2.215   0.112  0.00  0.00    -0.269 OA
ATOM      4  C   UNL     1      -2.327  -2.941  -0.979  0.00  0.00    +0.105 C 
ATOM      5  C   UNL     1      -2.513  -4.059  -0.154  0.00  0.00    +0.064 C 
ATOM      6  C   UNL     1      -3.227  -2.651  -2.039  0.00  0.00    +0.274 C 
ATOM      7  O   UNL     1      -4.288  -3.453  -2.275  0.00  0.00    -0.268 OA
ATOM      8  N   UNL     1      -3.013  -1.585  -2.792  0.00  0.00    -0.153 NA
ATOM      9  C   UNL     1      -1.983  -0.769  -2.586  0.00  0.00    +0.171 C 
ATOM     10  S   UNL     1      -1.795   0.589  -3.610  0.00  0.00    -0.016 S 
ENDROOT
BRANCH   1  16
ATOM     11  C   UNL     1      -0.250   1.210  -0.979  0.00  0.00    +0.025 A 
ATOM     12  C   UNL     1       0.802   2.092  -0.825  0.00  0.00    +0.022 A 
ATOM     13  C   UNL     1       2.089   1.698  -1.145  0.00  0.00    +0.041 A 
ATOM     14  C   UNL     1       2.326   0.420  -1.621  0.00  0.00    +0.022 A 
ATOM     15  C   UNL     1       1.278  -0.466  -1.777  0.00  0.00    +0.025 A 
ATOM     16  C   UNL     1      -0.015  -0.073  -1.455  0.00  0.00    +0.043 A 
ATOM     17 CL   UNL     1       3.409   2.809  -0.952  0.00  0.00    -0.084 Cl
ENDBRANCH   1  16
BRANCH   5  18
ATOM     18  C   UNL     1      -3.692  -4.794  -0.233  0.00  0.00    +0.130 A 
ATOM     19  C   UNL     1      -3.793  -6.185  -0.222  0.00  0.00    +0.050 A 
ATOM     20  C   UNL     1      -5.143  -6.490  -0.320  0.00  0.00    +0.057 A 
ATOM     21  C   UNL     1      -5.829  -5.290  -0.388  0.00  0.00    +0.165 A 
ATOM     22  O   UNL     1      -4.942  -4.284  -0.329  0.00  0.00    -0.449 OA
BRANCH  21  23
ATOM     23  S   UNL     1      -7.577  -5.112  -0.523  0.00  0.00    -0.046 S 
BRANCH  23  24
ATOM     24  C   UNL     1      -8.159  -5.182   1.193  0.00  0.00    +0.240 C 
ATOM     25  N   UNL     1      -7.577  -4.060   1.980  0.00  0.00    -0.275 NA
ATOM     26  C   UNL     1      -7.455  -4.676   3.309  0.00  0.00    +0.128 C 
ATOM     27  C   UNL     1      -6.413  -3.973   4.137  0.00  0.00    -0.002 C 
ATOM     28  C   UNL     1      -5.623  -4.745   4.898  0.00  0.00    -0.002 C 
ATOM     29  C   UNL     1      -5.766  -6.197   4.917  0.00  0.00    +0.002 C 
ATOM     30  C   UNL     1      -6.520  -6.876   4.025  0.00  0.00    +0.025 C 
ATOM     31  C   UNL     1      -7.245  -6.154   3.030  0.00  0.00    +0.060 C 
ATOM     32  N   UNL     1      -7.682  -6.414   1.841  0.00  0.00    -0.256 NA
ATOM     33  H   UNL     1      -6.673  -3.796   1.619  0.00  0.00    +0.126 HD
ENDBRANCH  23  24
ENDBRANCH  21  23
ENDBRANCH   5  18
TORSDOF 4
