REMARK  Name = ZINC09613423
REMARK  3 active torsions:
REMARK  status: ('A' for Active; 'I' for Inactive)
REMARK    1  A    between atoms: C_4  and  N_7
REMARK    2  A    between atoms: C_9  and  C_23
REMARK    3  A    between atoms: C_10  and  C_12
REMARK                            x       y       z     vdW  Elec       q    Type
REMARK                         _______ _______ _______ _____ _____    ______ ____
ROOT
ATOM      1  N   UNL     1       6.405   5.546  -0.020  0.00  0.00    -0.239 N 
ATOM      2  C   UNL     1       7.060   4.365   0.129  0.00  0.00    +0.122 A 
ATOM      3  C   UNL     1       6.147   3.373   0.061  0.00  0.00    +0.041 A 
ATOM      4  C   UNL     1       4.881   3.961  -0.138  0.00  0.00    +0.107 A 
ATOM      5  N   UNL     1       5.043   5.268  -0.191  0.00  0.00    -0.166 NA
ENDROOT
BRANCH   3   6
ATOM      6  C   UNL     1       6.431   1.897   0.176  0.00  0.00    +0.221 C 
ATOM      7  C   UNL     1       6.827   1.098   2.446  0.00  0.00    +0.159 C 
ATOM      8  N   UNL     1       8.202   1.145   2.310  0.00  0.00    -0.259 N 
ATOM      9  C   UNL     1       8.699   1.306   1.024  0.00  0.00    +0.205 A 
ATOM     10  N   UNL     1       7.862   1.662  -0.010  0.00  0.00    -0.286 N 
ATOM     11  C   UNL     1       8.626   1.733  -1.140  0.00  0.00    +0.072 A 
ATOM     12  C   UNL     1       8.332   2.037  -2.464  0.00  0.00    +0.028 A 
ATOM     13  C   UNL     1       9.384   2.014  -3.366  0.00  0.00    +0.002 A 
ATOM     14  C   UNL     1      10.676   1.703  -2.979  0.00  0.00    +0.002 A 
ATOM     15  C   UNL     1      10.995   1.396  -1.668  0.00  0.00    +0.030 A 
ATOM     16  C   UNL     1       9.948   1.413  -0.740  0.00  0.00    +0.091 A 
ATOM     17  N   UNL     1       9.919   1.168   0.586  0.00  0.00    -0.214 NA
ATOM     18  N   UNL     1       6.299   0.685   3.647  0.00  0.00    -0.332 N 
ATOM     19  H   UNL     1       8.792   1.070   3.077  0.00  0.00    +0.158 HD
ATOM     20  H   UNL     1       5.338   0.644   3.765  0.00  0.00    +0.145 HD
ATOM     21  H   UNL     1       6.889   0.434   4.375  0.00  0.00    +0.145 HD
ATOM     22  N   UNL     1       5.917   1.417   1.517  0.00  0.00    -0.337 N 
ATOM     23  H   UNL     1       4.911   1.339   1.706  0.00  0.00    +0.164 HD
ENDBRANCH   3   6
BRANCH   4  24
ATOM     24  C   UNL     1       3.595   3.237  -0.270  0.00  0.00    +0.088 A 
ATOM     25  C   UNL     1       3.486   2.163  -1.112  0.00  0.00    +0.028 A 
ATOM     26  C   UNL     1       2.193   1.484  -1.204  0.00  0.00    +0.018 A 
ATOM     27  C   UNL     1       2.028   0.380  -2.051  0.00  0.00    +0.011 A 
ATOM     28  C   UNL     1       0.815  -0.242  -2.126  0.00  0.00    +0.001 A 
ATOM     29  C   UNL     1      -0.255   0.206  -1.364  0.00  0.00    +0.004 A 
ATOM     30  C   UNL     1      -0.115   1.294  -0.528  0.00  0.00    +0.047 A 
ATOM     31  C   UNL     1       1.111   1.944  -0.436  0.00  0.00    +0.139 A 
ATOM     32  O   UNL     1       1.254   3.007   0.385  0.00  0.00    -0.422 OA
ATOM     33  C   UNL     1       2.421   3.658   0.499  0.00  0.00    +0.347 A 
ATOM     34  O   UNL     1       2.506   4.612   1.251  0.00  0.00    -0.244 OA
ENDBRANCH   4  24
BRANCH   1  38
ATOM     35  C   UNL     1       8.145   9.333   0.010  0.00  0.00    +0.000 A 
ATOM     36  C   UNL     1       6.779   9.203  -0.164  0.00  0.00    +0.002 A 
ATOM     37  C   UNL     1       6.199   7.949  -0.175  0.00  0.00    +0.028 A 
ATOM     38  C   UNL     1       6.989   6.819  -0.010  0.00  0.00    +0.065 A 
ATOM     39  C   UNL     1       8.360   6.954   0.170  0.00  0.00    +0.028 A 
ATOM     40  C   UNL     1       8.934   8.210   0.175  0.00  0.00    +0.002 A 
ENDBRANCH   1  38
TORSDOF 3
