REMARK  Name = ZINC33628460
REMARK  20 active torsions:
REMARK  status: ('A' for Active; 'I' for Inactive)
REMARK    1  A    between atoms: C_1  and  C_2
REMARK    2  A    between atoms: C_2  and  C_4
REMARK    3  A    between atoms: C_2  and  C_32
REMARK    4  A    between atoms: C_4  and  C_5
REMARK    5  A    between atoms: C_5  and  O_7
REMARK    6  A    between atoms: O_7  and  C_8
REMARK    7  A    between atoms: C_13  and  C_14
REMARK    8  A    between atoms: C_15  and  N_23
REMARK    9  A    between atoms: N_23  and  C_24
REMARK   10  A    between atoms: C_24  and  C_25
REMARK   11  A    between atoms: C_24  and  C_26
REMARK   12  A    between atoms: C_24  and  C_27
REMARK   13  A    between atoms: C_27  and  C_28
REMARK   14  A    between atoms: C_28  and  C_29
REMARK   15  A    between atoms: C_28  and  C_30
REMARK   16  A    between atoms: C_28  and  C_31
REMARK   17  A    between atoms: C_32  and  C_33
REMARK   18  A    between atoms: C_33  and  C_34
REMARK   19  A    between atoms: C_33  and  C_35
REMARK   20  A    between atoms: C_33  and  C_36
REMARK                            x       y       z     vdW  Elec       q    Type
REMARK                         _______ _______ _______ _____ _____    ______ ____
ROOT
ATOM      1  C   UNL     1       0.280   5.750  -3.772  0.00  0.00    +0.090 A 
ATOM      2  C   UNL     1      -0.764   5.409  -4.606  0.00  0.00    +0.129 A 
ATOM      3  N   UNL     1      -1.244   6.574  -5.137  0.00  0.00    -0.289 N 
ATOM      4  C   UNL     1      -2.266   6.838  -6.010  0.00  0.00    +0.094 A 
ATOM      5  C   UNL     1      -2.544   8.104  -6.377  0.00  0.00    +0.018 A 
ATOM      6  C   UNL     1      -1.792   9.175  -5.863  0.00  0.00    +0.005 A 
ATOM      7  C   UNL     1      -0.777   8.932  -4.991  0.00  0.00    +0.045 A 
ATOM      8  C   UNL     1      -0.494   7.602  -4.613  0.00  0.00    +0.117 A 
ATOM      9  N   UNL     1       0.415   7.089  -3.801  0.00  0.00    -0.338 N 
ATOM     10  H   UNL     1       1.198   7.576  -3.200  0.00  0.00    +0.167 HD
ENDROOT
BRANCH   1  16
ATOM     11  C   UNL     1       2.144   5.290  -2.176  0.00  0.00    +0.141 A 
ATOM     12  C   UNL     1       2.909   4.403  -1.437  0.00  0.00    +0.047 A 
ATOM     13  C   UNL     1       2.654   3.045  -1.504  0.00  0.00    +0.004 A 
ATOM     14  C   UNL     1       1.632   2.565  -2.305  0.00  0.00    +0.001 A 
ATOM     15  C   UNL     1       0.858   3.438  -3.042  0.00  0.00    +0.014 A 
ATOM     16  C   UNL     1       1.107   4.809  -2.982  0.00  0.00    +0.044 A 
BRANCH  11  17
ATOM     17  O   UNL     1       2.397   6.624  -2.114  0.00  0.00    -0.425 OA
BRANCH  17  18
ATOM     18  C   UNL     1       1.723   7.330  -1.192  0.00  0.00    +0.313 C 
ATOM     19  O   UNL     1       1.003   6.763  -0.404  0.00  0.00    -0.250 OA
BRANCH  18  20
ATOM     20  C   UNL     1       1.866   8.829  -1.139  0.00  0.00    +0.124 C 
BRANCH  20  22
ATOM     21  C   UNL     1      -0.475   9.128  -0.319  0.00  0.00    +0.008 C 
ATOM     22  C   UNL     1       1.000   9.384  -0.005  0.00  0.00    -0.003 C 
BRANCH  22  23
ATOM     23  C   UNL     1       1.240  10.889   0.129  0.00  0.00    +0.010 C 
BRANCH  23  24
ATOM     24  C   UNL     1       2.443  11.134   1.041  0.00  0.00    -0.037 C 
ATOM     25  C   UNL     1       3.645  10.340   0.524  0.00  0.00    +0.010 C 
ATOM     26  C   UNL     1       2.782  12.626   1.048  0.00  0.00    +0.010 C 
ATOM     27  C   UNL     1       2.106  10.681   2.463  0.00  0.00    +0.010 C 
ENDBRANCH  23  24
ENDBRANCH  22  23
ENDBRANCH  20  22
ENDBRANCH  18  20
ENDBRANCH  17  18
ENDBRANCH  11  17
ENDBRANCH   1  16
BRANCH   2  28
ATOM     28  N   UNL     1      -1.236   4.121  -4.863  0.00  0.00    -0.323 N 
ATOM     29  H   UNL     1      -0.858   3.158  -4.490  0.00  0.00    +0.148 HD
BRANCH  28  30
ATOM     30  C   UNL     1      -2.397   4.156  -5.763  0.00  0.00    +0.028 C 
ATOM     31  C   UNL     1      -3.473   5.069  -5.172  0.00  0.00    +0.031 C 
ATOM     32  C   UNL     1      -1.967   4.692  -7.129  0.00  0.00    +0.031 C 
BRANCH  30  33
ATOM     33  C   UNL     1      -2.960   2.742  -5.924  0.00  0.00    +0.031 C 
BRANCH  33  34
ATOM     34  C   UNL     1      -4.020   2.738  -7.027  0.00  0.00    -0.036 C 
ATOM     35  C   UNL     1      -3.334   2.761  -8.394  0.00  0.00    +0.010 C 
ATOM     36  C   UNL     1      -4.877   1.476  -6.907  0.00  0.00    +0.010 C 
ATOM     37  C   UNL     1      -4.911   3.974  -6.883  0.00  0.00    +0.010 C 
ENDBRANCH  33  34
ENDBRANCH  30  33
ENDBRANCH  28  30
ENDBRANCH   2  28
TORSDOF 11
