REMARK  Name = ZINC40709682
REMARK  11 active torsions:
REMARK  status: ('A' for Active; 'I' for Inactive)
REMARK    1  A    between atoms: C_1  and  N_2
REMARK    2  A    between atoms: N_2  and  C_3
REMARK    3  A    between atoms: C_8  and  C_9
REMARK    4  A    between atoms: C_9  and  O_11
REMARK    5  A    between atoms: O_11  and  C_12
REMARK    6  A    between atoms: C_14  and  N_34
REMARK    7  A    between atoms: C_15  and  N_19
REMARK    8  A    between atoms: N_19  and  C_20
REMARK    9  A    between atoms: N_19  and  C_27
REMARK   10  A    between atoms: C_20  and  C_21
REMARK   11  A    between atoms: C_27  and  C_28
REMARK                            x       y       z     vdW  Elec       q    Type
REMARK                         _______ _______ _______ _____ _____    ______ ____
ROOT
ATOM      1  C   UNL     1       1.950  -0.127  -0.430  0.00  0.00    +0.137 C 
ATOM      2  N   UNL     1       0.510  -0.342  -0.587  0.00  0.00    -0.287 N 
ATOM      3  C   UNL     1       0.029  -1.067  -1.673  0.00  0.00    +0.128 A 
ATOM      4  C   UNL     1      -0.208  -0.438  -2.896  0.00  0.00    +0.104 A 
ATOM      5  C   UNL     1      -0.691  -1.213  -3.953  0.00  0.00    +0.148 A 
ATOM      6  N   UNL     1      -0.904  -2.512  -3.755  0.00  0.00    -0.221 NA
ATOM      7  C   UNL     1      -0.667  -3.066  -2.583  0.00  0.00    +0.200 A 
ATOM      8  N   UNL     1      -0.207  -2.372  -1.562  0.00  0.00    -0.333 N 
ATOM      9  H   UNL     1      -0.041  -2.818  -0.717  0.00  0.00    +0.168 HD
ENDROOT
BRANCH   2  10
ATOM     10  C   UNL     1      -0.377   0.179   0.348  0.00  0.00    +0.049 A 
ATOM     11  C   UNL     1      -0.993   1.403   0.120  0.00  0.00    +0.024 A 
ATOM     12  C   UNL     1      -1.873   1.917   1.050  0.00  0.00    +0.002 A 
ATOM     13  C   UNL     1      -2.148   1.221   2.216  0.00  0.00    +0.001 A 
ATOM     14  C   UNL     1      -1.547   0.006   2.461  0.00  0.00    +0.017 A 
ATOM     15  C   UNL     1      -0.658  -0.532   1.526  0.00  0.00    +0.080 A 
BRANCH  15  16
ATOM     16  C   UNL     1      -0.016  -1.833   1.777  0.00  0.00    +0.341 C 
ATOM     17  O   UNL     1       0.836  -2.248   1.016  0.00  0.00    -0.245 OA
BRANCH  16  18
ATOM     18  O   UNL     1      -0.372  -2.564   2.852  0.00  0.00    -0.464 OA
ATOM     19  C   UNL     1       0.291  -3.817   3.034  0.00  0.00    +0.280 C 
ENDBRANCH  16  18
ENDBRANCH  15  16
ENDBRANCH   2  10
BRANCH   4  20
ATOM     20  N   UNL     1       0.032   0.935  -3.060  0.00  0.00    -0.353 N 
ATOM     21  H   UNL     1       0.425   1.448  -2.337  0.00  0.00    +0.143 HD
ATOM     22  H   UNL     1      -0.196   1.371  -3.896  0.00  0.00    +0.143 HD
ENDBRANCH   4  20
BRANCH   5  23
ATOM     23  N   UNL     1      -0.944  -0.637  -5.192  0.00  0.00    -0.305 N 
BRANCH  23  24
ATOM     24  C   UNL     1       0.146  -0.464  -6.156  0.00  0.00    +0.142 C 
BRANCH  24  25
ATOM     25  C   UNL     1       0.245  -1.689  -7.027  0.00  0.00    -0.030 A 
ATOM     26  C   UNL     1       1.053  -2.744  -6.646  0.00  0.00    +0.005 A 
ATOM     27  C   UNL     1       1.144  -3.868  -7.446  0.00  0.00    +0.000 A 
ATOM     28  C   UNL     1       0.428  -3.937  -8.626  0.00  0.00    +0.000 A 
ATOM     29  C   UNL     1      -0.380  -2.882  -9.006  0.00  0.00    +0.000 A 
ATOM     30  C   UNL     1      -0.475  -1.760  -8.205  0.00  0.00    +0.005 A 
ENDBRANCH  24  25
ENDBRANCH  23  24
BRANCH  23  31
ATOM     31  C   UNL     1      -2.301  -0.204  -5.534  0.00  0.00    +0.142 C 
BRANCH  31  32
ATOM     32  C   UNL     1      -2.451   1.264  -5.229  0.00  0.00    -0.030 A 
ATOM     33  C   UNL     1      -2.860   1.671  -3.972  0.00  0.00    +0.005 A 
ATOM     34  C   UNL     1      -2.998   3.017  -3.692  0.00  0.00    +0.000 A 
ATOM     35  C   UNL     1      -2.727   3.957  -4.669  0.00  0.00    +0.000 A 
ATOM     36  C   UNL     1      -2.318   3.551  -5.925  0.00  0.00    +0.000 A 
ATOM     37  C   UNL     1      -2.176   2.205  -6.204  0.00  0.00    +0.005 A 
ENDBRANCH  31  32
ENDBRANCH  23  31
ENDBRANCH   5  23
TORSDOF 9
