REMARK  Name = ZINC01382462
REMARK  11 active torsions:
REMARK  status: ('A' for Active; 'I' for Inactive)
REMARK    1  A    between atoms: C_1  and  C_2
REMARK    2  A    between atoms: C_2  and  C_3
REMARK    3  A    between atoms: C_10  and  C_15
REMARK    4  A    between atoms: C_15  and  C_17
REMARK    5  A    between atoms: C_15  and  N_28
REMARK    6  A    between atoms: N_21  and  C_22
REMARK    7  A    between atoms: C_22  and  C_23
REMARK    8  A    between atoms: N_28  and  C_29
REMARK    9  A    between atoms: N_28  and  C_36
REMARK   10  A    between atoms: C_29  and  C_30
REMARK   11  A    between atoms: C_36  and  C_37
REMARK                            x       y       z     vdW  Elec       q    Type
REMARK                         _______ _______ _______ _____ _____    ______ ____
ROOT
ATOM      1  C   UNL     1      -8.563  -1.425  -3.836  0.00  0.00    +0.163 C 
ENDROOT
BRANCH   1   9
ATOM      2  C   UNL     1      -8.191   0.870   1.898  0.00  0.00    -0.047 A 
ATOM      3  C   UNL     1      -9.442   0.441   2.319  0.00  0.00    +0.005 A 
ATOM      4  C   UNL     1     -10.268  -0.261   1.468  0.00  0.00    +0.026 A 
ATOM      5  C   UNL     1      -9.846  -0.543   0.173  0.00  0.00    +0.049 A 
ATOM      6  C   UNL     1      -8.577  -0.105  -0.251  0.00  0.00    -0.001 A 
ATOM      7  C   UNL     1      -7.757   0.610   0.629  0.00  0.00    +0.013 A 
ATOM      8  C   UNL     1      -8.142  -0.406  -1.616  0.00  0.00    +0.021 A 
ATOM      9  C   UNL     1      -8.981  -1.099  -2.425  0.00  0.00    +0.042 A 
ATOM     10  C   UNL     1     -10.243  -1.514  -1.952  0.00  0.00    +0.254 A 
ATOM     11  O   UNL     1     -10.982  -2.136  -2.696  0.00  0.00    -0.268 OA
ATOM     12  N   UNL     1     -10.652  -1.242  -0.700  0.00  0.00    -0.322 N 
ATOM     13  H   UNL     1     -11.526  -1.544  -0.406  0.00  0.00    +0.169 HD
BRANCH   2  15
ATOM     14  C   UNL     1      -7.590   3.133   2.714  0.00  0.00    +0.009 C 
ATOM     15  C   UNL     1      -7.306   1.636   2.847  0.00  0.00    +0.032 C 
ENDBRANCH   2  15
ENDBRANCH   1   9
BRANCH   1  16
ATOM     16  C   UNL     1      -8.424  -2.919  -3.986  0.00  0.00    +0.174 A 
ATOM     17  N   UNL     1      -9.350  -3.818  -3.759  0.00  0.00    -0.111 NA
ATOM     18  N   UNL     1      -8.846  -4.978  -4.000  0.00  0.00    -0.023 NA
ATOM     19  N   UNL     1      -7.622  -4.843  -4.375  0.00  0.00    -0.043 NA
ATOM     20  N   UNL     1      -7.326  -3.587  -4.384  0.00  0.00    -0.220 N 
BRANCH  20  21
ATOM     21  C   UNL     1      -6.036  -3.000  -4.754  0.00  0.00    +0.221 C 
BRANCH  21  22
ATOM     22  C   UNL     1      -5.115  -3.018  -3.562  0.00  0.00    +0.126 A 
ATOM     23  C   UNL     1      -4.266  -4.010  -3.238  0.00  0.00    +0.046 A 
ATOM     24  C   UNL     1      -3.603  -3.613  -2.054  0.00  0.00    +0.041 A 
ATOM     25  C   UNL     1      -4.087  -2.401  -1.725  0.00  0.00    +0.195 A 
ATOM     26  O   UNL     1      -4.997  -2.044  -2.645  0.00  0.00    -0.466 OA
ENDBRANCH  21  22
ENDBRANCH  20  21
ENDBRANCH   1  16
BRANCH   1  27
ATOM     27  N   UNL     1      -9.580  -0.932  -4.774  0.00  0.00    -0.280 NA
BRANCH  27  28
ATOM     28  C   UNL     1      -9.469   0.521  -4.955  0.00  0.00    +0.121 C 
BRANCH  28  29
ATOM     29  C   UNL     1     -10.050   1.224  -3.756  0.00  0.00    -0.033 A 
ATOM     30  C   UNL     1     -11.394   1.089  -3.461  0.00  0.00    +0.005 A 
ATOM     31  C   UNL     1     -11.928   1.733  -2.360  0.00  0.00    +0.000 A 
ATOM     32  C   UNL     1     -11.118   2.511  -1.554  0.00  0.00    +0.000 A 
ATOM     33  C   UNL     1      -9.774   2.645  -1.849  0.00  0.00    +0.000 A 
ATOM     34  C   UNL     1      -9.239   1.997  -2.947  0.00  0.00    +0.005 A 
ENDBRANCH  28  29
ENDBRANCH  27  28
BRANCH  27  35
ATOM     35  C   UNL     1      -9.492  -1.632  -6.063  0.00  0.00    +0.122 C 
BRANCH  35  36
ATOM     36  C   UNL     1     -10.462  -2.784  -6.077  0.00  0.00    -0.015 A 
ATOM     37  C   UNL     1     -10.001  -4.090  -6.159  0.00  0.00    +0.008 A 
ATOM     38  C   UNL     1     -10.931  -5.118  -6.169  0.00  0.00    +0.020 A 
ATOM     39  C   UNL     1     -12.276  -4.811  -6.096  0.00  0.00    +0.111 A 
ATOM     40  N   UNL     1     -12.679  -3.557  -6.019  0.00  0.00    -0.263 NA
ATOM     41  C   UNL     1     -11.823  -2.554  -6.002  0.00  0.00    +0.115 A 
ENDBRANCH  35  36
ENDBRANCH  27  35
ENDBRANCH   1  27
TORSDOF 10
