REMARK  Name = ZINC35810753
REMARK  8 active torsions:
REMARK  status: ('A' for Active; 'I' for Inactive)
REMARK    1  A    between atoms: C_1  and  N_2
REMARK    2  A    between atoms: N_2  and  C_3
REMARK    3  A    between atoms: C_3  and  C_4
REMARK    4  A    between atoms: C_9  and  C_11
REMARK    5  A    between atoms: C_16  and  N_17
REMARK    6  A    between atoms: C_20  and  N_23
REMARK    7  A    between atoms: C_24  and  C_26
REMARK    8  A    between atoms: C_29  and  N_32
REMARK                            x       y       z     vdW  Elec       q    Type
REMARK                         _______ _______ _______ _____ _____    ______ ____
ROOT
ATOM      1  N   UNL     1      -0.479  -1.911  -3.606  0.00  0.00    -0.329 N 
ATOM      2  C   UNL     1      -1.813  -2.484  -3.379  0.00  0.00    +0.107 C 
ATOM      3  C   UNL     1      -1.725  -3.500  -2.236  0.00  0.00    +0.041 C 
ATOM      4  C   UNL     1      -0.644  -4.533  -2.559  0.00  0.00    +0.076 C 
ATOM      5  C   UNL     1       0.711  -3.833  -2.688  0.00  0.00    +0.041 C 
ATOM      6  C   UNL     1       0.650  -2.821  -3.842  0.00  0.00    +0.107 C 
ENDROOT
BRANCH   1  12
ATOM      7  C   UNL     1       0.181   0.110  -2.449  0.00  0.00    +0.058 A 
ATOM      8  C   UNL     1       0.372   1.494  -2.461  0.00  0.00    +0.015 A 
ATOM      9  C   UNL     1       0.092   2.216  -3.600  0.00  0.00    +0.001 A 
ATOM     10  C   UNL     1      -0.379   1.577  -4.736  0.00  0.00    +0.002 A 
ATOM     11  C   UNL     1      -0.574   0.212  -4.740  0.00  0.00    +0.024 A 
ATOM     12  C   UNL     1      -0.290  -0.535  -3.603  0.00  0.00    +0.042 A 
BRANCH   7  15
ATOM     13  C   UNL     1       2.776   0.138  -1.344  0.00  0.00    +0.133 C 
ATOM     14  N   UNL     1       1.733  -0.694  -0.738  0.00  0.00    -0.293 N 
ATOM     15  C   UNL     1       0.479  -0.669  -1.233  0.00  0.00    +0.249 C 
ATOM     16  O   UNL     1      -0.406  -1.290  -0.676  0.00  0.00    -0.270 OA
BRANCH  14  17
ATOM     17  C   UNL     1       2.053  -1.552   0.405  0.00  0.00    +0.182 C 
BRANCH  17  18
ATOM     18  C   UNL     1       1.833  -0.786   1.685  0.00  0.00    +0.122 A 
ATOM     19  C   UNL     1       0.685  -0.738   2.385  0.00  0.00    +0.046 A 
ATOM     20  C   UNL     1       0.924   0.089   3.506  0.00  0.00    +0.041 A 
ATOM     21  C   UNL     1       2.204   0.496   3.425  0.00  0.00    +0.195 A 
ATOM     22  O   UNL     1       2.751  -0.042   2.322  0.00  0.00    -0.466 OA
ENDBRANCH  17  18
ENDBRANCH  14  17
ENDBRANCH   7  15
ENDBRANCH   1  12
BRANCH   4  23
ATOM     23  N   UNL     1      -0.580  -5.526  -1.483  0.00  0.00    -0.308 N 
ATOM     24  C   UNL     1      -0.108  -6.763  -1.735  0.00  0.00    +0.244 C 
ATOM     25  O   UNL     1       0.264  -7.055  -2.854  0.00  0.00    -0.270 OA
ATOM     26  H   UNL     1      -0.877  -5.292  -0.590  0.00  0.00    +0.149 HD
BRANCH  24  27
ATOM     27  C   UNL     1      -0.043  -7.764  -0.649  0.00  0.00    +0.037 A 
ATOM     28  C   UNL     1      -0.475  -7.434   0.636  0.00  0.00    +0.015 A 
ATOM     29  C   UNL     1      -0.413  -8.373   1.645  0.00  0.00    +0.033 A 
ATOM     30  C   UNL     1       0.077  -9.640   1.384  0.00  0.00    +0.126 A 
ATOM     31  C   UNL     1       0.507  -9.975   0.113  0.00  0.00    +0.033 A 
ATOM     32  C   UNL     1       0.444  -9.046  -0.906  0.00  0.00    +0.015 A 
BRANCH  30  33
ATOM     33  N   UNL     1       0.142 -10.643   2.471  0.00  0.00    +0.056 N 
ATOM     34  O   UNL     1      -0.233 -10.354   3.584  0.00  0.00    -0.126 OA
ATOM     35  O   UNL     1       0.569 -11.751   2.247  0.00  0.00    -0.126 OA
ENDBRANCH  30  33
ENDBRANCH  24  27
ENDBRANCH   4  23
TORSDOF 7
