REMARK  Name = ZINC19529499
REMARK  13 active torsions:
REMARK  status: ('A' for Active; 'I' for Inactive)
REMARK    1  A    between atoms: C_1  and  C_2
REMARK    2  A    between atoms: C_2  and  O_3
REMARK    3  A    between atoms: O_3  and  C_4
REMARK    4  A    between atoms: C_4  and  C_6
REMARK    5  A    between atoms: C_6  and  C_37
REMARK    6  A    between atoms: C_11  and  C_14
REMARK    7  A    between atoms: C_17  and  O_22
REMARK    8  A    between atoms: C_18  and  O_20
REMARK    9  A    between atoms: O_20  and  C_21
REMARK   10  A    between atoms: O_22  and  C_23
REMARK   11  A    between atoms: N_26  and  C_29
REMARK   12  A    between atoms: C_32  and  O_35
REMARK   13  A    between atoms: O_35  and  C_36
REMARK                            x       y       z     vdW  Elec       q    Type
REMARK                         _______ _______ _______ _____ _____    ______ ____
ROOT
ATOM      1  C   UNL     1      -2.778  -2.455   0.006  0.00  0.00    +0.127 C 
ATOM      2  C   UNL     1      -2.789  -3.826   0.662  0.00  0.00    +0.120 C 
ATOM      3  C   UNL     1      -3.013  -3.368   2.155  0.00  0.00    +0.111 C 
ATOM      4  C   UNL     1      -4.136  -2.425   2.019  0.00  0.00    +0.098 C 
ATOM      5  N   UNL     1      -3.724  -1.620   0.807  0.00  0.00    -0.294 NA
ATOM      6  C   UNL     1      -2.649  -4.558   2.883  0.00  0.00    +0.232 C 
ATOM      7  O   UNL     1      -3.128  -4.963   3.920  0.00  0.00    -0.274 OA
ATOM      8  N   UNL     1      -1.642  -5.132   2.148  0.00  0.00    -0.210 N 
ATOM      9  C   UNL     1      -1.525  -4.596   0.885  0.00  0.00    +0.232 C 
ATOM     10  O   UNL     1      -0.597  -4.714   0.115  0.00  0.00    -0.274 OA
ATOM     11  C   UNL     1      -3.258  -2.557  -1.443  0.00  0.00    +0.040 C 
ATOM     12  H   UNL     1      -3.297  -0.745   1.073  0.00  0.00    +0.124 HD
ENDROOT
BRANCH   4  13
ATOM     13  C   UNL     1      -5.429  -3.163   1.786  0.00  0.00    -0.026 A 
ATOM     14  C   UNL     1      -5.704  -3.697   0.541  0.00  0.00    +0.009 A 
ATOM     15  C   UNL     1      -6.889  -4.375   0.322  0.00  0.00    +0.050 A 
ATOM     16  C   UNL     1      -7.804  -4.520   1.352  0.00  0.00    +0.162 A 
ATOM     17  C   UNL     1      -7.528  -3.983   2.606  0.00  0.00    +0.162 A 
ATOM     18  C   UNL     1      -6.336  -3.309   2.820  0.00  0.00    +0.054 A 
BRANCH  17  19
ATOM     19  O   UNL     1      -8.423  -4.123   3.620  0.00  0.00    -0.491 OA
ATOM     20  C   UNL     1      -8.072  -3.546   4.879  0.00  0.00    +0.277 C 
ENDBRANCH  17  19
BRANCH  16  21
ATOM     21  O   UNL     1      -8.971  -5.186   1.139  0.00  0.00    -0.491 OA
ATOM     22  C   UNL     1      -9.188  -5.710  -0.173  0.00  0.00    +0.277 C 
ENDBRANCH  16  21
ENDBRANCH   4  13
BRANCH   8  23
ATOM     23  C   UNL     1      -0.821  -6.165   2.627  0.00  0.00    +0.044 A 
ATOM     24  C   UNL     1       0.180  -6.688   1.820  0.00  0.00    +0.027 A 
ATOM     25  C   UNL     1       0.987  -7.704   2.292  0.00  0.00    +0.047 A 
ATOM     26  C   UNL     1       0.797  -8.203   3.573  0.00  0.00    +0.120 A 
ATOM     27  C   UNL     1      -0.204  -7.682   4.379  0.00  0.00    +0.047 A 
ATOM     28  C   UNL     1      -1.008  -6.662   3.910  0.00  0.00    +0.027 A 
BRANCH  26  29
ATOM     29  O   UNL     1       1.592  -9.203   4.037  0.00  0.00    -0.495 OA
ATOM     30  C   UNL     1       1.340  -9.669   5.364  0.00  0.00    +0.277 C 
ENDBRANCH  26  29
ENDBRANCH   8  23
BRANCH   1  31
ATOM     31  C   UNL     1      -1.392  -1.865   0.055  0.00  0.00    +0.328 C 
ATOM     32  O   UNL     1      -0.427  -2.591   0.089  0.00  0.00    -0.249 OA
BRANCH  31  33
ATOM     33  O   UNL     1      -1.230  -0.532   0.061  0.00  0.00    -0.464 OA
BRANCH  33  35
ATOM     34  C   UNL     1       0.096   1.488   0.108  0.00  0.00    +0.048 C 
ATOM     35  C   UNL     1       0.112  -0.042   0.108  0.00  0.00    +0.229 C 
ENDBRANCH  33  35
ENDBRANCH  31  33
ENDBRANCH   1  31
TORSDOF 8
