REMARK  Name = ZINC37428130
REMARK  14 active torsions:
REMARK  status: ('A' for Active; 'I' for Inactive)
REMARK    1  A    between atoms: C_1  and  C_2
REMARK    2  A    between atoms: C_2  and  C_3
REMARK    3  A    between atoms: C_2  and  C_4
REMARK    4  A    between atoms: C_4  and  N_5
REMARK    5  A    between atoms: C_6  and  C_8
REMARK    6  A    between atoms: C_8  and  N_9
REMARK    7  A    between atoms: C_12  and  C_16
REMARK    8  A    between atoms: N_14  and  C_15
REMARK    9  A    between atoms: C_16  and  C_17
REMARK   10  A    between atoms: C_16  and  C_18
REMARK   11  A    between atoms: C_16  and  C_19
REMARK   12  A    between atoms: C_20  and  C_26
REMARK   13  A    between atoms: C_31  and  O_32
REMARK   14  A    between atoms: O_32  and  C_33
REMARK                            x       y       z     vdW  Elec       q    Type
REMARK                         _______ _______ _______ _____ _____    ______ ____
ROOT
ATOM      1  N   UNL     1      -3.026  -3.409  -4.793  0.00  0.00    -0.246 N 
ATOM      2  C   UNL     1      -4.330  -3.916  -4.686  0.00  0.00    +0.131 A 
ATOM      3  C   UNL     1      -5.396  -3.394  -5.336  0.00  0.00    +0.033 A 
ATOM      4  C   UNL     1      -6.519  -4.145  -4.988  0.00  0.00    +0.075 A 
ATOM      5  N   UNL     1      -6.137  -5.088  -4.160  0.00  0.00    -0.174 NA
ATOM      6  N   UNL     1      -4.754  -4.964  -3.956  0.00  0.00    -0.253 N 
ATOM      7  C   UNL     1      -3.924  -5.819  -3.104  0.00  0.00    +0.174 C 
ATOM      8  C   UNL     1      -5.341  -2.212  -6.269  0.00  0.00    +0.115 C 
ATOM      9  S   UNL     1      -5.112  -0.694  -5.274  0.00  0.00    -0.138 S 
ATOM     10  C   UNL     1      -3.904  -1.243  -4.023  0.00  0.00    +0.166 C 
ATOM     11  C   UNL     1      -2.840  -2.093  -4.644  0.00  0.00    +0.231 C 
ATOM     12  O   UNL     1      -1.804  -1.584  -5.019  0.00  0.00    -0.274 OA
ENDROOT
BRANCH   8  13
ATOM     13  C   UNL     1      -6.628  -2.122  -7.047  0.00  0.00    +0.012 A 
ATOM     14  C   UNL     1      -7.637  -1.280  -6.620  0.00  0.00    +0.008 A 
ATOM     15  C   UNL     1      -8.819  -1.197  -7.334  0.00  0.00    +0.001 A 
ATOM     16  C   UNL     1      -8.993  -1.956  -8.477  0.00  0.00    +0.004 A 
ATOM     17  C   UNL     1      -7.988  -2.799  -8.908  0.00  0.00    +0.046 A 
ATOM     18  C   UNL     1      -6.799  -2.880  -8.197  0.00  0.00    +0.125 A 
BRANCH  18  19
ATOM     19  O   UNL     1      -5.806  -3.704  -8.622  0.00  0.00    -0.495 OA
ATOM     20  C   UNL     1      -6.051  -4.454  -9.813  0.00  0.00    +0.277 C 
ENDBRANCH  18  19
ENDBRANCH   8  13
BRANCH   4  21
ATOM     21  C   UNL     1      -7.926  -3.913  -5.477  0.00  0.00    +0.007 C 
ATOM     22  C   UNL     1      -7.985  -4.146  -6.988  0.00  0.00    +0.017 C 
ATOM     23  C   UNL     1      -8.877  -4.883  -4.774  0.00  0.00    +0.017 C 
ATOM     24  C   UNL     1      -8.343  -2.474  -5.166  0.00  0.00    +0.017 C 
ENDBRANCH   4  21
BRANCH   1  25
ATOM     25  C   UNL     1      -1.893  -4.301  -5.053  0.00  0.00    +0.210 C 
BRANCH  25  27
ATOM     26  N   UNL     1      -0.580  -5.063  -7.006  0.00  0.00    -0.314 N 
ATOM     27  C   UNL     1      -1.589  -4.308  -6.529  0.00  0.00    +0.231 C 
ATOM     28  O   UNL     1      -2.253  -3.635  -7.289  0.00  0.00    -0.274 OA
ATOM     29  H   UNL     1      -0.049  -5.602  -6.399  0.00  0.00    +0.149 HD
BRANCH  26  30
ATOM     30  C   UNL     1      -0.284  -5.071  -8.441  0.00  0.00    +0.107 C 
BRANCH  30  32
ATOM     31  C   UNL     1       0.503  -7.441  -8.374  0.00  0.00    +0.009 C 
ATOM     32  C   UNL     1       0.898  -6.002  -8.713  0.00  0.00    -0.000 C 
ATOM     33  C   UNL     1       1.287  -5.915 -10.190  0.00  0.00    +0.009 C 
ENDBRANCH  30  32
ENDBRANCH  26  30
ENDBRANCH  25  27
ENDBRANCH   1  25
TORSDOF 7
