REMARK  Name = ZINC02632063
REMARK  11 active torsions:
REMARK  status: ('A' for Active; 'I' for Inactive)
REMARK    1  A    between atoms: C_1  and  C_2
REMARK    2  A    between atoms: C_2  and  N_3
REMARK    3  A    between atoms: N_3  and  C_4
REMARK    4  A    between atoms: N_3  and  S_6
REMARK    5  A    between atoms: C_4  and  C_5
REMARK    6  A    between atoms: S_6  and  C_9
REMARK    7  A    between atoms: C_13  and  C_15
REMARK    8  A    between atoms: N_17  and  N_18
REMARK    9  A    between atoms: C_19  and  C_20
REMARK   10  A    between atoms: C_21  and  C_32
REMARK   11  A    between atoms: N_23  and  C_26
REMARK                            x       y       z     vdW  Elec       q    Type
REMARK                         _______ _______ _______ _____ _____    ______ ____
ROOT
ATOM      1  C   UNL     1       1.506   2.347  -6.283  0.00  0.00    +0.263 C 
ATOM      2  O   UNL     1       2.447   1.598  -6.459  0.00  0.00    -0.268 OA
ATOM      3  N   UNL     1       1.386   3.465  -7.027  0.00  0.00    -0.203 N 
ATOM      4  H   UNL     1       0.635   4.063  -6.886  0.00  0.00    +0.178 HD
ENDROOT
BRANCH   1   9
ATOM      5  C   UNL     1      -0.337   0.586  -3.526  0.00  0.00    +0.106 A 
ATOM      6  C   UNL     1      -1.407   1.441  -3.328  0.00  0.00    +0.028 A 
ATOM      7  C   UNL     1      -1.532   2.589  -4.089  0.00  0.00    +0.003 A 
ATOM      8  C   UNL     1      -0.590   2.890  -5.051  0.00  0.00    +0.013 A 
ATOM      9  C   UNL     1       0.492   2.032  -5.255  0.00  0.00    +0.040 A 
ATOM     10  C   UNL     1       0.615   0.877  -4.480  0.00  0.00    +0.041 A 
BRANCH   5  11
ATOM     11  S   UNL     1      -0.188  -0.875  -2.551  0.00  0.00    +0.061 S 
ATOM     12  O   UNL     1       0.610  -1.782  -3.300  0.00  0.00    -0.153 OA
ATOM     13  O   UNL     1      -1.496  -1.201  -2.104  0.00  0.00    -0.153 OA
BRANCH  11  14
ATOM     14  N   UNL     1       0.688  -0.476  -1.203  0.00  0.00    -0.177 NA
BRANCH  14  16
ATOM     15  C   UNL     1      -0.019   1.526   0.010  0.00  0.00    +0.022 C 
ATOM     16  C   UNL     1       0.002  -0.004   0.002  0.00  0.00    +0.106 C 
ENDBRANCH  14  16
BRANCH  14  17
ATOM     17  C   UNL     1       2.148  -0.597  -1.216  0.00  0.00    +0.106 C 
ATOM     18  C   UNL     1       2.553  -1.951  -0.632  0.00  0.00    +0.022 C 
ENDBRANCH  14  17
ENDBRANCH  11  14
ENDBRANCH   5  11
ENDBRANCH   1   9
BRANCH   3  19
ATOM     19  N   UNL     1       2.347   3.764  -8.001  0.00  0.00    -0.187 NA
ATOM     20  C   UNL     1       2.232   4.841  -8.717  0.00  0.00    +0.143 C 
BRANCH  20  21
ATOM     21  C   UNL     1       3.244   5.155  -9.743  0.00  0.00    +0.054 A 
ATOM     22  C   UNL     1       3.255   6.286 -10.589  0.00  0.00    +0.070 A 
ATOM     23  N   UNL     1       4.308   6.210 -11.358  0.00  0.00    -0.170 NA
ATOM     24  N   UNL     1       5.013   5.042 -11.046  0.00  0.00    -0.221 N 
ATOM     25  C   UNL     1       4.359   4.403 -10.052  0.00  0.00    +0.142 A 
ATOM     26 CL   UNL     1       4.831   2.909  -9.303  0.00  0.00    -0.061 Cl
ATOM     27  C   UNL     1       2.229   7.390 -10.603  0.00  0.00    +0.068 C 
BRANCH  24  28
ATOM     28  C   UNL     1       6.199   4.612 -11.656  0.00  0.00    +0.067 A 
ATOM     29  C   UNL     1       7.162   3.945 -10.912  0.00  0.00    +0.028 A 
ATOM     30  C   UNL     1       8.330   3.522 -11.517  0.00  0.00    +0.002 A 
ATOM     31  C   UNL     1       8.539   3.762 -12.863  0.00  0.00    +0.000 A 
ATOM     32  C   UNL     1       7.581   4.426 -13.607  0.00  0.00    +0.002 A 
ATOM     33  C   UNL     1       6.409   4.847 -13.009  0.00  0.00    +0.028 A 
ENDBRANCH  24  28
ENDBRANCH  20  21
ENDBRANCH   3  19
TORSDOF 8
