REMARK  Name = ZINC09057481
REMARK  8 active torsions:
REMARK  status: ('A' for Active; 'I' for Inactive)
REMARK    1  A    between atoms: C_10  and  C_11
REMARK    2  A    between atoms: C_11  and  O_12
REMARK    3  A    between atoms: O_12  and  C_13
REMARK    4  A    between atoms: C_17  and  C_19
REMARK    5  A    between atoms: C_20  and  C_21
REMARK    6  A    between atoms: C_20  and  C_23
REMARK    7  A    between atoms: N_25  and  C_26
REMARK    8  A    between atoms: C_28  and  N_33
REMARK                            x       y       z     vdW  Elec       q    Type
REMARK                         _______ _______ _______ _____ _____    ______ ____
ROOT
ATOM      1  C   UNL     1      -4.911   3.225  -0.189  0.00  0.00    +0.122 A 
ATOM      2  C   UNL     1      -5.108   4.600  -0.145  0.00  0.00    +0.046 A 
ATOM      3  C   UNL     1      -6.385   5.120  -0.034  0.00  0.00    +0.004 A 
ATOM      4  C   UNL     1      -7.474   4.277   0.035  0.00  0.00    +0.008 A 
ATOM      5  C   UNL     1      -7.288   2.890  -0.007  0.00  0.00    -0.020 A 
ATOM      6  C   UNL     1      -5.995   2.368  -0.126  0.00  0.00    +0.053 A 
ENDROOT
BRANCH   5   7
ATOM      7  C   UNL     1      -8.444   1.988   0.065  0.00  0.00    +0.032 C 
ATOM      8  C   UNL     1      -8.295   0.727   0.568  0.00  0.00    +0.114 C 
BRANCH   8   9
ATOM      9  C   UNL     1      -9.406  -0.236   0.481  0.00  0.00    +0.259 C 
ATOM     10  O   UNL     1     -10.456   0.092  -0.038  0.00  0.00    -0.269 OA
ATOM     11  N   UNL     1      -9.259  -1.481   0.976  0.00  0.00    -0.279 N 
ATOM     12  H   UNL     1      -8.452  -1.718   1.460  0.00  0.00    +0.155 HD
BRANCH  11  13
ATOM     13  C   UNL     1     -10.271  -2.430   0.794  0.00  0.00    +0.071 A 
ATOM     14  C   UNL     1     -11.155  -2.309  -0.270  0.00  0.00    +0.059 A 
ATOM     15  C   UNL     1     -12.150  -3.250  -0.450  0.00  0.00    +0.128 A 
ATOM     16  C   UNL     1     -12.273  -4.308   0.433  0.00  0.00    +0.035 A 
ATOM     17  C   UNL     1     -11.398  -4.430   1.496  0.00  0.00    +0.042 A 
ATOM     18  C   UNL     1     -10.396  -3.494   1.680  0.00  0.00    +0.145 A 
ATOM     19  F   UNL     1      -9.541  -3.614   2.719  0.00  0.00    -0.204 F 
BRANCH  15  20
ATOM     20  N   UNL     1     -13.090  -3.123  -1.586  0.00  0.00    +0.056 N 
ATOM     21  O   UNL     1     -13.970  -3.950  -1.743  0.00  0.00    -0.126 OA
ATOM     22  O   UNL     1     -12.983  -2.192  -2.364  0.00  0.00    -0.126 OA
ENDBRANCH  15  20
ENDBRANCH  11  13
ENDBRANCH   8   9
BRANCH   8  23
ATOM     23  C   UNL     1      -7.059   0.340   1.178  0.00  0.00    +0.104 C 
ATOM     24  N   UNL     1      -6.078   0.034   1.663  0.00  0.00    -0.191 NA
ENDBRANCH   8  23
ENDBRANCH   5   7
BRANCH   1  25
ATOM     25  O   UNL     1      -3.653   2.723  -0.299  0.00  0.00    -0.487 OA
BRANCH  25  26
ATOM     26  C   UNL     1      -2.582   3.666  -0.365  0.00  0.00    +0.265 C 
BRANCH  26  36
ATOM     27  C   UNL     1       2.343   5.012  -0.731  0.00  0.00    +0.001 A 
ATOM     28  C   UNL     1       1.142   5.709  -0.620  0.00  0.00    +0.001 A 
ATOM     29  C   UNL     1      -0.046   5.050  -0.539  0.00  0.00    +0.009 A 
ATOM     30  C   UNL     1      -0.065   3.645  -0.566  0.00  0.00    -0.011 A 
ATOM     31  C   UNL     1       1.157   2.936  -0.678  0.00  0.00    -0.018 A 
ATOM     32  C   UNL     1       2.364   3.651  -0.760  0.00  0.00    +0.008 A 
ATOM     33  C   UNL     1       1.138   1.531  -0.706  0.00  0.00    +0.008 A 
ATOM     34  C   UNL     1      -0.051   0.872  -0.625  0.00  0.00    +0.001 A 
ATOM     35  C   UNL     1      -1.252   1.570  -0.521  0.00  0.00    +0.007 A 
ATOM     36  C   UNL     1      -1.272   2.930  -0.485  0.00  0.00    -0.003 A 
ENDBRANCH  26  36
ENDBRANCH  25  26
ENDBRANCH   1  25
TORSDOF 8
