REMARK  Name = ZINC39568627
REMARK  7 active torsions:
REMARK  status: ('A' for Active; 'I' for Inactive)
REMARK    1  A    between atoms: C_1  and  C_2
REMARK    2  A    between atoms: C_4  and  C_9
REMARK    3  A    between atoms: C_7  and  C_8
REMARK    4  A    between atoms: C_9  and  C_12
REMARK    5  A    between atoms: N_10  and  N_11
REMARK    6  A    between atoms: C_15  and  C_19
REMARK    7  A    between atoms: C_16  and  C_18
REMARK                            x       y       z     vdW  Elec       q    Type
REMARK                         _______ _______ _______ _____ _____    ______ ____
ROOT
ATOM      1  C   UNL     1       1.240  -2.886  -1.025  0.00  0.00    +0.092 C 
ATOM      2  N   UNL     1       2.079  -2.216  -1.721  0.00  0.00    -0.194 NA
ENDROOT
BRANCH   1   6
ATOM      3  C   UNL     1      -0.796   1.351  -0.671  0.00  0.00    +0.045 C 
ATOM      4  C   UNL     1      -0.562  -0.126  -0.480  0.00  0.00    -0.031 C 
ATOM      5  C   UNL     1      -0.303  -0.996  -1.455  0.00  0.00    +0.010 C 
ATOM      6  C   UNL     1      -0.144  -2.341  -0.781  0.00  0.00    +0.177 C 
ATOM      7  N   UNL     1      -0.347  -2.086   0.651  0.00  0.00    -0.275 NA
ATOM      8  C   UNL     1      -0.577  -0.825   0.805  0.00  0.00    +0.037 C 
ATOM      9  C   UNL     1      -0.833  -0.161   2.134  0.00  0.00    +0.065 C 
ENDBRANCH   1   6
BRANCH   1  10
ATOM     10  C   UNL     1       1.635  -4.221  -0.449  0.00  0.00    +0.177 C 
ATOM     11  C   UNL     1       1.236  -5.337  -1.390  0.00  0.00    +0.010 C 
ATOM     12  C   UNL     1       0.379  -6.099  -0.712  0.00  0.00    -0.031 C 
ATOM     13  C   UNL     1       0.190  -5.545   0.629  0.00  0.00    +0.037 C 
ATOM     14  N   UNL     1       0.899  -4.476   0.796  0.00  0.00    -0.275 NA
ATOM     15  C   UNL     1      -0.712  -6.142   1.679  0.00  0.00    +0.065 C 
ATOM     16  C   UNL     1      -0.292  -7.338  -1.244  0.00  0.00    +0.045 C 
ENDBRANCH   1  10
BRANCH   2  17
ATOM     17  N   UNL     1       3.321  -2.773  -2.048  0.00  0.00    -0.282 N 
ATOM     18  H   UNL     1       3.509  -3.700  -1.832  0.00  0.00    +0.164 HD
ATOM     19  H   UNL     1       3.994  -2.233  -2.491  0.00  0.00    +0.164 HD
ENDBRANCH   2  17
TORSDOF 3
