REMARK  Name = ZINC28939080
REMARK  7 active torsions:
REMARK  status: ('A' for Active; 'I' for Inactive)
REMARK    1  A    between atoms: C_1  and  C_2
REMARK    2  A    between atoms: C_9  and  C_16
REMARK    3  A    between atoms: C_11  and  O_12
REMARK    4  A    between atoms: C_16  and  O_17
REMARK    5  A    between atoms: O_17  and  C_18
REMARK    6  A    between atoms: C_18  and  C_20
REMARK    7  A    between atoms: C_20  and  C_25
REMARK                            x       y       z     vdW  Elec       q    Type
REMARK                         _______ _______ _______ _____ _____    ______ ____
ROOT
ATOM      1  C   UNL     1      -0.683   1.482  -2.261  0.00  0.00    +0.109 C 
ATOM      2  C   UNL     1      -0.668  -0.025  -2.250  0.00  0.00    +0.214 C 
ATOM      3  O   UNL     1      -1.209  -0.643  -3.143  0.00  0.00    -0.276 OA
ATOM      4  N   UNL     1      -0.055  -0.686  -1.249  0.00  0.00    -0.286 N 
ATOM      5  C   UNL     1      -0.119  -2.079  -1.190  0.00  0.00    +0.037 A 
ATOM      6  C   UNL     1      -0.182  -2.717   0.049  0.00  0.00    +0.024 A 
ATOM      7  C   UNL     1      -0.251  -4.077   0.122  0.00  0.00    +0.014 A 
ATOM      8  C   UNL     1      -0.246  -4.839  -1.052  0.00  0.00    +0.024 A 
ATOM      9  C   UNL     1      -0.314  -6.301  -1.003  0.00  0.00    +0.007 A 
ATOM     10  C   UNL     1      -0.306  -6.984  -2.177  0.00  0.00    +0.095 A 
ATOM     11  C   UNL     1      -0.235  -6.280  -3.397  0.00  0.00    +0.285 A 
ATOM     12  O   UNL     1      -0.174  -4.940  -3.436  0.00  0.00    -0.425 OA
ATOM     13  C   UNL     1      -0.177  -4.201  -2.305  0.00  0.00    +0.141 A 
ATOM     14  C   UNL     1      -0.114  -2.818  -2.363  0.00  0.00    +0.070 A 
ATOM     15  H   UNL     1       0.496  -0.128  -0.477  0.00  0.00    +0.155 HD
ENDROOT
BRANCH  11  16
ATOM     16  O   UNL     1      -0.229  -6.905  -4.443  0.00  0.00    -0.480 OA
ATOM     17  H   UNL     1      -0.174  -6.370  -5.402  0.00  0.00    +0.295 HD
ENDBRANCH  11  16
BRANCH   9  18
ATOM     18  C   UNL     1      -0.389  -7.028   0.315  0.00  0.00    +0.268 C 
BRANCH  18  19
ATOM     19  O   UNL     1      -0.445  -8.459   0.076  0.00  0.00    -0.459 OA
BRANCH  19  20
ATOM     20  C   UNL     1      -0.515  -9.255   1.154  0.00  0.00    +0.318 C 
ATOM     21  O   UNL     1      -0.529  -8.772   2.262  0.00  0.00    -0.250 OA
BRANCH  20  22
ATOM     22  C   UNL     1      -0.577 -10.751   0.984  0.00  0.00    +0.093 C 
ATOM     23  C   UNL     1      -1.858 -11.143   0.228  0.00  0.00    +0.023 C 
ATOM     24  C   UNL     1      -2.667 -12.054   1.174  0.00  0.00    +0.001 C 
ATOM     25  C   UNL     1      -2.166 -11.672   2.589  0.00  0.00    +0.001 C 
ATOM     26  C   UNL     1      -0.652 -11.437   2.364  0.00  0.00    +0.023 C 
BRANCH  22  27
ATOM     27  C   UNL     1       0.636 -11.235   0.232  0.00  0.00    -0.031 A 
ATOM     28  C   UNL     1       0.737 -12.564  -0.135  0.00  0.00    +0.006 A 
ATOM     29  C   UNL     1       1.847 -13.007  -0.829  0.00  0.00    +0.020 A 
ATOM     30  C   UNL     1       2.862 -12.123  -1.147  0.00  0.00    +0.041 A 
ATOM     31  C   UNL     1       2.763 -10.794  -0.775  0.00  0.00    +0.020 A 
ATOM     32  C   UNL     1       1.650 -10.351  -0.086  0.00  0.00    +0.006 A 
ATOM     33 CL   UNL     1       4.259 -12.680  -2.014  0.00  0.00    -0.084 Cl
ENDBRANCH  22  27
ENDBRANCH  20  22
ENDBRANCH  19  20
ENDBRANCH  18  19
ENDBRANCH   9  18
TORSDOF 6
