REMARK  Name = ZINC35567691
REMARK  16 active torsions:
REMARK  status: ('A' for Active; 'I' for Inactive)
REMARK    1  A    between atoms: C_1  and  C_2
REMARK    2  A    between atoms: C_2  and  O_3
REMARK    3  A    between atoms: O_3  and  C_4
REMARK    4  A    between atoms: C_6  and  C_16
REMARK    5  A    between atoms: C_9  and  O_10
REMARK    6  A    between atoms: O_10  and  C_11
REMARK    7  A    between atoms: C_11  and  C_12
REMARK    8  A    between atoms: C_12  and  C_13
REMARK    9  A    between atoms: C_13  and  C_14
REMARK   10  A    between atoms: C_13  and  C_15
REMARK   11  A    between atoms: C_18  and  C_30
REMARK   12  A    between atoms: N_22  and  C_23
REMARK   13  A    between atoms: C_23  and  C_24
REMARK   14  A    between atoms: C_30  and  C_32
REMARK   15  A    between atoms: C_33  and  C_38
REMARK   16  A    between atoms: C_35  and  C_37
REMARK                            x       y       z     vdW  Elec       q    Type
REMARK                         _______ _______ _______ _____ _____    ______ ____
ROOT
ATOM      1  C   UNL     1      -0.448  -5.279   0.093  0.00  0.00    +0.145 C 
ATOM      2  C   UNL     1       0.474  -5.780   1.180  0.00  0.00    +0.077 C 
ATOM      3  C   UNL     1       0.472  -7.130   1.102  0.00  0.00    +0.249 C 
ATOM      4  C   UNL     1      -0.418  -7.553   0.002  0.00  0.00    +0.288 C 
ATOM      5  O   UNL     1      -0.631  -8.705  -0.319  0.00  0.00    -0.266 OA
ATOM      6  N   UNL     1      -0.959  -6.472  -0.593  0.00  0.00    -0.276 N 
ATOM      7  O   UNL     1       1.175  -7.963   1.906  0.00  0.00    -0.282 OA
ENDROOT
BRANCH   1  10
ATOM      8  C   UNL     1      -3.350  -4.319   2.314  0.00  0.00    +0.162 A 
ATOM      9  C   UNL     1      -2.301  -5.033   1.756  0.00  0.00    +0.055 A 
ATOM     10  C   UNL     1      -1.588  -4.501   0.698  0.00  0.00    -0.019 A 
ATOM     11  C   UNL     1      -1.919  -3.257   0.194  0.00  0.00    +0.009 A 
ATOM     12  C   UNL     1      -2.963  -2.539   0.746  0.00  0.00    +0.050 A 
ATOM     13  C   UNL     1      -3.686  -3.069   1.802  0.00  0.00    +0.162 A 
BRANCH   8  14
ATOM     14  O   UNL     1      -4.052  -4.841   3.355  0.00  0.00    -0.489 OA
BRANCH  14  16
ATOM     15  C   UNL     1      -4.528  -6.531   5.016  0.00  0.00    +0.048 C 
ATOM     16  C   UNL     1      -3.610  -6.098   3.870  0.00  0.00    +0.226 C 
ENDBRANCH  14  16
ENDBRANCH   8  14
BRANCH  13  17
ATOM     17  O   UNL     1      -4.717  -2.367   2.343  0.00  0.00    -0.488 OA
BRANCH  17  18
ATOM     18  C   UNL     1      -5.006  -1.091   1.767  0.00  0.00    +0.229 C 
BRANCH  18  19
ATOM     19  C   UNL     1      -6.188  -0.456   2.501  0.00  0.00    +0.044 C 
BRANCH  19  20
ATOM     20  C   UNL     1      -6.497   0.910   1.884  0.00  0.00    -0.014 C 
ATOM     21  C   UNL     1      -6.969   0.723   0.441  0.00  0.00    +0.007 C 
ATOM     22  C   UNL     1      -7.596   1.599   2.695  0.00  0.00    +0.007 C 
ENDBRANCH  19  20
ENDBRANCH  18  19
ENDBRANCH  17  18
ENDBRANCH  13  17
ENDBRANCH   1  10
BRANCH   2  23
ATOM     23  C   UNL     1       1.227  -4.959   2.136  0.00  0.00    +0.203 C 
ATOM     24  O   UNL     1       1.813  -5.488   3.064  0.00  0.00    -0.286 OA
BRANCH  23  25
ATOM     25  C   UNL     1       1.274  -3.502   1.973  0.00  0.00    +0.082 A 
ATOM     26  C   UNL     1       1.780  -2.529   2.827  0.00  0.00    +0.057 A 
ATOM     27  N   UNL     1       1.684  -1.290   2.413  0.00  0.00    -0.249 NA
ATOM     28  C   UNL     1       1.141  -0.988   1.256  0.00  0.00    +0.076 A 
ATOM     29  S   UNL     1       0.706  -2.485   0.620  0.00  0.00    -0.069 S 
ATOM     30  C   UNL     1       0.958   0.375   0.639  0.00  0.00    +0.073 C 
ATOM     31  C   UNL     1       2.401  -2.878   4.154  0.00  0.00    +0.067 C 
ENDBRANCH  23  25
ENDBRANCH   2  23
BRANCH   6  32
ATOM     32  C   UNL     1      -1.892  -6.485  -1.722  0.00  0.00    +0.183 C 
BRANCH  32  33
ATOM     33  C   UNL     1      -1.118  -6.438  -3.014  0.00  0.00    +0.122 A 
ATOM     34  C   UNL     1      -0.682  -7.504  -3.709  0.00  0.00    +0.046 A 
ATOM     35  C   UNL     1      -0.009  -7.003  -4.847  0.00  0.00    +0.041 A 
ATOM     36  C   UNL     1      -0.073  -5.661  -4.779  0.00  0.00    +0.195 A 
ATOM     37  O   UNL     1      -0.751  -5.324  -3.670  0.00  0.00    -0.466 OA
ENDBRANCH  32  33
ENDBRANCH   6  32
TORSDOF 11
