REMARK  Name = ZINC02691178
REMARK  9 active torsions:
REMARK  status: ('A' for Active; 'I' for Inactive)
REMARK    1  A    between atoms: C_1  and  C_2
REMARK    2  A    between atoms: C_5  and  C_8
REMARK    3  A    between atoms: C_12  and  S_14
REMARK    4  A    between atoms: S_14  and  C_15
REMARK    5  A    between atoms: C_15  and  C_16
REMARK    6  A    between atoms: N_18  and  C_19
REMARK    7  A    between atoms: C_23  and  C_26
REMARK    8  A    between atoms: C_24  and  C_25
REMARK    9  A    between atoms: C_32  and  C_35
REMARK                            x       y       z     vdW  Elec       q    Type
REMARK                         _______ _______ _______ _____ _____    ______ ____
ROOT
ATOM      1  C   UNL     1       2.292   1.397  -0.061  0.00  0.00    +0.165 A 
ATOM      2  N   UNL     1       2.343   0.072  -0.073  0.00  0.00    -0.193 NA
ATOM      3  C   UNL     1       1.227  -0.653  -0.060  0.00  0.00    +0.228 A 
ATOM      4  C   UNL     1       0.003  -0.003  -0.034  0.00  0.00    +0.051 A 
ATOM      5  C   UNL     1      -0.016   1.390  -0.021  0.00  0.00    +0.108 A 
ATOM      6  N   UNL     1       1.139   2.051  -0.035  0.00  0.00    -0.221 NA
ATOM      7  C   UNL     1      -1.284  -0.777  -0.021  0.00  0.00    +0.082 C 
ATOM      8  C   UNL     1      -1.047  -2.197  -0.458  0.00  0.00    -0.000 A 
ATOM      9  C   UNL     1      -2.122  -2.971  -0.861  0.00  0.00    +0.007 A 
ATOM     10  C   UNL     1      -1.926  -4.277  -1.265  0.00  0.00    +0.001 A 
ATOM     11  C   UNL     1      -0.653  -4.816  -1.271  0.00  0.00    +0.007 A 
ATOM     12  C   UNL     1       0.423  -4.050  -0.871  0.00  0.00    -0.008 A 
ATOM     13  C   UNL     1       0.229  -2.735  -0.462  0.00  0.00    +0.137 A 
ATOM     14  O   UNL     1       1.300  -2.000  -0.073  0.00  0.00    -0.437 OA
ATOM     15  C   UNL     1       1.810  -4.638  -0.877  0.00  0.00    +0.047 C 
ENDROOT
BRANCH   1  20
ATOM     16  C   UNL     1       7.211   4.390  -0.121  0.00  0.00    +0.044 C 
ATOM     17  C   UNL     1       5.924   3.607  -0.105  0.00  0.00    -0.050 A 
ATOM     18  C   UNL     1       5.958   2.224  -0.118  0.00  0.00    +0.004 A 
ATOM     19  C   UNL     1       4.783   1.502  -0.103  0.00  0.00    +0.012 A 
ATOM     20  C   UNL     1       3.559   2.168  -0.076  0.00  0.00    +0.019 A 
ATOM     21  C   UNL     1       3.530   3.561  -0.070  0.00  0.00    +0.012 A 
ATOM     22  C   UNL     1       4.712   4.273  -0.079  0.00  0.00    +0.004 A 
ENDBRANCH   1  20
BRANCH   5  23
ATOM     23  S   UNL     1      -1.546   2.264   0.005  0.00  0.00    -0.096 S 
BRANCH  23  24
ATOM     24  C   UNL     1      -0.935   3.968   0.013  0.00  0.00    +0.171 C 
BRANCH  24  25
ATOM     25  C   UNL     1      -2.103   4.920   0.036  0.00  0.00    +0.227 C 
ATOM     26  O   UNL     1      -3.236   4.489   0.045  0.00  0.00    -0.275 OA
ATOM     27  N   UNL     1      -1.887   6.251   0.045  0.00  0.00    -0.285 N 
ATOM     28  H   UNL     1      -0.983   6.595   0.118  0.00  0.00    +0.155 HD
BRANCH  27  29
ATOM     29  C   UNL     1      -2.967   7.135  -0.051  0.00  0.00    +0.037 A 
ATOM     30  C   UNL     1      -4.150   6.726  -0.653  0.00  0.00    +0.023 A 
ATOM     31  C   UNL     1      -5.214   7.602  -0.746  0.00  0.00    +0.002 A 
ATOM     32  C   UNL     1      -5.103   8.884  -0.240  0.00  0.00    +0.004 A 
ATOM     33  C   UNL     1      -3.926   9.294   0.361  0.00  0.00    -0.046 A 
ATOM     34  C   UNL     1      -2.861   8.421   0.462  0.00  0.00    -0.026 A 
ATOM     35  C   UNL     1      -1.581   8.867   1.122  0.00  0.00    +0.046 C 
ATOM     36  C   UNL     1      -3.810  10.692   0.910  0.00  0.00    +0.044 C 
ENDBRANCH  27  29
ENDBRANCH  24  25
ENDBRANCH  23  24
ENDBRANCH   5  23
TORSDOF 5
