REMARK  Name = ZINC12665826
REMARK  11 active torsions:
REMARK  status: ('A' for Active; 'I' for Inactive)
REMARK    1  A    between atoms: C_1  and  C_2
REMARK    2  A    between atoms: C_2  and  C_3
REMARK    3  A    between atoms: N_11  and  C_12
REMARK    4  A    between atoms: C_12  and  C_14
REMARK    5  A    between atoms: N_19  and  S_21
REMARK    6  A    between atoms: S_21  and  C_24
REMARK    7  A    between atoms: C_27  and  C_30
REMARK    8  A    between atoms: N_31  and  C_32
REMARK    9  A    between atoms: C_32  and  C_33
REMARK   10  A    between atoms: C_33  and  S_34
REMARK   11  A    between atoms: S_34  and  C_35
REMARK                            x       y       z     vdW  Elec       q    Type
REMARK                         _______ _______ _______ _____ _____    ______ ____
ROOT
ATOM      1  C   UNL     1       0.514   1.166  -2.740  0.00  0.00    +0.243 C 
ATOM      2  O   UNL     1       1.565   0.555  -2.763  0.00  0.00    -0.273 OA
ENDROOT
BRANCH   1  11
ATOM      3  C   UNL     1      -2.422  -3.360  -7.191  0.00  0.00    -0.046 A 
ATOM      4  C   UNL     1      -2.067  -3.925  -5.977  0.00  0.00    +0.006 A 
ATOM      5  C   UNL     1      -1.518  -3.166  -4.971  0.00  0.00    +0.027 A 
ATOM      6  C   UNL     1      -1.298  -1.791  -5.147  0.00  0.00    +0.058 A 
ATOM      7  C   UNL     1      -1.667  -1.246  -6.386  0.00  0.00    +0.039 A 
ATOM      8  C   UNL     1      -2.218  -2.006  -7.391  0.00  0.00    +0.020 A 
ATOM      9  S   UNL     1      -1.243   0.469  -6.219  0.00  0.00    -0.052 S 
ATOM     10  C   UNL     1      -0.623   0.420  -4.600  0.00  0.00    +0.166 A 
ATOM     11  N   UNL     1      -0.130   1.421  -3.874  0.00  0.00    -0.156 NA
ATOM     12  N   UNL     1      -0.755  -0.887  -4.253  0.00  0.00    -0.320 N 
BRANCH   3  14
ATOM     13  C   UNL     1      -1.907  -4.772  -9.162  0.00  0.00    +0.009 C 
ATOM     14  C   UNL     1      -3.023  -4.209  -8.280  0.00  0.00    +0.032 C 
ENDBRANCH   3  14
BRANCH  12  15
ATOM     15  C   UNL     1      -0.324  -1.339  -2.928  0.00  0.00    +0.135 C 
BRANCH  15  16
ATOM     16  C   UNL     1      -1.486  -2.046  -2.228  0.00  0.00    +0.090 C 
BRANCH  16  17
ATOM     17  S   UNL     1      -0.985  -2.515  -0.548  0.00  0.00    -0.162 S 
ATOM     18  C   UNL     1      -2.398  -3.462   0.083  0.00  0.00    +0.084 C 
ENDBRANCH  16  17
ENDBRANCH  15  16
ENDBRANCH  12  15
ENDBRANCH   1  11
BRANCH   1  19
ATOM     19  C   UNL     1      -0.059   1.633  -1.427  0.00  0.00    +0.093 C 
ATOM     20  C   UNL     1      -0.158   3.160  -1.427  0.00  0.00    +0.015 C 
ATOM     21  C   UNL     1      -0.770   3.633  -0.107  0.00  0.00    +0.018 C 
ATOM     22  C   UNL     1       0.137   3.208   1.053  0.00  0.00    +0.109 C 
ATOM     23  N   UNL     1       0.359   1.757   0.976  0.00  0.00    -0.176 NA
ATOM     24  C   UNL     1       0.856   1.185  -0.282  0.00  0.00    +0.122 C 
BRANCH  23  25
ATOM     25  S   UNL     1       0.050   0.786   2.281  0.00  0.00    +0.061 S 
ATOM     26  O   UNL     1      -0.897   1.476   3.086  0.00  0.00    -0.153 OA
ATOM     27  O   UNL     1      -0.192  -0.517   1.769  0.00  0.00    -0.153 OA
BRANCH  25  28
ATOM     28  C   UNL     1       1.536   0.689   3.222  0.00  0.00    +0.105 A 
ATOM     29  C   UNL     1       2.455  -0.310   2.962  0.00  0.00    +0.029 A 
ATOM     30  C   UNL     1       3.623  -0.383   3.698  0.00  0.00    +0.005 A 
ATOM     31  C   UNL     1       3.868   0.537   4.700  0.00  0.00    -0.050 A 
ATOM     32  C   UNL     1       2.947   1.534   4.963  0.00  0.00    +0.005 A 
ATOM     33  C   UNL     1       1.780   1.609   4.224  0.00  0.00    +0.029 A 
ATOM     34  C   UNL     1       5.139   0.455   5.505  0.00  0.00    +0.044 C 
ENDBRANCH  25  28
ENDBRANCH  23  25
ENDBRANCH   1  19
TORSDOF 8
