REMARK  Name = ZINC13213673
REMARK  9 active torsions:
REMARK  status: ('A' for Active; 'I' for Inactive)
REMARK    1  A    between atoms: C_1  and  C_2
REMARK    2  A    between atoms: C_5  and  C_11
REMARK    3  A    between atoms: C_7  and  N_8
REMARK    4  A    between atoms: C_13  and  C_28
REMARK    5  A    between atoms: N_17  and  C_18
REMARK    6  A    between atoms: C_22  and  C_24
REMARK    7  A    between atoms: C_28  and  C_30
REMARK    8  A    between atoms: C_35  and  O_36
REMARK    9  A    between atoms: O_36  and  C_37
REMARK                            x       y       z     vdW  Elec       q    Type
REMARK                         _______ _______ _______ _____ _____    ______ ____
ROOT
ATOM      1  C   UNL     1       0.077  -3.279   0.324  0.00  0.00    +0.150 C 
ATOM      2  C   UNL     1       1.571  -3.478   0.430  0.00  0.00    +0.077 C 
ATOM      3  C   UNL     1       1.856  -4.641  -0.200  0.00  0.00    +0.250 C 
ATOM      4  C   UNL     1       0.606  -5.228  -0.724  0.00  0.00    +0.292 C 
ATOM      5  O   UNL     1       0.530  -6.274  -1.339  0.00  0.00    -0.266 OA
ATOM      6  N   UNL     1      -0.439  -4.435  -0.419  0.00  0.00    -0.253 N 
ATOM      7  O   UNL     1       3.090  -5.181  -0.330  0.00  0.00    -0.282 OA
ENDROOT
BRANCH   1  12
ATOM      8  C   UNL     1      -1.083   1.603  -2.543  0.00  0.00    +0.046 C 
ATOM      9  C   UNL     1      -0.780   0.330  -1.795  0.00  0.00    -0.020 A 
ATOM     10  C   UNL     1      -0.333  -0.785  -2.481  0.00  0.00    +0.006 A 
ATOM     11  C   UNL     1      -0.056  -1.953  -1.795  0.00  0.00    +0.006 A 
ATOM     12  C   UNL     1      -0.225  -2.006  -0.423  0.00  0.00    -0.020 A 
ATOM     13  C   UNL     1      -0.671  -0.891   0.262  0.00  0.00    +0.038 A 
ATOM     14  C   UNL     1      -0.944   0.278  -0.424  0.00  0.00    +0.129 A 
BRANCH  14  15
ATOM     15  N   UNL     1      -1.417   1.473   0.310  0.00  0.00    +0.057 N 
ATOM     16  O   UNL     1      -1.039   2.574  -0.019  0.00  0.00    -0.126 OA
ATOM     17  O   UNL     1      -2.181   1.349   1.239  0.00  0.00    -0.126 OA
ENDBRANCH  14  15
ENDBRANCH   1  12
BRANCH   6  18
ATOM     18  C   UNL     1      -1.776  -4.669  -0.750  0.00  0.00    +0.038 A 
ATOM     19  C   UNL     1      -2.756  -3.757  -0.374  0.00  0.00    +0.023 A 
ATOM     20  C   UNL     1      -4.080  -3.984  -0.699  0.00  0.00    +0.003 A 
ATOM     21  C   UNL     1      -4.440  -5.117  -1.400  0.00  0.00    +0.015 A 
ATOM     22  C   UNL     1      -3.463  -6.040  -1.784  0.00  0.00    +0.065 A 
ATOM     23  C   UNL     1      -2.125  -5.808  -1.459  0.00  0.00    +0.038 A 
BRANCH  22  24
ATOM     24  C   UNL     1      -3.844  -7.253  -2.533  0.00  0.00    +0.387 C 
ATOM     25  O   UNL     1      -5.017  -7.452  -2.819  0.00  0.00    -0.241 OA
ATOM     26  O   UNL     1      -2.988  -8.059  -2.867  0.00  0.00    -0.241 OA
ENDBRANCH  22  24
ENDBRANCH   6  18
BRANCH   2  27
ATOM     27  C   UNL     1       2.527  -2.582   1.089  0.00  0.00    +0.199 C 
ATOM     28  O   UNL     1       3.351  -1.979   0.426  0.00  0.00    -0.287 OA
BRANCH  27  29
ATOM     29  C   UNL     1       2.492  -2.413   2.554  0.00  0.00    +0.064 A 
ATOM     30  C   UNL     1       1.606  -3.168   3.328  0.00  0.00    +0.015 A 
ATOM     31  C   UNL     1       1.577  -3.005   4.695  0.00  0.00    +0.001 A 
ATOM     32  C   UNL     1       2.423  -2.095   5.309  0.00  0.00    +0.004 A 
ATOM     33  C   UNL     1       3.303  -1.342   4.557  0.00  0.00    +0.046 A 
ATOM     34  C   UNL     1       3.350  -1.497   3.179  0.00  0.00    +0.131 A 
BRANCH  34  35
ATOM     35  O   UNL     1       4.218  -0.762   2.440  0.00  0.00    -0.494 OA
ATOM     36  C   UNL     1       5.061   0.150   3.147  0.00  0.00    +0.277 C 
ENDBRANCH  34  35
ENDBRANCH  27  29
ENDBRANCH   2  27
TORSDOF 7
