REMARK  Name = ZINC50982298
REMARK  8 active torsions:
REMARK  status: ('A' for Active; 'I' for Inactive)
REMARK    1  A    between atoms: C_1  and  C_2
REMARK    2  A    between atoms: C_2  and  C_3
REMARK    3  A    between atoms: C_3  and  C_4
REMARK    4  A    between atoms: C_6  and  C_25
REMARK    5  A    between atoms: C_7  and  C_9
REMARK    6  A    between atoms: C_11  and  C_12
REMARK    7  A    between atoms: C_11  and  C_14
REMARK    8  A    between atoms: N_16  and  C_17
REMARK                            x       y       z     vdW  Elec       q    Type
REMARK                         _______ _______ _______ _____ _____    ______ ____
ROOT
ATOM      1  C   UNL     1       1.581  -5.912  -0.836  0.00  0.00    +0.217 C 
ATOM      2  O   UNL     1       0.790  -6.954  -1.170  0.00  0.00    -0.285 OA
ATOM      3  C   UNL     1       2.824  -6.142  -0.243  0.00  0.00    +0.161 C 
ENDROOT
BRANCH   1   7
ATOM      4  C   UNL     1       0.612  -2.180  -1.967  0.00  0.00    +0.079 A 
ATOM      5  N   UNL     1       0.112  -2.560  -0.812  0.00  0.00    -0.248 NA
ATOM      6  C   UNL     1       0.346  -3.750  -0.320  0.00  0.00    +0.057 A 
ATOM      7  C   UNL     1       1.151  -4.586  -1.088  0.00  0.00    +0.083 A 
ATOM      8  S   UNL     1       1.484  -3.523  -2.484  0.00  0.00    -0.069 S 
ATOM      9  C   UNL     1      -0.225  -4.190   1.004  0.00  0.00    +0.067 C 
BRANCH   4  10
ATOM     10  C   UNL     1       0.438  -0.856  -2.666  0.00  0.00    +0.062 C 
BRANCH  10  12
ATOM     11  C   UNL     1       1.377   1.442  -2.944  0.00  0.00    +0.004 C 
ATOM     12  C   UNL     1       1.553   0.098  -2.234  0.00  0.00    +0.003 C 
ENDBRANCH  10  12
ENDBRANCH   4  10
ENDBRANCH   1   7
BRANCH   3  13
ATOM     13  C   UNL     1       3.633  -5.013   0.222  0.00  0.00    +0.262 C 
ATOM     14  O   UNL     1       3.183  -3.883   0.178  0.00  0.00    -0.269 OA
ATOM     15  N   UNL     1       4.876  -5.226   0.698  0.00  0.00    -0.281 N 
ATOM     16  H   UNL     1       5.210  -6.131   0.794  0.00  0.00    +0.155 HD
BRANCH  15  17
ATOM     17  C   UNL     1       5.683  -4.141   1.054  0.00  0.00    +0.036 A 
ATOM     18  C   UNL     1       7.054  -4.194   0.838  0.00  0.00    +0.043 A 
ATOM     19  C   UNL     1       7.850  -3.120   1.190  0.00  0.00    +0.044 A 
ATOM     20  C   UNL     1       7.282  -1.993   1.757  0.00  0.00    +0.040 A 
ATOM     21  C   UNL     1       5.916  -1.938   1.973  0.00  0.00    +0.044 A 
ATOM     22  C   UNL     1       5.115  -3.006   1.618  0.00  0.00    +0.043 A 
ATOM     23 CL   UNL     1       5.208  -0.522   2.685  0.00  0.00    -0.083 Cl
ATOM     24 CL   UNL     1       9.564  -3.186   0.921  0.00  0.00    -0.083 Cl
ENDBRANCH  15  17
ENDBRANCH   3  13
BRANCH   3  25
ATOM     25  C   UNL     1       3.308  -7.481  -0.089  0.00  0.00    +0.108 C 
ATOM     26  N   UNL     1       3.692  -8.543   0.033  0.00  0.00    -0.191 NA
ENDBRANCH   3  25
TORSDOF 6
