REMARK  Name = ZINC09476357
REMARK  8 active torsions:
REMARK  status: ('A' for Active; 'I' for Inactive)
REMARK    1  A    between atoms: C_1  and  C_2
REMARK    2  A    between atoms: N_10  and  C_11
REMARK    3  A    between atoms: C_11  and  C_13
REMARK    4  A    between atoms: C_13  and  C_14
REMARK    5  A    between atoms: C_14  and  C_15
REMARK    6  A    between atoms: C_15  and  S_16
REMARK    7  A    between atoms: S_16  and  C_19
REMARK    8  A    between atoms: N_26  and  C_27
REMARK                            x       y       z     vdW  Elec       q    Type
REMARK                         _______ _______ _______ _____ _____    ______ ____
ROOT
ATOM      1  C   UNL     1       0.217   0.534  -2.800  0.00  0.00    +0.238 C 
ATOM      2  O   UNL     1       1.235  -0.121  -2.917  0.00  0.00    -0.274 OA
ENDROOT
BRANCH   1  12
ATOM      3  C   UNL     1       3.359   6.118  -8.373  0.00  0.00    +0.044 C 
ATOM      4  C   UNL     1       2.909   5.165  -7.295  0.00  0.00    -0.049 A 
ATOM      5  C   UNL     1       3.713   4.924  -6.194  0.00  0.00    +0.005 A 
ATOM      6  C   UNL     1       3.320   4.058  -5.201  0.00  0.00    +0.027 A 
ATOM      7  C   UNL     1       2.088   3.390  -5.277  0.00  0.00    +0.057 A 
ATOM      8  C   UNL     1       1.295   3.654  -6.403  0.00  0.00    +0.039 A 
ATOM      9  C   UNL     1       1.689   4.520  -7.396  0.00  0.00    +0.020 A 
ATOM     10  S   UNL     1      -0.142   2.647  -6.135  0.00  0.00    -0.052 S 
ATOM     11  C   UNL     1       0.322   1.944  -4.619  0.00  0.00    +0.166 A 
ATOM     12  N   UNL     1      -0.353   1.073  -3.872  0.00  0.00    -0.156 NA
ATOM     13  N   UNL     1       1.538   2.499  -4.374  0.00  0.00    -0.324 N 
ATOM     14  C   UNL     1       2.269   2.149  -3.154  0.00  0.00    +0.151 C 
ENDBRANCH   1  12
BRANCH   1  15
ATOM     15  C   UNL     1      -0.396   0.736  -1.438  0.00  0.00    +0.099 C 
BRANCH  15  16
ATOM     16  C   UNL     1       0.451   0.017  -0.386  0.00  0.00    +0.032 C 
BRANCH  16  17
ATOM     17  C   UNL     1      -0.172   0.222   0.997  0.00  0.00    +0.172 C 
BRANCH  17  18
ATOM     18  S   UNL     1       0.832  -0.630   2.244  0.00  0.00    -0.003 S 
ATOM     19  O   UNL     1       0.744  -2.037   2.066  0.00  0.00    -0.169 OA
ATOM     20  O   UNL     1       2.096   0.007   2.373  0.00  0.00    -0.169 OA
BRANCH  18  21
ATOM     21  C   UNL     1       0.014  -0.318   3.774  0.00  0.00    +0.088 A 
ATOM     22  C   UNL     1       0.352   0.792   4.525  0.00  0.00    +0.028 A 
ATOM     23  C   UNL     1      -0.293   1.040   5.722  0.00  0.00    +0.022 A 
ATOM     24  C   UNL     1      -1.270   0.171   6.173  0.00  0.00    +0.041 A 
ATOM     25  C   UNL     1      -1.605  -0.943   5.424  0.00  0.00    +0.022 A 
ATOM     26  C   UNL     1      -0.963  -1.187   4.224  0.00  0.00    +0.028 A 
ATOM     27 CL   UNL     1      -2.076   0.478   7.680  0.00  0.00    -0.084 Cl
ENDBRANCH  18  21
ENDBRANCH  17  18
ENDBRANCH  16  17
ENDBRANCH  15  16
ENDBRANCH   1  15
TORSDOF 6
