REMARK  Name = ZINC09811846
REMARK  11 active torsions:
REMARK  status: ('A' for Active; 'I' for Inactive)
REMARK    1  A    between atoms: C_1  and  C_2
REMARK    2  A    between atoms: C_5  and  C_8
REMARK    3  A    between atoms: C_8  and  N_9
REMARK    4  A    between atoms: C_11  and  C_15
REMARK    5  A    between atoms: C_12  and  C_14
REMARK    6  A    between atoms: C_15  and  O_17
REMARK    7  A    between atoms: O_17  and  C_18
REMARK    8  A    between atoms: C_18  and  C_20
REMARK    9  A    between atoms: C_18  and  C_21
REMARK   10  A    between atoms: N_23  and  C_24
REMARK   11  A    between atoms: C_27  and  N_30
REMARK                            x       y       z     vdW  Elec       q    Type
REMARK                         _______ _______ _______ _____ _____    ______ ____
ROOT
ATOM      1  C   UNL     1      -0.019   1.466   0.001  0.00  0.00    +0.345 C 
ATOM      2  O   UNL     1      -1.080   2.058   0.001  0.00  0.00    -0.245 OA
ENDROOT
BRANCH   1   5
ATOM      3  N   UNL     1       0.037  -2.099   0.662  0.00  0.00    -0.248 N 
ATOM      4  C   UNL     1       0.024  -0.831   1.106  0.00  0.00    +0.142 A 
ATOM      5  C   UNL     1       0.003  -0.005  -0.004  0.00  0.00    +0.118 A 
ATOM      6  C   UNL     1       0.012  -0.841  -1.145  0.00  0.00    +0.075 A 
ATOM      7  N   UNL     1       0.033  -2.080  -0.737  0.00  0.00    -0.174 NA
ATOM      8  C   UNL     1       0.000  -0.381  -2.580  0.00  0.00    +0.068 C 
ATOM      9 CL   UNL     1       0.029  -0.323   2.766  0.00  0.00    -0.061 Cl
BRANCH   3  10
ATOM     10  C   UNL     1       0.058  -3.299   1.501  0.00  0.00    +0.180 C 
BRANCH  10  15
ATOM     11  C   UNL     1       5.533  -4.795   2.587  0.00  0.00    +0.044 C 
ATOM     12  C   UNL     1       4.105  -4.405   2.304  0.00  0.00    -0.050 A 
ATOM     13  C   UNL     1       3.443  -3.540   3.155  0.00  0.00    +0.004 A 
ATOM     14  C   UNL     1       2.133  -3.182   2.896  0.00  0.00    +0.006 A 
ATOM     15  C   UNL     1       1.486  -3.689   1.785  0.00  0.00    -0.026 A 
ATOM     16  C   UNL     1       2.146  -4.559   0.936  0.00  0.00    +0.006 A 
ATOM     17  C   UNL     1       3.457  -4.914   1.194  0.00  0.00    +0.004 A 
ENDBRANCH  10  15
ENDBRANCH   3  10
ENDBRANCH   1   5
BRANCH   1  18
ATOM     18  O   UNL     1       1.138   2.157   0.001  0.00  0.00    -0.449 OA
BRANCH  18  19
ATOM     19  C   UNL     1       1.041   3.606   0.006  0.00  0.00    +0.259 C 
ATOM     20  C   UNL     1       1.010   4.109   1.450  0.00  0.00    +0.062 C 
BRANCH  19  21
ATOM     21  C   UNL     1       2.233   4.192  -0.706  0.00  0.00    +0.258 C 
ATOM     22  O   UNL     1       3.081   3.461  -1.171  0.00  0.00    -0.271 OA
ATOM     23  N   UNL     1       2.357   5.529  -0.824  0.00  0.00    -0.282 N 
ATOM     24  H   UNL     1       1.647   6.111  -0.512  0.00  0.00    +0.155 HD
BRANCH  23  25
ATOM     25  C   UNL     1       3.509   6.077  -1.398  0.00  0.00    +0.034 A 
ATOM     26  C   UNL     1       4.013   7.284  -0.932  0.00  0.00    +0.025 A 
ATOM     27  C   UNL     1       5.153   7.819  -1.497  0.00  0.00    +0.034 A 
ATOM     28  C   UNL     1       5.788   7.160  -2.534  0.00  0.00    +0.126 A 
ATOM     29  C   UNL     1       5.286   5.961  -3.004  0.00  0.00    +0.034 A 
ATOM     30  C   UNL     1       4.149   5.417  -2.440  0.00  0.00    +0.025 A 
BRANCH  28  31
ATOM     31  N   UNL     1       7.007   7.740  -3.141  0.00  0.00    +0.056 N 
ATOM     32  O   UNL     1       7.567   7.160  -4.054  0.00  0.00    -0.126 OA
ATOM     33  O   UNL     1       7.450   8.796  -2.728  0.00  0.00    -0.126 OA
ENDBRANCH  28  31
ENDBRANCH  23  25
ENDBRANCH  19  21
ENDBRANCH  18  19
ENDBRANCH   1  18
TORSDOF 8
