REMARK  Name = ZINC01747817
REMARK  6 active torsions:
REMARK  status: ('A' for Active; 'I' for Inactive)
REMARK    1  A    between atoms: C_4  and  C_7
REMARK    2  A    between atoms: C_7  and  N_8
REMARK    3  A    between atoms: N_15  and  N_16
REMARK    4  A    between atoms: N_16  and  C_17
REMARK    5  A    between atoms: C_17  and  N_19
REMARK    6  A    between atoms: C_20  and  C_22
REMARK                            x       y       z     vdW  Elec       q    Type
REMARK                         _______ _______ _______ _____ _____    ______ ____
ROOT
ATOM      1  N   UNL     1       4.152  -0.952   1.338  0.00  0.00    -0.275 N 
ATOM      2  C   UNL     1       4.921  -0.041   1.971  0.00  0.00    +0.260 A 
ATOM      3  O   UNL     1       5.277   0.978   1.401  0.00  0.00    -0.267 OA
ATOM      4  C   UNL     1       5.303  -0.290   3.296  0.00  0.00    +0.050 A 
ATOM      5  C   UNL     1       4.875  -1.458   3.906  0.00  0.00    +0.084 A 
ATOM      6  N   UNL     1       4.140  -2.339   3.219  0.00  0.00    -0.214 NA
ATOM      7  C   UNL     1       3.780  -2.096   1.976  0.00  0.00    +0.216 A 
ATOM      8  N   UNL     1       3.017  -3.017   1.307  0.00  0.00    -0.235 N 
ATOM      9  C   UNL     1       5.218  -1.695   5.327  0.00  0.00    +0.004 A 
ATOM     10  C   UNL     1       5.083  -2.962   5.889  0.00  0.00    +0.010 A 
ATOM     11  C   UNL     1       5.428  -3.164   7.211  0.00  0.00    +0.001 A 
ATOM     12  C   UNL     1       5.908  -2.112   7.971  0.00  0.00    +0.000 A 
ATOM     13  C   UNL     1       6.036  -0.850   7.418  0.00  0.00    +0.004 A 
ATOM     14  C   UNL     1       5.684  -0.633   6.101  0.00  0.00    -0.037 A 
ATOM     15  C   UNL     1       5.771   0.749   5.511  0.00  0.00    +0.047 C 
ATOM     16  C   UNL     1       6.176   0.684   4.039  0.00  0.00    +0.007 C 
ATOM     17  C   UNL     1       6.028   2.074   3.412  0.00  0.00    +0.012 C 
ATOM     18  C   UNL     1       6.917   3.068   4.162  0.00  0.00    +0.001 C 
ATOM     19  C   UNL     1       8.377   2.621   4.063  0.00  0.00    +0.000 C 
ATOM     20  C   UNL     1       8.528   1.231   4.684  0.00  0.00    +0.001 C 
ATOM     21  C   UNL     1       7.637   0.238   3.934  0.00  0.00    +0.012 C 
ATOM     22  H   UNL     1       2.748  -2.850   0.390  0.00  0.00    +0.173 HD
ENDROOT
BRANCH   8  23
ATOM     23  N   UNL     1       2.625  -4.199   1.948  0.00  0.00    -0.245 N 
ATOM     24  H   UNL     1       2.894  -4.365   2.865  0.00  0.00    +0.172 HD
BRANCH  23  25
ATOM     25  C   UNL     1       1.875  -5.105   1.291  0.00  0.00    +0.153 C 
ATOM     26  S   UNL     1       1.396  -6.550   2.074  0.00  0.00    -0.017 S 
BRANCH  25  27
ATOM     27  N   UNL     1       1.501  -4.874   0.017  0.00  0.00    -0.263 N 
ATOM     28  C   UNL     1       0.751  -5.780  -0.641  0.00  0.00    +0.250 C 
ATOM     29  O   UNL     1       0.411  -6.805  -0.085  0.00  0.00    -0.270 OA
ATOM     30  H   UNL     1       1.773  -4.055  -0.427  0.00  0.00    +0.157 HD
BRANCH  28  31
ATOM     31  C   UNL     1       0.342  -5.526  -2.038  0.00  0.00    +0.037 A 
ATOM     32  C   UNL     1       0.735  -4.351  -2.681  0.00  0.00    +0.013 A 
ATOM     33  C   UNL     1       0.350  -4.121  -3.986  0.00  0.00    +0.001 A 
ATOM     34  C   UNL     1      -0.426  -5.051  -4.656  0.00  0.00    +0.000 A 
ATOM     35  C   UNL     1      -0.819  -6.217  -4.024  0.00  0.00    +0.001 A 
ATOM     36  C   UNL     1      -0.436  -6.463  -2.722  0.00  0.00    +0.013 A 
ENDBRANCH  28  31
ENDBRANCH  25  27
ENDBRANCH  23  25
ENDBRANCH   8  23
BRANCH   1  37
ATOM     37  C   UNL     1       3.711  -0.707  -0.038  0.00  0.00    +0.163 C 
BRANCH  37  41
ATOM     38  C   UNL     1      -0.017   1.378   0.010  0.00  0.00    +0.000 A 
ATOM     39  C   UNL     1       1.171   2.086   0.002  0.00  0.00    +0.000 A 
ATOM     40  C   UNL     1       2.377   1.411  -0.013  0.00  0.00    +0.005 A 
ATOM     41  C   UNL     1       2.396   0.029  -0.020  0.00  0.00    -0.028 A 
ATOM     42  C   UNL     1       1.208  -0.679  -0.012  0.00  0.00    +0.005 A 
ATOM     43  C   UNL     1       0.002  -0.004   0.002  0.00  0.00    +0.000 A 
ENDBRANCH  37  41
ENDBRANCH   1  37
TORSDOF 6
