REMARK  Name = ZINC01620212
REMARK  1 active torsions:
REMARK  status: ('A' for Active; 'I' for Inactive)
REMARK    1  A    between atoms: N_8  and  N_9
REMARK                            x       y       z     vdW  Elec       q    Type
REMARK                         _______ _______ _______ _____ _____    ______ ____
ROOT
ATOM      1  C   UNL     1      -3.193  -2.839  -0.798  0.00  0.00    +0.005 C 
ATOM      2  C   UNL     1      -1.823  -2.621  -0.150  0.00  0.00    +0.006 C 
ATOM      3  C   UNL     1      -1.343  -1.194  -0.438  0.00  0.00    +0.055 C 
ATOM      4  C   UNL     1      -2.454  -0.235  -0.092  0.00  0.00    +0.043 A 
ATOM      5  C   UNL     1      -3.745  -0.605   0.089  0.00  0.00    -0.021 A 
ATOM      6  C   UNL     1      -4.470   0.547   0.405  0.00  0.00    -0.021 A 
ATOM      7  C   UNL     1      -3.600   1.585   0.409  0.00  0.00    +0.043 A 
ATOM      8  N   UNL     1      -2.362   1.107   0.110  0.00  0.00    -0.266 N 
ATOM      9  C   UNL     1      -3.991   3.013   0.701  0.00  0.00    +0.055 C 
ATOM     10  C   UNL     1      -5.514   3.136   0.568  0.00  0.00    +0.006 C 
ATOM     11  C   UNL     1      -6.188   2.026   1.379  0.00  0.00    +0.005 C 
ATOM     12  C   UNL     1      -5.944   0.674   0.697  0.00  0.00    +0.037 C 
ATOM     13  C   UNL     1      -4.249  -2.019  -0.048  0.00  0.00    +0.037 C 
ENDROOT
BRANCH   8  14
ATOM     14  N   UNL     1      -1.191   1.870   0.018  0.00  0.00    -0.207 N 
ATOM     15  C   UNL     1      -0.415   2.047   1.106  0.00  0.00    +0.315 C 
ATOM     16  O   UNL     1      -0.777   1.623   2.186  0.00  0.00    -0.251 OA
ATOM     17  N   UNL     1       0.765   2.689   0.995  0.00  0.00    -0.312 N 
ATOM     18  H   UNL     1      -0.938   2.270  -0.829  0.00  0.00    +0.177 HD
ATOM     19  H   UNL     1       1.325   2.813   1.777  0.00  0.00    +0.147 HD
ATOM     20  H   UNL     1       1.054   3.027   0.133  0.00  0.00    +0.147 HD
ENDBRANCH   8  14
TORSDOF 1
