REMARK  Name = ZINC36026985
REMARK  10 active torsions:
REMARK  status: ('A' for Active; 'I' for Inactive)
REMARK    1  A    between atoms: C_1  and  C_2
REMARK    2  A    between atoms: C_2  and  C_3
REMARK    3  A    between atoms: C_3  and  C_5
REMARK    4  A    between atoms: C_3  and  N_6
REMARK    5  A    between atoms: C_9  and  C_28
REMARK    6  A    between atoms: N_15  and  C_18
REMARK    7  A    between atoms: C_18  and  N_20
REMARK    8  A    between atoms: N_20  and  C_21
REMARK    9  A    between atoms: C_25  and  C_27
REMARK   10  A    between atoms: C_28  and  C_29
REMARK                            x       y       z     vdW  Elec       q    Type
REMARK                         _______ _______ _______ _____ _____    ______ ____
ROOT
ATOM      1  N   UNL     1      -2.158  -0.284  -1.066  0.00  0.00    -0.311 N 
ATOM      2  C   UNL     1      -1.887  -0.826  -2.271  0.00  0.00    +0.201 C 
ATOM      3  O   UNL     1      -0.989  -1.605  -2.512  0.00  0.00    -0.277 OA
ATOM      4  C   UNL     1      -2.891  -0.297  -3.272  0.00  0.00    +0.023 C 
ATOM      5  N   UNL     1      -3.989   0.262  -2.447  0.00  0.00    +0.401 N 
ATOM      6  C   UNL     1      -3.316   0.607  -1.179  0.00  0.00    +0.006 C 
ATOM      7  C   UNL     1      -2.860   2.064  -1.223  0.00  0.00    +0.025 C 
ATOM      8  C   UNL     1      -2.129   2.407   0.080  0.00  0.00    +0.107 C 
ATOM      9  N   UNL     1      -3.002   2.073   1.213  0.00  0.00    -0.312 N 
ATOM     10  C   UNL     1      -3.553   0.714   1.304  0.00  0.00    +0.107 C 
ATOM     11  C   UNL     1      -4.272   0.385  -0.009  0.00  0.00    +0.025 C 
ATOM     12  H   UNL     1      -4.378   1.085  -2.883  0.00  0.00    -0.082 HD
ATOM     13  H   UNL     1      -4.704  -0.432  -2.289  0.00  0.00    -0.082 HD
ENDROOT
BRANCH   1  14
ATOM     14  C   UNL     1      -1.414  -0.550   0.168  0.00  0.00    +0.071 C 
ATOM     15  C   UNL     1      -1.987  -1.794   0.851  0.00  0.00    +0.028 C 
BRANCH  14  17
ATOM     16  C   UNL     1       0.663   0.498  -0.742  0.00  0.00    +0.005 C 
ATOM     17  C   UNL     1       0.060  -0.784  -0.166  0.00  0.00    +0.019 C 
ENDBRANCH  14  17
ENDBRANCH   1  14
BRANCH   9  18
ATOM     18  C   UNL     1      -3.291   2.995   2.152  0.00  0.00    +0.137 C 
ATOM     19  S   UNL     1      -2.542   4.534   2.100  0.00  0.00    -0.018 S 
BRANCH  18  20
ATOM     20  N   UNL     1      -4.171   2.706   3.132  0.00  0.00    -0.297 N 
ATOM     21  H   UNL     1      -5.084   3.029   3.075  0.00  0.00    +0.154 HD
BRANCH  20  22
ATOM     22  C   UNL     1      -3.767   1.941   4.231  0.00  0.00    +0.033 A 
ATOM     23  C   UNL     1      -2.434   1.576   4.373  0.00  0.00    +0.023 A 
ATOM     24  C   UNL     1      -2.039   0.821   5.459  0.00  0.00    +0.002 A 
ATOM     25  C   UNL     1      -2.968   0.428   6.405  0.00  0.00    +0.003 A 
ATOM     26  C   UNL     1      -4.295   0.790   6.267  0.00  0.00    -0.049 A 
ATOM     27  C   UNL     1      -4.696   1.550   5.186  0.00  0.00    +0.026 A 
ATOM     28  C   UNL     1      -5.304   0.360   7.301  0.00  0.00    +0.044 C 
ENDBRANCH  20  22
ENDBRANCH  18  20
ENDBRANCH   9  18
BRANCH   4  29
ATOM     29  C   UNL     1      -3.410  -1.432  -4.157  0.00  0.00    +0.028 C 
BRANCH  29  30
ATOM     30  C   UNL     1      -4.340  -0.871  -5.200  0.00  0.00    -0.048 A 
ATOM     31  C   UNL     1      -5.692  -0.763  -4.935  0.00  0.00    +0.003 A 
ATOM     32  C   UNL     1      -6.546  -0.248  -5.893  0.00  0.00    +0.000 A 
ATOM     33  C   UNL     1      -6.047   0.160  -7.116  0.00  0.00    +0.000 A 
ATOM     34  C   UNL     1      -4.695   0.052  -7.381  0.00  0.00    +0.000 A 
ATOM     35  C   UNL     1      -3.841  -0.459  -6.422  0.00  0.00    +0.003 A 
ENDBRANCH  29  30
ENDBRANCH   4  29
TORSDOF 7
