REMARK  Name = ZINC16259241
REMARK  9 active torsions:
REMARK  status: ('A' for Active; 'I' for Inactive)
REMARK    1  A    between atoms: C_4  and  C_7
REMARK    2  A    between atoms: C_7  and  C_9
REMARK    3  A    between atoms: C_7  and  N_61
REMARK    4  A    between atoms: C_9  and  N_10
REMARK    5  A    between atoms: C_11  and  C_13
REMARK    6  A    between atoms: C_16  and  N_19
REMARK    7  A    between atoms: N_19  and  S_20
REMARK    8  A    between atoms: S_20  and  C_23
REMARK    9  A    between atoms: C_27  and  N_29
REMARK                            x       y       z     vdW  Elec       q    Type
REMARK                         _______ _______ _______ _____ _____    ______ ____
ROOT
ATOM      1  C   UNL     1      -2.924   5.164  -4.517  0.00  0.00    +0.037 A 
ATOM      2  C   UNL     1      -2.258   6.379  -4.697  0.00  0.00    +0.015 A 
ATOM      3  C   UNL     1      -1.209   6.716  -3.872  0.00  0.00    +0.025 A 
ATOM      4  C   UNL     1      -0.812   5.848  -2.859  0.00  0.00    +0.048 A 
ATOM      5  C   UNL     1      -1.470   4.634  -2.681  0.00  0.00    +0.025 A 
ATOM      6  C   UNL     1      -2.522   4.294  -3.499  0.00  0.00    +0.015 A 
ENDROOT
BRANCH   1   8
ATOM      7  N   UNL     1      -4.690   3.627  -5.225  0.00  0.00    -0.313 N 
ATOM      8  C   UNL     1      -4.049   4.800  -5.399  0.00  0.00    +0.244 C 
ATOM      9  O   UNL     1      -4.398   5.557  -6.284  0.00  0.00    -0.270 OA
ATOM     10  H   UNL     1      -4.412   3.023  -4.519  0.00  0.00    +0.149 HD
BRANCH   7  11
ATOM     11  C   UNL     1      -5.807   3.266  -6.101  0.00  0.00    +0.094 C 
BRANCH  11  12
ATOM     12  C   UNL     1      -6.354   1.896  -5.692  0.00  0.00    -0.020 C 
BRANCH  12  16
ATOM     13  C   UNL     1      -9.824   0.997  -8.015  0.00  0.00    +0.000 A 
ATOM     14  C   UNL     1      -9.604   2.288  -7.572  0.00  0.00    +0.000 A 
ATOM     15  C   UNL     1      -8.481   2.579  -6.821  0.00  0.00    +0.002 A 
ATOM     16  C   UNL     1      -7.578   1.579  -6.511  0.00  0.00    -0.059 A 
ATOM     17  C   UNL     1      -7.796   0.289  -6.958  0.00  0.00    +0.002 A 
ATOM     18  C   UNL     1      -8.921  -0.003  -7.705  0.00  0.00    +0.000 A 
ENDBRANCH  12  16
BRANCH  12  23
ATOM     19  C   UNL     1      -7.857   2.827  -4.018  0.00  0.00    -0.078 C 
ATOM     20  C   UNL     1      -8.410   2.335  -2.656  0.00  0.00    -0.020 C 
ATOM     21  C   UNL     1      -8.241   0.801  -2.748  0.00  0.00    -0.020 C 
ATOM     22  C   UNL     1      -7.149   0.580  -3.811  0.00  0.00    -0.078 C 
ATOM     23  N   UNL     1      -6.727   1.913  -4.245  0.00  0.00    +0.385 N 
ATOM     24  H   UNL     1      -5.918   2.217  -3.692  0.00  0.00    -0.081 HD
ENDBRANCH  12  23
ENDBRANCH  11  12
ENDBRANCH   7  11
ENDBRANCH   1   8
BRANCH   4  25
ATOM     25  N   UNL     1       0.248   6.192  -2.027  0.00  0.00    -0.216 N 
ATOM     26  H   UNL     1       1.108   5.756  -2.132  0.00  0.00    +0.174 HD
BRANCH  25  27
ATOM     27  S   UNL     1       0.041   7.344  -0.856  0.00  0.00    +0.072 S 
ATOM     28  O   UNL     1      -0.537   8.474  -1.496  0.00  0.00    -0.150 OA
ATOM     29  O   UNL     1       1.266   7.419  -0.139  0.00  0.00    -0.150 OA
BRANCH  27  30
ATOM     30  C   UNL     1      -1.165   6.731   0.272  0.00  0.00    +0.111 A 
ATOM     31  C   UNL     1      -0.785   5.891   1.302  0.00  0.00    +0.029 A 
ATOM     32  C   UNL     1      -1.731   5.410   2.187  0.00  0.00    +0.004 A 
ATOM     33  C   UNL     1      -3.059   5.768   2.041  0.00  0.00    +0.033 A 
ATOM     34  C   UNL     1      -3.440   6.603   1.008  0.00  0.00    +0.128 A 
ATOM     35  C   UNL     1      -2.492   7.089   0.127  0.00  0.00    +0.061 A 
BRANCH  34  36
ATOM     36  N   UNL     1      -4.862   6.982   0.849  0.00  0.00    +0.056 N 
ATOM     37  O   UNL     1      -5.696   6.557   1.628  0.00  0.00    -0.126 OA
ATOM     38  O   UNL     1      -5.198   7.718  -0.061  0.00  0.00    -0.126 OA
ENDBRANCH  34  36
ENDBRANCH  27  30
ENDBRANCH  25  27
ENDBRANCH   4  25
TORSDOF 9
