REMARK  Name = ZINC30823035
REMARK  4 active torsions:
REMARK  status: ('A' for Active; 'I' for Inactive)
REMARK    1  A    between atoms: C_1  and  O_2
REMARK    2  A    between atoms: O_2  and  C_3
REMARK    3  A    between atoms: C_6  and  C_9
REMARK    4  A    between atoms: C_21  and  C_23
REMARK                            x       y       z     vdW  Elec       q    Type
REMARK                         _______ _______ _______ _____ _____    ______ ____
ROOT
ATOM      1  C   UNL     1       2.490  -2.491  -4.360  0.00  0.00    +0.252 C 
ATOM      2  O   UNL     1       2.629  -3.699  -4.373  0.00  0.00    -0.270 OA
ATOM      3  N   UNL     1       2.946  -1.748  -5.389  0.00  0.00    -0.253 N 
ATOM      4  C   UNL     1       2.884  -0.359  -5.314  0.00  0.00    +0.059 A 
ATOM      5  C   UNL     1       3.653   0.343  -4.391  0.00  0.00    +0.025 A 
ATOM      6  C   UNL     1       3.615   1.726  -4.389  0.00  0.00    +0.002 A 
ATOM      7  C   UNL     1       2.826   2.408  -5.297  0.00  0.00    +0.002 A 
ATOM      8  C   UNL     1       2.043   1.710  -6.201  0.00  0.00    +0.025 A 
ATOM      9  C   UNL     1       2.061   0.327  -6.187  0.00  0.00    +0.053 A 
ATOM     10  N   UNL     1       1.254  -0.439  -7.022  0.00  0.00    -0.316 N 
ATOM     11  C   UNL     1       1.711  -1.279  -7.987  0.00  0.00    +0.017 C 
ATOM     12  C   UNL     1       2.695  -2.178  -7.825  0.00  0.00    +0.038 C 
ATOM     13  C   UNL     1       3.487  -2.406  -6.559  0.00  0.00    +0.153 C 
ATOM     14  C   UNL     1       3.078  -3.020  -8.896  0.00  0.00    +0.163 C 
ATOM     15  O   UNL     1       3.957  -3.840  -8.714  0.00  0.00    -0.292 OA
ATOM     16  C   UNL     1       2.436  -2.934 -10.249  0.00  0.00    +0.080 C 
ATOM     17  C   UNL     1       1.949  -1.496 -10.463  0.00  0.00    +0.014 C 
ATOM     18  C   UNL     1       0.994  -1.154  -9.322  0.00  0.00    +0.051 C 
ATOM     19  H   UNL     1       0.160  -0.389  -6.927  0.00  0.00    +0.152 HD
ENDROOT
BRANCH   1  23
ATOM     20  C   UNL     1       0.566  -0.611  -1.074  0.00  0.00    +0.120 A 
ATOM     21  C   UNL     1       0.459  -0.062  -2.346  0.00  0.00    +0.046 A 
ATOM     22  C   UNL     1       1.086  -0.665  -3.414  0.00  0.00    +0.016 A 
ATOM     23  C   UNL     1       1.822  -1.837  -3.218  0.00  0.00    +0.037 A 
ATOM     24  C   UNL     1       1.923  -2.389  -1.938  0.00  0.00    +0.016 A 
ATOM     25  C   UNL     1       1.297  -1.776  -0.875  0.00  0.00    +0.046 A 
BRANCH  20  27
ATOM     26  C   UNL     1      -0.783   1.184  -0.299  0.00  0.00    +0.277 C 
ATOM     27  O   UNL     1      -0.049  -0.010  -0.024  0.00  0.00    -0.495 OA
ENDBRANCH  20  27
ENDBRANCH   1  23
BRANCH  13  28
ATOM     28  C   UNL     1       4.893  -1.910  -6.778  0.00  0.00    +0.015 A 
ATOM     29  C   UNL     1       5.995  -2.605  -7.155  0.00  0.00    +0.013 A 
ATOM     30  C   UNL     1       7.194  -1.933  -7.299  0.00  0.00    +0.008 A 
ATOM     31  C   UNL     1       7.236  -0.601  -7.050  0.00  0.00    +0.045 A 
ATOM     32  S   UNL     1       5.542  -0.256  -6.602  0.00  0.00    -0.099 S 
ENDBRANCH  13  28
TORSDOF 3
