REMARK  Name = ZINC19509193
REMARK  7 active torsions:
REMARK  status: ('A' for Active; 'I' for Inactive)
REMARK    1  A    between atoms: CD1_1  and  CG_2
REMARK    2  A    between atoms: CG_2  and  CD2_3
REMARK    3  A    between atoms: CG_2  and  CB_4
REMARK    4  A    between atoms: CB_4  and  CA_5
REMARK    5  A    between atoms: CA_5  and  C_7
REMARK    6  A    between atoms: CA_5  and  N_10
REMARK    7  A    between atoms: C_11  and  C_13
REMARK                            x       y       z     vdW  Elec       q    Type
REMARK                         _______ _______ _______ _____ _____    ______ ____
ROOT
ATOM      1  N   LEU A   1       0.005  -0.004  -0.003  0.00  0.00    -0.298 N 
ATOM      2  C   UNK A   0       0.977  -0.668   0.654  0.00  0.00    +0.245 C 
ATOM      3  O   UNK A   0       1.839  -0.052   1.248  0.00  0.00    -0.270 OA
ATOM      4  H   LEU A   1      -0.775  -0.562  -0.541  0.00  0.00    +0.150 HD
ENDROOT
BRANCH   2   5
ATOM      5  C   UNK A   0       0.994  -2.150   0.650  0.00  0.00    +0.047 A 
ATOM      6  C   UNK A   0       0.011  -2.877  -0.027  0.00  0.00    +0.083 A 
ATOM      7  C   UNK A   0       0.069  -4.263  -0.015  0.00  0.00    +0.252 A 
ATOM      8  N   UNK A   0       1.031  -4.895   0.635  0.00  0.00    -0.290 N 
ATOM      9  C   UNK A   0       1.976  -4.244   1.293  0.00  0.00    +0.252 A 
ATOM     10  C   UNK A   0       1.992  -2.857   1.325  0.00  0.00    +0.083 A 
ATOM     11  O   UNK A   0       2.940  -4.941   1.945  0.00  0.00    -0.268 OA
ATOM     12  O   UNK A   0      -0.873  -4.978  -0.680  0.00  0.00    -0.268 OA
ATOM     13  H   UNK A   0       1.061  -5.995   0.640  0.00  0.00    +0.172 HD
ENDBRANCH   2   5
BRANCH   1  14
ATOM     14  CA  LEU A   1      -0.011   1.461   0.000  0.00  0.00    +0.187 C 
BRANCH  14  15
ATOM     15  C   LEU A   1      -0.712   1.953   1.240  0.00  0.00    +0.376 C 
ATOM     16  O   LEU A   1      -1.153   1.161   2.039  0.00  0.00    -0.244 OA
ATOM     17  OXT LEU A   1      -0.847   3.271   1.457  0.00  0.00    -0.244 OA
ENDBRANCH  14  15
BRANCH  14  18
ATOM     18  CB  LEU A   1      -0.753   1.965  -1.240  0.00  0.00    +0.037 C 
BRANCH  18  20
ATOM     19  CD1 LEU A   1      -0.775   1.966  -3.738  0.00  0.00    +0.007 C 
ATOM     20  CG  LEU A   1       0.027   1.572  -2.496  0.00  0.00    -0.015 C 
ATOM     21  CD2 LEU A   1       1.374   2.296  -2.508  0.00  0.00    +0.007 C 
ENDBRANCH  18  20
ENDBRANCH  14  18
ENDBRANCH   1  14
TORSDOF 5
