REMARK  Name = ZINC54201168
REMARK  8 active torsions:
REMARK  status: ('A' for Active; 'I' for Inactive)
REMARK    1  A    between atoms: C_1  and  O_2
REMARK    2  A    between atoms: O_2  and  C_3
REMARK    3  A    between atoms: C_6  and  C_9
REMARK    4  A    between atoms: C_12  and  C_31
REMARK    5  A    between atoms: C_21  and  C_22
REMARK    6  A    between atoms: C_25  and  O_30
REMARK    7  A    between atoms: C_26  and  O_28
REMARK    8  A    between atoms: O_28  and  C_29
REMARK                            x       y       z     vdW  Elec       q    Type
REMARK                         _______ _______ _______ _____ _____    ______ ____
ROOT
ATOM      1  C   UNL     1      -3.993  -2.951   0.351  0.00  0.00    +0.135 C 
ATOM      2  C   UNL     1      -4.689  -3.383   1.657  0.00  0.00    +0.087 C 
ATOM      3  C   UNL     1      -5.280  -4.734   1.325  0.00  0.00    +0.069 C 
ATOM      4  N   UNL     1      -5.001  -5.038   0.104  0.00  0.00    -0.182 NA
ATOM      5  N   UNL     1      -4.253  -4.069  -0.569  0.00  0.00    -0.200 N 
ATOM      6  C   UNL     1      -3.828  -4.146  -1.874  0.00  0.00    +0.149 C 
ATOM      7  N   UNL     1      -3.128  -3.194  -2.418  0.00  0.00    -0.153 NA
ATOM      8  C   UNL     1      -2.707  -3.255  -3.688  0.00  0.00    +0.302 C 
ATOM      9  O   UNL     1      -2.050  -2.437  -4.311  0.00  0.00    -0.260 OA
ATOM     10  S   UNL     1      -3.345  -4.828  -4.246  0.00  0.00    -0.026 S 
ATOM     11  C   UNL     1      -4.140  -5.312  -2.719  0.00  0.00    +0.057 C 
ATOM     12  C   UNL     1      -4.839  -6.442  -2.421  0.00  0.00    +0.026 C 
ENDROOT
BRANCH   1  16
ATOM     13  C   UNL     1       0.206  -2.461   0.976  0.00  0.00    +0.120 A 
ATOM     14  C   UNL     1      -0.621  -1.350   0.913  0.00  0.00    +0.046 A 
ATOM     15  C   UNL     1      -1.978  -1.510   0.711  0.00  0.00    +0.009 A 
ATOM     16  C   UNL     1      -2.512  -2.778   0.572  0.00  0.00    -0.025 A 
ATOM     17  C   UNL     1      -1.690  -3.888   0.635  0.00  0.00    +0.009 A 
ATOM     18  C   UNL     1      -0.331  -3.732   0.831  0.00  0.00    +0.046 A 
BRANCH  13  20
ATOM     19  C   UNL     1       2.025  -0.968   1.317  0.00  0.00    +0.277 C 
ATOM     20  O   UNL     1       1.542  -2.306   1.175  0.00  0.00    -0.495 OA
ENDBRANCH  13  20
ENDBRANCH   1  16
BRANCH  12  21
ATOM     21  C   UNL     1      -4.865  -7.559  -3.370  0.00  0.00    -0.020 A 
ATOM     22  C   UNL     1      -4.028  -7.548  -4.494  0.00  0.00    +0.012 A 
ATOM     23  C   UNL     1      -4.056  -8.599  -5.383  0.00  0.00    +0.050 A 
ATOM     24  C   UNL     1      -4.912  -9.672  -5.170  0.00  0.00    +0.158 A 
ATOM     25  C   UNL     1      -5.749  -9.691  -4.054  0.00  0.00    +0.162 A 
ATOM     26  C   UNL     1      -5.724  -8.645  -3.154  0.00  0.00    +0.057 A 
BRANCH  25  27
ATOM     27  O   UNL     1      -6.586 -10.744  -3.851  0.00  0.00    -0.491 OA
ATOM     28  C   UNL     1      -7.415 -10.698  -2.688  0.00  0.00    +0.277 C 
ENDBRANCH  25  27
BRANCH  24  29
ATOM     29  O   UNL     1      -4.934 -10.705  -6.051  0.00  0.00    -0.503 OA
ATOM     30  H   UNL     1      -4.311 -11.414  -5.841  0.00  0.00    +0.292 HD
ENDBRANCH  24  29
ENDBRANCH  12  21
BRANCH   3  31
ATOM     31  C   UNL     1      -6.055  -5.576   2.255  0.00  0.00    -0.002 A 
ATOM     32  C   UNL     1      -6.300  -5.139   3.559  0.00  0.00    +0.010 A 
ATOM     33  C   UNL     1      -7.025  -5.931   4.424  0.00  0.00    +0.001 A 
ATOM     34  C   UNL     1      -7.511  -7.157   4.002  0.00  0.00    +0.000 A 
ATOM     35  C   UNL     1      -7.272  -7.596   2.712  0.00  0.00    +0.001 A 
ATOM     36  C   UNL     1      -6.553  -6.811   1.834  0.00  0.00    +0.010 A 
ENDBRANCH   3  31
TORSDOF 6
