REMARK  Name = ZINC00871239
REMARK  12 active torsions:
REMARK  status: ('A' for Active; 'I' for Inactive)
REMARK    1  A    between atoms: C_1  and  C_2
REMARK    2  A    between atoms: C_5  and  N_9
REMARK    3  A    between atoms: C_6  and  C_8
REMARK    4  A    between atoms: C_10  and  C_12
REMARK    5  A    between atoms: C_13  and  C_34
REMARK    6  A    between atoms: C_14  and  C_30
REMARK    7  A    between atoms: C_15  and  N_17
REMARK    8  A    between atoms: C_18  and  C_20
REMARK    9  A    between atoms: C_20  and  O_21
REMARK   10  A    between atoms: O_21  and  C_22
REMARK   11  A    between atoms: C_30  and  O_32
REMARK   12  A    between atoms: O_32  and  C_33
REMARK                            x       y       z     vdW  Elec       q    Type
REMARK                         _______ _______ _______ _____ _____    ______ ____
ROOT
ATOM      1  C   UNL     1       3.706  -0.942   0.175  0.00  0.00    +0.080 A 
ATOM      2  C   UNL     1       3.935  -2.287   0.277  0.00  0.00    -0.015 A 
ATOM      3  C   UNL     1       5.253  -2.711   0.353  0.00  0.00    +0.091 A 
ATOM      4  C   UNL     1       6.255  -1.735   0.320  0.00  0.00    +0.087 A 
ATOM      5  S   UNL     1       5.354  -0.261   0.178  0.00  0.00    -0.068 S 
ATOM      6  C   UNL     1       2.796  -3.272   0.306  0.00  0.00    +0.046 C 
ENDROOT
BRANCH   1   8
ATOM      7  N   UNL     1       2.402   1.107  -0.015  0.00  0.00    -0.281 N 
ATOM      8  C   UNL     1       2.426  -0.237   0.080  0.00  0.00    +0.255 C 
ATOM      9  O   UNL     1       1.383  -0.866   0.087  0.00  0.00    -0.269 OA
ATOM     10  H   UNL     1       3.233   1.603  -0.086  0.00  0.00    +0.155 HD
BRANCH   7  15
ATOM     11  C   UNL     1      -2.556   3.863   0.005  0.00  0.00    +0.044 C 
ATOM     12  C   UNL     1      -1.238   3.131  -0.000  0.00  0.00    -0.050 A 
ATOM     13  C   UNL     1      -1.140   1.892  -0.607  0.00  0.00    +0.005 A 
ATOM     14  C   UNL     1       0.064   1.216  -0.608  0.00  0.00    +0.024 A 
ATOM     15  C   UNL     1       1.180   1.787  -0.010  0.00  0.00    +0.037 A 
ATOM     16  C   UNL     1       1.079   3.034   0.593  0.00  0.00    -0.029 A 
ATOM     17  C   UNL     1      -0.130   3.702   0.596  0.00  0.00    +0.008 A 
ATOM     18  C   UNL     1       2.287   3.657   1.244  0.00  0.00    +0.045 C 
ENDBRANCH   7  15
ENDBRANCH   1   8
BRANCH   4  19
ATOM     19  N   UNL     1       7.624  -1.904   0.380  0.00  0.00    -0.277 N 
ATOM     20  C   UNL     1       8.438  -0.831   0.334  0.00  0.00    +0.255 C 
ATOM     21  O   UNL     1       7.969   0.283   0.239  0.00  0.00    -0.272 OA
ATOM     22  H   UNL     1       8.000  -2.795   0.456  0.00  0.00    +0.155 HD
BRANCH  20  23
ATOM     23  C   UNL     1       9.933  -1.015   0.399  0.00  0.00    +0.325 C 
BRANCH  23  24
ATOM     24  O   UNL     1      10.573   0.260   0.333  0.00  0.00    -0.481 OA
BRANCH  24  25
ATOM     25  C   UNL     1      11.932   0.272   0.380  0.00  0.00    +0.140 A 
ATOM     26  C   UNL     1      12.633  -0.920   0.488  0.00  0.00    +0.048 A 
ATOM     27  C   UNL     1      14.014  -0.907   0.535  0.00  0.00    +0.023 A 
ATOM     28  C   UNL     1      14.698   0.294   0.476  0.00  0.00    +0.043 A 
ATOM     29  C   UNL     1      14.001   1.485   0.368  0.00  0.00    +0.043 A 
ATOM     30  C   UNL     1      12.620   1.476   0.314  0.00  0.00    +0.084 A 
ATOM     31 CL   UNL     1      11.746   2.969   0.171  0.00  0.00    -0.080 Cl
ATOM     32 CL   UNL     1      16.433   0.308   0.536  0.00  0.00    -0.083 Cl
ENDBRANCH  24  25
ENDBRANCH  23  24
ENDBRANCH  20  23
ENDBRANCH   4  19
BRANCH   3  33
ATOM     33  C   UNL     1       5.587  -4.136   0.465  0.00  0.00    +0.342 C 
ATOM     34  O   UNL     1       5.761  -4.800  -0.539  0.00  0.00    -0.245 OA
BRANCH  33  35
ATOM     35  O   UNL     1       5.699  -4.709   1.680  0.00  0.00    -0.464 OA
ATOM     36  C   UNL     1       6.030  -6.122   1.715  0.00  0.00    +0.280 C 
ENDBRANCH  33  35
ENDBRANCH   3  33
TORSDOF 8
