REMARK  Name = ZINC02119030
REMARK  9 active torsions:
REMARK  status: ('A' for Active; 'I' for Inactive)
REMARK    1  A    between atoms: C_1  and  C_2
REMARK    2  A    between atoms: C_4  and  C_32
REMARK    3  A    between atoms: N_5  and  C_7
REMARK    4  A    between atoms: C_7  and  C_8
REMARK    5  A    between atoms: C_10  and  C_16
REMARK    6  A    between atoms: C_13  and  O_14
REMARK    7  A    between atoms: O_14  and  C_15
REMARK    8  A    between atoms: C_22  and  O_28
REMARK    9  A    between atoms: O_28  and  C_29
REMARK                            x       y       z     vdW  Elec       q    Type
REMARK                         _______ _______ _______ _____ _____    ______ ____
ROOT
ATOM      1  C   UNL     1      -2.671   1.820  -0.666  0.00  0.00    +0.007 C 
ATOM      2  C   UNL     1      -3.081   1.848  -2.119  0.00  0.00    +0.010 A 
ATOM      3  C   UNL     1      -4.313   2.226  -2.531  0.00  0.00    -0.022 A 
ATOM      4  C   UNL     1      -4.331   2.127  -3.973  0.00  0.00    +0.006 A 
ATOM      5  C   UNL     1      -5.318   2.385  -4.930  0.00  0.00    +0.056 A 
ATOM      6  C   UNL     1      -4.973   2.172  -6.257  0.00  0.00    +0.121 A 
ATOM      7  C   UNL     1      -3.710   1.724  -6.622  0.00  0.00    +0.047 A 
ATOM      8  C   UNL     1      -2.721   1.465  -5.690  0.00  0.00    +0.030 A 
ATOM      9  C   UNL     1      -3.042   1.671  -4.350  0.00  0.00    +0.047 A 
ATOM     10  N   UNL     1      -2.314   1.514  -3.202  0.00  0.00    -0.359 N 
ATOM     11  H   UNL     1      -1.393   1.211  -3.162  0.00  0.00    +0.166 HD
ATOM     12  C   UNL     1      -5.410   2.654  -1.588  0.00  0.00    +0.018 C 
ATOM     13  C   UNL     1      -5.019   2.207  -0.172  0.00  0.00    -0.076 C 
ATOM     14  N   UNL     1      -3.632   2.626   0.119  0.00  0.00    +0.387 N 
ATOM     15  H   UNL     1      -3.521   3.617  -0.124  0.00  0.00    -0.084 HD
ATOM     16  H   UNL     1      -3.444   2.496   1.120  0.00  0.00    -0.084 HD
ENDROOT
BRANCH   1  19
ATOM     17  C   UNL     1       1.070   2.115  -0.258  0.00  0.00    +0.016 A 
ATOM     18  C   UNL     1      -0.196   1.577  -0.389  0.00  0.00    +0.011 A 
ATOM     19  C   UNL     1      -1.292   2.410  -0.517  0.00  0.00    -0.055 A 
ATOM     20  C   UNL     1      -1.126   3.783  -0.503  0.00  0.00    +0.006 A 
ATOM     21  C   UNL     1       0.137   4.325  -0.372  0.00  0.00    +0.046 A 
ATOM     22  C   UNL     1       1.240   3.492  -0.250  0.00  0.00    +0.125 A 
BRANCH  22  23
ATOM     23  O   UNL     1       2.484   4.024  -0.121  0.00  0.00    -0.495 OA
ATOM     24  C   UNL     1       2.583   5.449  -0.120  0.00  0.00    +0.277 C 
ENDBRANCH  22  23
BRANCH  17  25
ATOM     25  C   UNL     1       2.265   1.207  -0.125  0.00  0.00    +0.182 C 
BRANCH  25  30
ATOM     26  C   UNL     1       5.062   1.874  -4.239  0.00  0.00    +0.068 C 
ATOM     27  C   UNL     1       4.096   1.302  -3.235  0.00  0.00    +0.074 A 
ATOM     28  C   UNL     1       3.361   0.121  -3.385  0.00  0.00    +0.061 A 
ATOM     29  C   UNL     1       2.611  -0.048  -2.270  0.00  0.00    +0.051 A 
ATOM     30  N   UNL     1       2.864   0.990  -1.444  0.00  0.00    -0.263 N 
ATOM     31  N   UNL     1       3.794   1.826  -2.075  0.00  0.00    -0.175 NA
ATOM     32  C   UNL     1       1.665  -1.189  -1.999  0.00  0.00    +0.066 C 
ATOM     33 BR   UNL     1       3.405  -1.036  -4.880  0.00  0.00    -0.047 Br
ENDBRANCH  25  30
ENDBRANCH  17  25
ENDBRANCH   1  19
BRANCH   6  34
ATOM     34  O   UNL     1      -5.897   2.408  -7.226  0.00  0.00    -0.495 OA
ATOM     35  C   UNL     1      -5.495   2.173  -8.577  0.00  0.00    +0.277 C 
ENDBRANCH   6  34
TORSDOF 5
