REMARK  Name = ZINC06443742
REMARK  7 active torsions:
REMARK  status: ('A' for Active; 'I' for Inactive)
REMARK    1  A    between atoms: C_1  and  C_2
REMARK    2  A    between atoms: C_12  and  C_14
REMARK    3  A    between atoms: C_14  and  C_16
REMARK    4  A    between atoms: C_14  and  N_66
REMARK    5  A    between atoms: N_20  and  C_21
REMARK    6  A    between atoms: C_21  and  C_22
REMARK    7  A    between atoms: N_30  and  C_33
REMARK                            x       y       z     vdW  Elec       q    Type
REMARK                         _______ _______ _______ _____ _____    ______ ____
ROOT
ATOM      1  C   UNL     1       0.309  -2.525   5.321  0.00  0.00    +0.039 C 
ENDROOT
BRANCH   1  13
ATOM      2  C   UNL     1      -1.730   1.013   0.170  0.00  0.00    +0.046 C 
ATOM      3  C   UNL     1      -0.366   0.852   0.789  0.00  0.00    -0.026 A 
ATOM      4  C   UNL     1       0.718   1.517   0.257  0.00  0.00    +0.005 A 
ATOM      5  C   UNL     1       1.979   1.381   0.822  0.00  0.00    +0.001 A 
ATOM      6  C   UNL     1       2.171   0.577   1.909  0.00  0.00    +0.010 A 
ATOM      7  C   UNL     1       1.087  -0.111   2.463  0.00  0.00    -0.001 A 
ATOM      8  C   UNL     1      -0.195   0.029   1.897  0.00  0.00    +0.052 A 
ATOM      9  N   UNL     1      -1.261  -0.651   2.447  0.00  0.00    -0.322 N 
ATOM     10  H   UNL     1      -2.143  -0.554   2.055  0.00  0.00    +0.169 HD
ATOM     11  C   UNL     1      -1.095  -1.448   3.517  0.00  0.00    +0.251 A 
ATOM     12  O   UNL     1      -2.059  -2.034   3.977  0.00  0.00    -0.268 OA
ATOM     13  C   UNL     1       0.169  -1.622   4.122  0.00  0.00    +0.011 A 
ATOM     14  C   UNL     1       1.256  -0.980   3.629  0.00  0.00    +0.017 A 
ENDBRANCH   1  13
BRANCH   1  20
ATOM     15  C   UNL     1      -0.377  -0.683   6.736  0.00  0.00    -0.058 C 
ATOM     16  C   UNL     1      -1.411  -0.244   7.776  0.00  0.00    +0.086 C 
ATOM     17  N   UNL     1      -1.313  -1.113   8.957  0.00  0.00    -0.331 N 
ATOM     18  C   UNL     1      -1.553  -2.517   8.595  0.00  0.00    +0.086 C 
ATOM     19  C   UNL     1      -0.519  -2.957   7.555  0.00  0.00    -0.058 C 
ATOM     20  N   UNL     1      -0.643  -2.089   6.365  0.00  0.00    +0.391 N 
ATOM     21  H   UNL     1      -1.599  -2.162   5.996  0.00  0.00    -0.080 HD
BRANCH  17  22
ATOM     22  C   UNL     1      -2.194  -0.697   9.960  0.00  0.00    +0.065 A 
ATOM     23  C   UNL     1      -2.205  -1.343  11.189  0.00  0.00    +0.026 A 
ATOM     24  C   UNL     1      -3.074  -0.927  12.179  0.00  0.00    +0.002 A 
ATOM     25  C   UNL     1      -3.940   0.126  11.945  0.00  0.00    +0.003 A 
ATOM     26  C   UNL     1      -3.936   0.769  10.721  0.00  0.00    +0.040 A 
ATOM     27  C   UNL     1      -3.066   0.361   9.727  0.00  0.00    +0.144 A 
ATOM     28  F   UNL     1      -3.063   0.989   8.530  0.00  0.00    -0.204 F 
ENDBRANCH  17  22
ENDBRANCH   1  20
BRANCH   1  29
ATOM     29  C   UNL     1       1.724  -2.459   5.836  0.00  0.00    +0.143 A 
ATOM     30  N   UNL     1       2.287  -1.447   6.449  0.00  0.00    -0.115 NA
ATOM     31  N   UNL     1       3.499  -1.778   6.733  0.00  0.00    -0.023 NA
ATOM     32  N   UNL     1       3.726  -2.973   6.310  0.00  0.00    -0.044 NA
ATOM     33  N   UNL     1       2.655  -3.426   5.751  0.00  0.00    -0.226 N 
BRANCH  33  34
ATOM     34  C   UNL     1       2.486  -4.746   5.138  0.00  0.00    +0.182 C 
BRANCH  34  35
ATOM     35  C   UNL     1       2.947  -4.697   3.704  0.00  0.00    -0.026 A 
ATOM     36  C   UNL     1       2.036  -4.457   2.693  0.00  0.00    +0.005 A 
ATOM     37  C   UNL     1       2.459  -4.407   1.378  0.00  0.00    +0.000 A 
ATOM     38  C   UNL     1       3.793  -4.608   1.073  0.00  0.00    +0.000 A 
ATOM     39  C   UNL     1       4.703  -4.853   2.084  0.00  0.00    +0.000 A 
ATOM     40  C   UNL     1       4.281  -4.898   3.399  0.00  0.00    +0.005 A 
ENDBRANCH  34  35
ENDBRANCH  33  34
ENDBRANCH   1  29
TORSDOF 6
