REMARK  Name = ZINC43737207
REMARK  12 active torsions:
REMARK  status: ('A' for Active; 'I' for Inactive)
REMARK    1  A    between atoms: C_1  and  C_2
REMARK    2  A    between atoms: C_6  and  C_9
REMARK    3  A    between atoms: C_9  and  C_11
REMARK    4  A    between atoms: C_9  and  C_12
REMARK    5  A    between atoms: C_14  and  O_41
REMARK    6  A    between atoms: C_19  and  C_40
REMARK    7  A    between atoms: C_29  and  C_39
REMARK    8  A    between atoms: C_32  and  O_35
REMARK    9  A    between atoms: O_35  and  C_36
REMARK   10  A    between atoms: C_36  and  C_38
REMARK   11  A    between atoms: O_41  and  C_42
REMARK   12  A    between atoms: C_42  and  C_44
REMARK                            x       y       z     vdW  Elec       q    Type
REMARK                         _______ _______ _______ _____ _____    ______ ____
ROOT
ATOM      1  C   UNL     1       1.294  -4.670   1.541  0.00  0.00    +0.044 C 
ATOM      2  C   UNL     1       1.436  -6.204   1.524  0.00  0.00    +0.181 C 
ATOM      3  C   UNL     1       0.195  -6.770   2.252  0.00  0.00    +0.049 C 
ATOM      4  C   UNL     1      -0.844  -5.641   2.121  0.00  0.00    +0.003 C 
ATOM      5  C   UNL     1      -0.012  -4.361   2.320  0.00  0.00    -0.022 C 
ATOM      6  C   UNL     1       0.382  -4.201   3.791  0.00  0.00    +0.007 C 
ATOM      7  C   UNL     1      -0.855  -4.235   4.682  0.00  0.00    +0.005 C 
ATOM      8  C   UNL     1      -1.526  -5.607   4.545  0.00  0.00    +0.003 C 
ATOM      9  C   UNL     1      -1.975  -5.778   3.112  0.00  0.00    +0.000 C 
ATOM     10  C   UNL     1      -2.605  -7.170   2.986  0.00  0.00    +0.031 C 
ATOM     11  C   UNL     1      -3.699  -7.314   4.003  0.00  0.00    -0.027 C 
ATOM     12  C   UNL     1      -3.719  -6.650   5.121  0.00  0.00    -0.064 C 
ATOM     13  C   UNL     1      -2.707  -5.682   5.499  0.00  0.00    -0.008 C 
ATOM     14  C   UNL     1      -2.223  -6.025   6.911  0.00  0.00    +0.015 C 
ATOM     15  C   UNL     1      -3.425  -6.104   7.854  0.00  0.00    +0.046 C 
ATOM     16  C   UNL     1      -4.356  -7.233   7.410  0.00  0.00    +0.180 C 
ATOM     17  C   UNL     1      -4.873  -6.887   6.081  0.00  0.00    +0.075 C 
ATOM     18  C   UNL     1      -3.360  -4.300   5.559  0.00  0.00    +0.016 C 
ATOM     19  C   UNL     1      -0.727  -3.123   1.774  0.00  0.00    +0.012 C 
ENDROOT
BRANCH   1  20
ATOM     20  C   UNL     1       1.192  -4.136   0.111  0.00  0.00    +0.035 C 
ATOM     21  C   UNL     1       0.011  -4.801  -0.599  0.00  0.00    +0.014 C 
BRANCH  20  26
ATOM     22  C   UNL     1       6.155  -5.276  -2.568  0.00  0.00    +0.009 C 
ATOM     23  C   UNL     1       4.956  -4.671  -1.834  0.00  0.00    +0.005 C 
ATOM     24  C   UNL     1       3.730  -4.675  -2.757  0.00  0.00    +0.011 C 
ATOM     25  C   UNL     1       2.592  -3.941  -2.041  0.00  0.00    +0.049 C 
ATOM     26  C   UNL     1       2.465  -4.446  -0.633  0.00  0.00    -0.008 C 
ATOM     27  N   UNL     1       3.351  -5.111  -0.030  0.00  0.00    -0.390 N 
ATOM     28  C   UNL     1       4.632  -5.511  -0.597  0.00  0.00    +0.115 C 
ATOM     29  H   UNL     1       3.164  -5.377   0.883  0.00  0.00    +0.159 HD
ENDBRANCH  20  26
ENDBRANCH   1  20
BRANCH  16  30
ATOM     30  O   UNL     1      -3.627  -8.461   7.361  0.00  0.00    -0.461 OA
BRANCH  30  31
ATOM     31  C   UNL     1      -4.313  -9.588   7.605  0.00  0.00    +0.304 C 
ATOM     32  O   UNL     1      -5.495  -9.534   7.852  0.00  0.00    -0.251 OA
ATOM     33  C   UNL     1      -3.610 -10.921   7.571  0.00  0.00    +0.136 C 
ENDBRANCH  30  31
ENDBRANCH  16  30
BRANCH   2  34
ATOM     34  O   UNL     1       1.472  -6.677   0.176  0.00  0.00    -0.461 OA
BRANCH  34  35
ATOM     35  C   UNL     1       2.175  -7.796  -0.059  0.00  0.00    +0.304 C 
ATOM     36  O   UNL     1       2.741  -8.356   0.851  0.00  0.00    -0.251 OA
ATOM     37  C   UNL     1       2.259  -8.355  -1.456  0.00  0.00    +0.136 C 
ENDBRANCH  34  35
ENDBRANCH   2  34
TORSDOF 6
