REMARK  Name = ZINC14471416
REMARK  6 active torsions:
REMARK  status: ('A' for Active; 'I' for Inactive)
REMARK    1  A    between atoms: C_1  and  C_2
REMARK    2  A    between atoms: C_2  and  N_3
REMARK    3  A    between atoms: N_3  and  C_4
REMARK    4  A    between atoms: C_10  and  C_12
REMARK    5  A    between atoms: C_25  and  C_28
REMARK    6  A    between atoms: C_32  and  N_34
REMARK                            x       y       z     vdW  Elec       q    Type
REMARK                         _______ _______ _______ _____ _____    ______ ____
ROOT
ATOM      1  C   UNL     1       0.697   3.528  -0.993  0.00  0.00    +0.038 A 
ATOM      2  C   UNL     1       1.395   3.005   0.100  0.00  0.00    +0.015 A 
ATOM      3  C   UNL     1       2.432   3.722   0.649  0.00  0.00    +0.024 A 
ATOM      4  C   UNL     1       2.776   4.968   0.129  0.00  0.00    +0.031 A 
ATOM      5  C   UNL     1       2.086   5.499  -0.955  0.00  0.00    -0.019 A 
ATOM      6  C   UNL     1       1.047   4.775  -1.511  0.00  0.00    +0.019 A 
ATOM      7  C   UNL     1       2.427   6.830  -1.545  0.00  0.00    +0.049 C 
ATOM      8  C   UNL     1       1.413   7.881  -1.159  0.00  0.00    -0.023 C 
ATOM      9  C   UNL     1       1.987   9.035  -0.983  0.00  0.00    -0.030 C 
ATOM     10  C   UNL     1       3.482   8.919  -1.206  0.00  0.00    +0.033 C 
ATOM     11  C   UNL     1       3.758   7.398  -1.017  0.00  0.00    +0.029 C 
ATOM     12  C   UNL     1       3.874   7.139   0.488  0.00  0.00    +0.105 C 
ATOM     13  N   UNL     1       3.803   5.695   0.728  0.00  0.00    -0.336 N 
ATOM     14  H   UNL     1       4.461   5.251   1.285  0.00  0.00    +0.147 HD
ENDROOT
BRANCH  12  15
ATOM     15  C   UNL     1       5.192   7.670   0.991  0.00  0.00    -0.025 A 
ATOM     16  C   UNL     1       6.347   6.930   0.817  0.00  0.00    +0.007 A 
ATOM     17  C   UNL     1       7.556   7.419   1.273  0.00  0.00    +0.022 A 
ATOM     18  C   UNL     1       7.609   8.644   1.915  0.00  0.00    +0.071 A 
ATOM     19  C   UNL     1       6.453   9.381   2.095  0.00  0.00    +0.145 A 
ATOM     20  C   UNL     1       5.244   8.893   1.633  0.00  0.00    +0.039 A 
ATOM     21 CL   UNL     1       9.127   9.255   2.495  0.00  0.00    -0.081 Cl
BRANCH  19  22
ATOM     22  N   UNL     1       6.509  10.691   2.781  0.00  0.00    +0.058 N 
ATOM     23  O   UNL     1       5.490  11.340   2.938  0.00  0.00    -0.126 OA
ATOM     24  O   UNL     1       7.574  11.120   3.188  0.00  0.00    -0.126 OA
ENDBRANCH  19  22
ENDBRANCH  12  15
BRANCH   1  26
ATOM     25  N   UNL     1      -0.399   1.417  -1.562  0.00  0.00    -0.268 N 
ATOM     26  C   UNL     1      -0.414   2.765  -1.593  0.00  0.00    +0.251 C 
ATOM     27  O   UNL     1      -1.342   3.351  -2.115  0.00  0.00    -0.270 OA
BRANCH  25  28
ATOM     28  C   UNL     1      -1.368   0.692  -2.262  0.00  0.00    +0.037 A 
ATOM     29  C   UNL     1      -1.453  -0.686  -2.107  0.00  0.00    +0.023 A 
ATOM     30  C   UNL     1      -2.414  -1.399  -2.796  0.00  0.00    +0.002 A 
ATOM     31  C   UNL     1      -3.285  -0.744  -3.647  0.00  0.00    +0.000 A 
ATOM     32  C   UNL     1      -3.201   0.626  -3.808  0.00  0.00    +0.002 A 
ATOM     33  C   UNL     1      -2.245   1.346  -3.118  0.00  0.00    +0.023 A 
ENDBRANCH  25  28
BRANCH  25  35
ATOM     34  C   UNL     1       0.058   0.286   0.557  0.00  0.00    +0.025 C 
ATOM     35  C   UNL     1       0.631   0.713  -0.795  0.00  0.00    +0.110 C 
ENDBRANCH  25  35
ENDBRANCH   1  26
TORSDOF 5
