REMARK  Name = ZINC55036692
REMARK  8 active torsions:
REMARK  status: ('A' for Active; 'I' for Inactive)
REMARK    1  A    between atoms: C_1  and  C_2
REMARK    2  A    between atoms: C_3  and  C_25
REMARK    3  A    between atoms: C_4  and  C_24
REMARK    4  A    between atoms: C_7  and  C_8
REMARK    5  A    between atoms: C_11  and  C_13
REMARK    6  A    between atoms: C_18  and  O_19
REMARK    7  A    between atoms: O_19  and  C_20
REMARK    8  A    between atoms: C_20  and  C_21
REMARK                            x       y       z     vdW  Elec       q    Type
REMARK                         _______ _______ _______ _____ _____    ______ ____
ROOT
ATOM      1  C   UNL     1      -0.018   1.503   0.010  0.00  0.00    +0.044 C 
ATOM      2  C   UNL     1       0.002  -0.004   0.002  0.00  0.00    -0.042 A 
ATOM      3  C   UNL     1       0.006  -0.686  -1.206  0.00  0.00    -0.042 A 
ATOM      4  C   UNL     1       0.024  -2.052  -1.235  0.00  0.00    -0.020 A 
ATOM      5  C   UNL     1       0.040  -2.775  -0.038  0.00  0.00    +0.093 A 
ATOM      6  C   UNL     1       0.037  -2.083   1.186  0.00  0.00    +0.070 A 
ATOM      7  C   UNL     1       0.023  -0.695   1.195  0.00  0.00    -0.022 A 
ATOM      8  C   UNL     1       0.025   0.053   2.503  0.00  0.00    +0.046 C 
ATOM      9  N   UNL     1       0.055  -3.048   2.175  0.00  0.00    -0.338 N 
ATOM     10  H   UNL     1       0.057  -2.892   3.132  0.00  0.00    +0.167 HD
ATOM     11  C   UNL     1       0.068  -4.267   1.551  0.00  0.00    +0.143 A 
ATOM     12  N   UNL     1       0.059  -4.099   0.250  0.00  0.00    -0.227 NA
ATOM     13  C   UNL     1       0.027  -2.779  -2.555  0.00  0.00    +0.046 C 
ATOM     14  C   UNL     1      -0.011   0.087  -2.500  0.00  0.00    +0.044 C 
ENDROOT
BRANCH  11  15
ATOM     15  C   UNL     1       0.090  -5.574   2.239  0.00  0.00    +0.059 A 
ATOM     16  C   UNL     1       0.092  -5.633   3.633  0.00  0.00    +0.015 A 
ATOM     17  C   UNL     1       0.112  -6.856   4.270  0.00  0.00    +0.001 A 
ATOM     18  C   UNL     1       0.130  -8.027   3.531  0.00  0.00    +0.004 A 
ATOM     19  C   UNL     1       0.128  -7.982   2.151  0.00  0.00    +0.046 A 
ATOM     20  C   UNL     1       0.102  -6.761   1.495  0.00  0.00    +0.132 A 
BRANCH  20  21
ATOM     21  O   UNL     1       0.095  -6.715   0.139  0.00  0.00    -0.482 OA
BRANCH  21  22
ATOM     22  C   UNL     1       0.108  -7.966  -0.553  0.00  0.00    +0.324 C 
BRANCH  22  23
ATOM     23  C   UNL     1       0.097  -7.718  -2.039  0.00  0.00    +0.248 C 
ATOM     24  O   UNL     1       0.080  -6.583  -2.465  0.00  0.00    -0.272 OA
ATOM     25  N   UNL     1       0.107  -8.759  -2.896  0.00  0.00    -0.327 N 
ATOM     26  H   UNL     1       0.121  -9.667  -2.555  0.00  0.00    +0.145 HD
ATOM     27  H   UNL     1       0.100  -8.600  -3.852  0.00  0.00    +0.145 HD
ENDBRANCH  22  23
ENDBRANCH  21  22
ENDBRANCH  20  21
ENDBRANCH  11  15
TORSDOF 4
