REMARK  Name = ZINC00070731
REMARK  5 active torsions:
REMARK  status: ('A' for Active; 'I' for Inactive)
REMARK    1  A    between atoms: C_1  and  C_2
REMARK    2  A    between atoms: C_5  and  N_8
REMARK    3  A    between atoms: C_9  and  C_11
REMARK    4  A    between atoms: C_12  and  C_24
REMARK    5  A    between atoms: C_17  and  C_19
REMARK                            x       y       z     vdW  Elec       q    Type
REMARK                         _______ _______ _______ _____ _____    ______ ____
ROOT
ATOM      1  C   UNL     1      -1.019   2.901   0.391  0.00  0.00    +0.056 C 
ATOM      2  C   UNL     1      -0.597   1.954   1.255  0.00  0.00    +0.019 C 
ATOM      3  N   UNL     1       0.735   1.731   1.462  0.00  0.00    -0.273 N 
ATOM      4  C   UNL     1       1.707   2.406   0.834  0.00  0.00    +0.304 C 
ATOM      5  O   UNL     1       2.866   2.133   1.080  0.00  0.00    -0.252 OA
ATOM      6  N   UNL     1       1.442   3.378  -0.060  0.00  0.00    -0.288 N 
ATOM      7  C   UNL     1       0.034   3.700  -0.350  0.00  0.00    +0.148 C 
ATOM      8  C   UNL     1      -1.612   1.133   2.009  0.00  0.00    +0.061 C 
ATOM      9  H   UNL     1       0.991   1.042   2.095  0.00  0.00    +0.156 HD
ATOM     10  H   UNL     1       2.161   3.855  -0.503  0.00  0.00    +0.151 HD
ENDROOT
BRANCH   7  11
ATOM     11  C   UNL     1      -0.192   3.509  -1.827  0.00  0.00    +0.015 A 
ATOM     12  C   UNL     1      -0.683   4.386  -2.736  0.00  0.00    +0.013 A 
ATOM     13  C   UNL     1      -0.803   3.988  -4.055  0.00  0.00    +0.008 A 
ATOM     14  C   UNL     1      -0.427   2.732  -4.399  0.00  0.00    +0.045 A 
ATOM     15  S   UNL     1       0.125   2.070  -2.836  0.00  0.00    -0.099 S 
ENDBRANCH   7  11
BRANCH   1  17
ATOM     16  N   UNL     1      -2.797   4.180  -0.575  0.00  0.00    -0.282 N 
ATOM     17  C   UNL     1      -2.400   3.138   0.181  0.00  0.00    +0.248 C 
ATOM     18  O   UNL     1      -3.227   2.399   0.682  0.00  0.00    -0.270 OA
ATOM     19  H   UNL     1      -2.139   4.732  -1.025  0.00  0.00    +0.155 HD
BRANCH  16  24
ATOM     20  C   UNL     1      -8.323   5.338  -1.127  0.00  0.00    +0.044 C 
ATOM     21  C   UNL     1      -6.855   5.031  -0.981  0.00  0.00    -0.050 A 
ATOM     22  C   UNL     1      -5.941   6.063  -0.875  0.00  0.00    +0.005 A 
ATOM     23  C   UNL     1      -4.595   5.784  -0.740  0.00  0.00    +0.023 A 
ATOM     24  C   UNL     1      -4.160   4.466  -0.711  0.00  0.00    +0.034 A 
ATOM     25  C   UNL     1      -5.080   3.431  -0.824  0.00  0.00    +0.023 A 
ATOM     26  C   UNL     1      -6.425   3.717  -0.953  0.00  0.00    +0.005 A 
ENDBRANCH  16  24
ENDBRANCH   1  17
TORSDOF 3
