REMARK  Name = ZINC66386126
REMARK  6 active torsions:
REMARK  status: ('A' for Active; 'I' for Inactive)
REMARK    1  A    between atoms: C_1  and  C_2
REMARK    2  A    between atoms: C_2  and  C_3
REMARK    3  A    between atoms: C_2  and  N_4
REMARK    4  A    between atoms: C_6  and  N_9
REMARK    5  A    between atoms: C_10  and  C_12
REMARK    6  A    between atoms: C_15  and  C_17
REMARK                            x       y       z     vdW  Elec       q    Type
REMARK                         _______ _______ _______ _____ _____    ______ ____
ROOT
ATOM      1  N   UNL     1       3.568  -1.410   3.098  0.00  0.00    -0.278 N 
ATOM      2  C   UNL     1       3.672  -1.872   4.360  0.00  0.00    +0.267 C 
ATOM      3  O   UNL     1       2.672  -2.032   5.034  0.00  0.00    -0.268 OA
ATOM      4  H   UNL     1       4.365  -1.282   2.561  0.00  0.00    +0.155 HD
ENDROOT
BRANCH   1   7
ATOM      5  N   UNL     1       0.711  -0.489   1.189  0.00  0.00    -0.267 N 
ATOM      6  C   UNL     1       2.055  -0.643   1.310  0.00  0.00    +0.132 A 
ATOM      7  C   UNL     1       2.302  -1.112   2.560  0.00  0.00    +0.072 A 
ATOM      8  C   UNL     1       1.071  -1.249   3.219  0.00  0.00    +0.157 A 
ATOM      9  N   UNL     1       0.122  -0.871   2.401  0.00  0.00    -0.178 NA
BRANCH   5  11
ATOM     10  C   UNL     1      -0.019   1.526   0.010  0.00  0.00    +0.032 C 
ATOM     11  C   UNL     1       0.002  -0.004   0.002  0.00  0.00    +0.101 C 
ATOM     12  C   UNL     1       0.718  -0.497  -1.257  0.00  0.00    +0.032 C 
ENDBRANCH   5  11
ENDBRANCH   1   7
BRANCH   2  13
ATOM     13  C   UNL     1       4.997  -2.183   4.923  0.00  0.00    +0.134 A 
ATOM     14  C   UNL     1       5.113  -2.657   6.202  0.00  0.00    +0.080 A 
ATOM     15  S   UNL     1       6.776  -2.853   6.370  0.00  0.00    -0.074 S 
ATOM     16  C   UNL     1       7.263  -2.301   4.745  0.00  0.00    +0.116 A 
ATOM     17  N   UNL     1       6.094  -2.012   4.196  0.00  0.00    -0.234 NA
BRANCH  16  18
ATOM     18  C   UNL     1       8.611  -2.198   4.165  0.00  0.00    +0.046 A 
ATOM     19  C   UNL     1       9.822  -2.508   4.731  0.00  0.00    +0.019 A 
ATOM     20  C   UNL     1      10.965  -2.328   3.987  0.00  0.00    +0.028 A 
ATOM     21  C   UNL     1      10.861  -1.850   2.718  0.00  0.00    +0.079 A 
ATOM     22  S   UNL     1       9.097  -1.645   2.538  0.00  0.00    -0.075 S 
ATOM     23 CL   UNL     1      12.120  -1.529   1.566  0.00  0.00    -0.076 Cl
ENDBRANCH  16  18
ENDBRANCH   2  13
TORSDOF 4
