REMARK  Name = ZINC12650804
REMARK  7 active torsions:
REMARK  status: ('A' for Active; 'I' for Inactive)
REMARK    1  A    between atoms: C_1  and  O_2
REMARK    2  A    between atoms: O_2  and  C_3
REMARK    3  A    between atoms: C_6  and  C_9
REMARK    4  A    between atoms: C_9  and  N_10
REMARK    5  A    between atoms: N_16  and  N_17
REMARK    6  A    between atoms: C_18  and  C_19
REMARK    7  A    between atoms: C_23  and  N_25
REMARK                            x       y       z     vdW  Elec       q    Type
REMARK                         _______ _______ _______ _____ _____    ______ ____
ROOT
ATOM      1  N   UNL     1       3.726   7.478   0.005  0.00  0.00    -0.244 N 
ATOM      2  C   UNL     1       4.922   8.046  -0.003  0.00  0.00    +0.232 C 
ATOM      3  O   UNL     1       5.079   9.248   0.002  0.00  0.00    -0.274 OA
ATOM      4  C   UNL     1       6.082   7.062  -0.018  0.00  0.00    +0.173 C 
ATOM      5  S   UNL     1       5.156   5.477  -0.011  0.00  0.00    -0.079 S 
ATOM      6  C   UNL     1       3.550   6.134   0.000  0.00  0.00    +0.185 C 
ATOM      7  N   UNL     1       2.366   5.447   0.008  0.00  0.00    -0.127 NA
ENDROOT
BRANCH   7   8
ATOM      8  N   UNL     1       2.370   4.157   0.001  0.00  0.00    -0.155 NA
ATOM      9  C   UNL     1       1.201   3.478   0.009  0.00  0.00    +0.143 C 
BRANCH   9  10
ATOM     10  C   UNL     1       1.204   2.077   0.002  0.00  0.00    -0.003 A 
ATOM     11  C   UNL     1       2.429   1.366  -0.014  0.00  0.00    +0.009 A 
ATOM     12  C   UNL     1       2.417   0.002  -0.021  0.00  0.00    +0.003 A 
ATOM     13  C   UNL     1       1.211  -0.689  -0.014  0.00  0.00    +0.033 A 
ATOM     14  C   UNL     1       0.002  -0.004   0.002  0.00  0.00    +0.127 A 
ATOM     15  C   UNL     1      -0.016   1.360   0.009  0.00  0.00    +0.042 A 
BRANCH  14  16
ATOM     16  N   UNL     1      -1.272  -0.758   0.010  0.00  0.00    +0.056 N 
ATOM     17  O   UNL     1      -2.419  -0.112   0.025  0.00  0.00    -0.126 OA
ATOM     18  O   UNL     1      -1.257  -2.075   0.003  0.00  0.00    -0.126 OA
ENDBRANCH  14  16
ENDBRANCH   9  10
ENDBRANCH   7   8
BRANCH   1  19
ATOM     19  C   UNL     1       2.541   8.340   0.021  0.00  0.00    +0.150 C 
BRANCH  19  23
ATOM     20  C   UNL     1       1.425   9.157   4.064  0.00  0.00    +0.120 A 
ATOM     21  C   UNL     1       2.313   9.995   3.406  0.00  0.00    +0.046 A 
ATOM     22  C   UNL     1       2.672   9.729   2.099  0.00  0.00    +0.009 A 
ATOM     23  C   UNL     1       2.148   8.628   1.447  0.00  0.00    -0.029 A 
ATOM     24  C   UNL     1       1.258   7.794   2.099  0.00  0.00    +0.009 A 
ATOM     25  C   UNL     1       0.901   8.053   3.408  0.00  0.00    +0.046 A 
BRANCH  20  27
ATOM     26  C   UNL     1       0.152   8.511   5.965  0.00  0.00    +0.277 C 
ATOM     27  O   UNL     1       1.070   9.417   5.350  0.00  0.00    -0.495 OA
ENDBRANCH  20  27
ENDBRANCH  19  23
ENDBRANCH   1  19
TORSDOF 6
