REMARK  Name = ZINC12883783
REMARK  8 active torsions:
REMARK  status: ('A' for Active; 'I' for Inactive)
REMARK    1  A    between atoms: C_1  and  C_2
REMARK    2  A    between atoms: C_3  and  C_26
REMARK    3  A    between atoms: C_9  and  S_13
REMARK    4  A    between atoms: S_13  and  C_14
REMARK    5  A    between atoms: C_14  and  C_15
REMARK    6  A    between atoms: N_17  and  C_18
REMARK    7  A    between atoms: N_17  and  C_19
REMARK    8  A    between atoms: C_19  and  C_20
REMARK                            x       y       z     vdW  Elec       q    Type
REMARK                         _______ _______ _______ _____ _____    ______ ____
ROOT
ATOM      1  C   UNL     1       7.489  -1.224 -11.096  0.00  0.00    +0.052 C 
ATOM      2  C   UNL     1       6.861  -1.749  -9.831  0.00  0.00    -0.003 A 
ATOM      3  C   UNL     1       6.367  -2.986  -9.591  0.00  0.00    +0.007 A 
ATOM      4  C   UNL     1       5.801  -3.273  -8.277  0.00  0.00    +0.080 A 
ATOM      5  C   UNL     1       5.225  -4.486  -7.788  0.00  0.00    +0.261 A 
ATOM      6  O   UNL     1       5.158  -5.470  -8.505  0.00  0.00    -0.267 OA
ATOM      7  N   UNL     1       4.763  -4.531  -6.525  0.00  0.00    -0.301 N 
ATOM      8  H   UNL     1       4.376  -5.354  -6.189  0.00  0.00    +0.171 HD
ATOM      9  C   UNL     1       4.825  -3.438  -5.710  0.00  0.00    +0.170 A 
ATOM     10  N   UNL     1       5.351  -2.307  -6.136  0.00  0.00    -0.216 NA
ATOM     11  C   UNL     1       5.829  -2.200  -7.370  0.00  0.00    +0.117 A 
ATOM     12  S   UNL     1       6.592  -0.890  -8.293  0.00  0.00    -0.073 S 
ENDROOT
BRANCH   3  13
ATOM     13  C   UNL     1       6.400  -4.030 -10.643  0.00  0.00    -0.016 A 
ATOM     14  C   UNL     1       5.210  -4.532 -11.168  0.00  0.00    +0.011 A 
ATOM     15  C   UNL     1       5.247  -5.500 -12.151  0.00  0.00    +0.039 A 
ATOM     16  C   UNL     1       6.463  -5.981 -12.608  0.00  0.00    +0.123 A 
ATOM     17  C   UNL     1       7.648  -5.488 -12.086  0.00  0.00    +0.039 A 
ATOM     18  C   UNL     1       7.622  -4.517 -11.107  0.00  0.00    +0.011 A 
ATOM     19  F   UNL     1       6.493  -6.933 -13.566  0.00  0.00    -0.205 F 
ENDBRANCH   3  13
BRANCH   9  20
ATOM     20  S   UNL     1       4.200  -3.542  -4.066  0.00  0.00    -0.078 S 
BRANCH  20  21
ATOM     21  C   UNL     1       4.548  -1.862  -3.491  0.00  0.00    +0.173 C 
BRANCH  21  22
ATOM     22  C   UNL     1       4.084  -1.713  -2.064  0.00  0.00    +0.226 C 
ATOM     23  O   UNL     1       3.570  -2.651  -1.493  0.00  0.00    -0.275 OA
ATOM     24  N   UNL     1       4.242  -0.538  -1.424  0.00  0.00    -0.299 N 
ATOM     25  C   UNL     1       4.863   0.595  -2.114  0.00  0.00    +0.132 C 
BRANCH  24  26
ATOM     26  C   UNL     1       3.792  -0.394  -0.037  0.00  0.00    +0.149 C 
BRANCH  26  27
ATOM     27  C   UNL     1       2.360   0.077  -0.020  0.00  0.00    +0.008 A 
ATOM     28  C   UNL     1       1.221  -0.657  -0.013  0.00  0.00    +0.014 A 
ATOM     29  C   UNL     1       0.002  -0.004   0.002  0.00  0.00    +0.028 A 
ATOM     30  C   UNL     1      -0.016   1.352   0.009  0.00  0.00    +0.078 A 
ATOM     31  S   UNL     1       1.725   1.745  -0.005  0.00  0.00    -0.080 S 
ATOM     32 CL   UNL     1      -1.379   2.427   0.022  0.00  0.00    -0.076 Cl
ENDBRANCH  26  27
ENDBRANCH  24  26
ENDBRANCH  21  22
ENDBRANCH  20  21
ENDBRANCH   9  20
TORSDOF 6
