REMARK  Name = ZINC39843225
REMARK  10 active torsions:
REMARK  status: ('A' for Active; 'I' for Inactive)
REMARK    1  A    between atoms: C_1  and  O_2
REMARK    2  A    between atoms: O_2  and  C_3
REMARK    3  A    between atoms: C_6  and  C_14
REMARK    4  A    between atoms: C_7  and  C_11
REMARK    5  A    between atoms: C_8  and  O_9
REMARK    6  A    between atoms: O_9  and  C_10
REMARK    7  A    between atoms: N_15  and  N_16
REMARK    8  A    between atoms: C_21  and  C_24
REMARK    9  A    between atoms: C_24  and  C_25
REMARK   10  A    between atoms: C_25  and  C_27
REMARK                            x       y       z     vdW  Elec       q    Type
REMARK                         _______ _______ _______ _____ _____    ______ ____
ROOT
ATOM      1  N   UNL     1      -4.142  -4.689  -0.286  0.00  0.00    -0.127 NA
ATOM      2  C   UNL     1      -4.246  -6.002  -0.363  0.00  0.00    +0.183 C 
ATOM      3  N   UNL     1      -5.393  -6.762  -0.423  0.00  0.00    -0.263 N 
ATOM      4  C   UNL     1      -5.368  -8.082  -0.497  0.00  0.00    +0.232 C 
ATOM      5  O   UNL     1      -6.383  -8.743  -0.550  0.00  0.00    -0.274 OA
ATOM      6  C   UNL     1      -3.987  -8.717  -0.513  0.00  0.00    +0.147 C 
ATOM      7  S   UNL     1      -2.932  -7.211  -0.420  0.00  0.00    -0.075 S 
ATOM      8  H   UNL     1      -6.252  -6.312  -0.410  0.00  0.00    +0.157 HD
ENDROOT
BRANCH   1  10
ATOM      9  C   UNL     1      -5.105  -2.666  -0.082  0.00  0.00    +0.143 C 
ATOM     10  N   UNL     1      -5.205  -3.959  -0.255  0.00  0.00    -0.155 NA
BRANCH   9  14
ATOM     11  C   UNL     1      -1.273  -0.817  -0.105  0.00  0.00    +0.162 A 
ATOM     12  C   UNL     1      -1.402  -2.164   0.205  0.00  0.00    +0.050 A 
ATOM     13  C   UNL     1      -2.643  -2.767   0.214  0.00  0.00    +0.014 A 
ATOM     14  C   UNL     1      -3.786  -2.025  -0.090  0.00  0.00    +0.013 A 
ATOM     15  C   UNL     1      -3.664  -0.651  -0.407  0.00  0.00    +0.117 A 
ATOM     16  C   UNL     1      -2.396  -0.054  -0.405  0.00  0.00    +0.176 A 
BRANCH  15  17
ATOM     17  C   UNL     1      -4.855   0.142  -0.729  0.00  0.00    +0.391 C 
ATOM     18  O   UNL     1      -5.970  -0.341  -0.583  0.00  0.00    -0.240 OA
ATOM     19  O   UNL     1      -4.734   1.288  -1.143  0.00  0.00    -0.240 OA
ENDBRANCH  15  17
BRANCH  11  21
ATOM     20  C   UNL     1       1.070  -1.079   0.208  0.00  0.00    +0.277 C 
ATOM     21  O   UNL     1      -0.042  -0.240  -0.109  0.00  0.00    -0.491 OA
ENDBRANCH  11  21
BRANCH  16  22
ATOM     22  O   UNL     1      -2.264   1.264  -0.702  0.00  0.00    -0.491 OA
ATOM     23  C   UNL     1      -2.069   1.603  -2.076  0.00  0.00    +0.277 C 
ENDBRANCH  16  22
ENDBRANCH   9  14
ENDBRANCH   1  10
BRANCH   6  24
ATOM     24  C   UNL     1      -3.742  -9.480  -1.816  0.00  0.00    +0.103 C 
BRANCH  24  25
ATOM     25  C   UNL     1      -2.417 -10.194  -1.739  0.00  0.00    +0.165 C 
ATOM     26  O   UNL     1      -1.735 -10.101  -0.741  0.00  0.00    -0.292 OA
BRANCH  25  27
ATOM     27  C   UNL     1      -1.950 -11.003  -2.876  0.00  0.00    +0.018 A 
ATOM     28  C   UNL     1      -2.731 -11.107  -4.032  0.00  0.00    +0.013 A 
ATOM     29  C   UNL     1      -2.287 -11.867  -5.092  0.00  0.00    +0.020 A 
ATOM     30  C   UNL     1      -1.071 -12.526  -5.016  0.00  0.00    +0.041 A 
ATOM     31  C   UNL     1      -0.292 -12.427  -3.874  0.00  0.00    +0.020 A 
ATOM     32  C   UNL     1      -0.720 -11.666  -2.808  0.00  0.00    +0.013 A 
ATOM     33 CL   UNL     1      -0.520 -13.481  -6.357  0.00  0.00    -0.084 Cl
ENDBRANCH  25  27
ENDBRANCH  24  25
ENDBRANCH   6  24
TORSDOF 8
