REMARK  Name = ZINC13661199
REMARK  9 active torsions:
REMARK  status: ('A' for Active; 'I' for Inactive)
REMARK    1  A    between atoms: C_1  and  C_2
REMARK    2  A    between atoms: C_2  and  O_3
REMARK    3  A    between atoms: O_3  and  C_4
REMARK    4  A    between atoms: C_6  and  C_11
REMARK    5  A    between atoms: C_9  and  O_10
REMARK    6  A    between atoms: C_14  and  C_32
REMARK    7  A    between atoms: C_15  and  C_17
REMARK    8  A    between atoms: C_20  and  C_23
REMARK    9  A    between atoms: C_26  and  N_29
REMARK                            x       y       z     vdW  Elec       q    Type
REMARK                         _______ _______ _______ _____ _____    ______ ____
ROOT
ATOM      1  C   UNL     1      -0.103  -4.976   0.480  0.00  0.00    +0.117 A 
ATOM      2  N   UNL     1      -0.776  -4.572   1.608  0.00  0.00    -0.339 N 
ATOM      3  H   UNL     1      -0.872  -3.659   1.922  0.00  0.00    +0.167 HD
ATOM      4  C   UNL     1      -1.283  -5.687   2.205  0.00  0.00    +0.072 A 
ATOM      5  C   UNL     1      -0.861  -6.823   1.339  0.00  0.00    +0.072 A 
ATOM      6  N   UNL     1      -0.170  -6.296   0.339  0.00  0.00    -0.339 N 
ATOM      7  H   UNL     1       0.230  -6.799  -0.387  0.00  0.00    +0.167 HD
ENDROOT
BRANCH   1  10
ATOM      8  C   UNL     1       1.251  -1.851  -1.077  0.00  0.00    +0.162 A 
ATOM      9  C   UNL     1       0.598  -2.691  -0.202  0.00  0.00    +0.061 A 
ATOM     10  C   UNL     1       0.587  -4.076  -0.443  0.00  0.00    +0.019 A 
ATOM     11  C   UNL     1       1.243  -4.594  -1.577  0.00  0.00    +0.015 A 
ATOM     12  C   UNL     1       1.887  -3.755  -2.437  0.00  0.00    +0.050 A 
ATOM     13  C   UNL     1       1.895  -2.380  -2.204  0.00  0.00    +0.158 A 
BRANCH  13  14
ATOM     14  O   UNL     1       2.532  -1.553  -3.067  0.00  0.00    -0.503 OA
ATOM     15  H   UNL     1       3.462  -1.400  -2.852  0.00  0.00    +0.292 HD
ENDBRANCH  13  14
BRANCH   8  16
ATOM     16  O   UNL     1       1.266  -0.511  -0.850  0.00  0.00    -0.489 OA
BRANCH  16  18
ATOM     17  C   UNL     1       0.714   1.480   0.404  0.00  0.00    +0.048 C 
ATOM     18  C   UNL     1       0.589  -0.043   0.318  0.00  0.00    +0.226 C 
ENDBRANCH  16  18
ENDBRANCH   8  16
ENDBRANCH   1  10
BRANCH   5  19
ATOM     19  C   UNL     1      -1.155  -8.242   1.549  0.00  0.00    +0.000 A 
ATOM     20  C   UNL     1      -2.464  -8.652   1.864  0.00  0.00    +0.010 A 
ATOM     21  C   UNL     1      -2.734  -9.973   2.059  0.00  0.00    +0.009 A 
ATOM     22  C   UNL     1      -1.711 -10.923   1.945  0.00  0.00    -0.018 A 
ATOM     23  C   UNL     1      -0.407 -10.519   1.631  0.00  0.00    +0.009 A 
ATOM     24  C   UNL     1      -0.131  -9.200   1.429  0.00  0.00    +0.010 A 
BRANCH  22  25
ATOM     25  C   UNL     1      -2.008 -12.356   2.158  0.00  0.00    -0.018 A 
ATOM     26  C   UNL     1      -3.308 -12.765   2.466  0.00  0.00    +0.011 A 
ATOM     27  C   UNL     1      -3.578 -14.103   2.663  0.00  0.00    +0.033 A 
ATOM     28  C   UNL     1      -2.564 -15.040   2.557  0.00  0.00    +0.126 A 
ATOM     29  C   UNL     1      -1.274 -14.641   2.252  0.00  0.00    +0.033 A 
ATOM     30  C   UNL     1      -0.991 -13.308   2.046  0.00  0.00    +0.011 A 
BRANCH  28  31
ATOM     31  N   UNL     1      -2.861 -16.474   2.770  0.00  0.00    +0.056 N 
ATOM     32  O   UNL     1      -4.088 -16.856   3.060  0.00  0.00    -0.126 OA
ATOM     33  O   UNL     1      -1.899 -17.368   2.669  0.00  0.00    -0.126 OA
ENDBRANCH  28  31
ENDBRANCH  22  25
ENDBRANCH   5  19
BRANCH   4  34
ATOM     34  C   UNL     1      -2.046  -5.752   3.392  0.00  0.00    +0.000 A 
ATOM     35  C   UNL     1      -1.727  -6.695   4.392  0.00  0.00    +0.010 A 
ATOM     36  C   UNL     1      -2.472  -6.748   5.535  0.00  0.00    +0.001 A 
ATOM     37  C   UNL     1      -3.540  -5.879   5.715  0.00  0.00    +0.000 A 
ATOM     38  C   UNL     1      -3.865  -4.948   4.737  0.00  0.00    +0.001 A 
ATOM     39  C   UNL     1      -3.131  -4.872   3.589  0.00  0.00    +0.010 A 
ENDBRANCH   4  34
TORSDOF 8
