REMARK  Name = ZINC00779959
REMARK  5 active torsions:
REMARK  status: ('A' for Active; 'I' for Inactive)
REMARK    1  A    between atoms: C_1  and  C_2
REMARK    2  A    between atoms: C_2  and  C_4
REMARK    3  A    between atoms: C_2  and  N_10
REMARK    4  A    between atoms: C_11  and  C_13
REMARK    5  A    between atoms: C_18  and  C_29
REMARK                            x       y       z     vdW  Elec       q    Type
REMARK                         _______ _______ _______ _____ _____    ______ ____
ROOT
ATOM      1  C   UNL     1      -1.847  -0.776   1.473  0.00  0.00    +0.168 C 
ATOM      2  C   UNL     1      -1.310  -0.747   0.014  0.00  0.00    +0.049 C 
ATOM      3  C   UNL     1      -1.082  -2.198  -0.430  0.00  0.00    +0.078 C 
ATOM      4  C   UNL     1       0.101  -2.745   0.378  0.00  0.00    +0.176 C 
ATOM      5  N   UNL     1      -0.118  -2.549   1.806  0.00  0.00    -0.278 N 
ATOM      6  C   UNL     1      -0.976  -1.664   2.316  0.00  0.00    +0.228 C 
ATOM      7  O   UNL     1      -1.057  -1.571   3.523  0.00  0.00    -0.275 OA
ATOM      8  O   UNL     1       1.276  -2.033  -0.025  0.00  0.00    -0.468 OA
ATOM      9  C   UNL     1       1.213  -0.675  -0.015  0.00  0.00    +0.127 A 
ATOM     10  C   UNL     1       0.002  -0.004   0.002  0.00  0.00    -0.001 A 
ATOM     11  C   UNL     1      -0.017   1.381   0.010  0.00  0.00    +0.007 A 
ATOM     12  C   UNL     1       1.166   2.094   0.002  0.00  0.00    +0.001 A 
ATOM     13  C   UNL     1       2.377   1.426  -0.014  0.00  0.00    +0.004 A 
ATOM     14  C   UNL     1       2.402   0.046  -0.022  0.00  0.00    +0.046 A 
ATOM     15  C   UNL     1       0.279  -4.236   0.085  0.00  0.00    +0.078 C 
ATOM     16  H   UNL     1       0.392  -3.095   2.424  0.00  0.00    +0.152 HD
ENDROOT
BRANCH   1  18
ATOM     17  N   UNL     1      -3.936  -1.436   2.621  0.00  0.00    -0.308 N 
ATOM     18  C   UNL     1      -3.254  -1.314   1.465  0.00  0.00    +0.226 C 
ATOM     19  O   UNL     1      -3.773  -1.638   0.417  0.00  0.00    -0.275 OA
ATOM     20  H   UNL     1      -3.521  -1.177   3.458  0.00  0.00    +0.149 HD
BRANCH  17  22
ATOM     21  C   UNL     1      -5.266  -3.489   2.644  0.00  0.00    +0.033 C 
ATOM     22  C   UNL     1      -5.304  -1.960   2.613  0.00  0.00    +0.100 C 
BRANCH  22  23
ATOM     23  C   UNL     1      -6.044  -1.450   3.823  0.00  0.00    -0.027 A 
ATOM     24  C   UNL     1      -5.403  -1.380   5.045  0.00  0.00    +0.005 A 
ATOM     25  C   UNL     1      -6.080  -0.908   6.155  0.00  0.00    +0.000 A 
ATOM     26  C   UNL     1      -7.402  -0.517   6.043  0.00  0.00    +0.000 A 
ATOM     27  C   UNL     1      -8.044  -0.593   4.822  0.00  0.00    +0.000 A 
ATOM     28  C   UNL     1      -7.365  -1.060   3.711  0.00  0.00    +0.005 A 
ENDBRANCH  22  23
ENDBRANCH  17  22
ENDBRANCH   1  18
TORSDOF 3
