REMARK  Name = ZINC08604631
REMARK  6 active torsions:
REMARK  status: ('A' for Active; 'I' for Inactive)
REMARK    1  A    between atoms: N_7  and  C_19
REMARK    2  A    between atoms: C_11  and  C_14
REMARK    3  A    between atoms: C_19  and  C_20
REMARK    4  A    between atoms: N_22  and  C_23
REMARK    5  A    between atoms: C_26  and  O_29
REMARK    6  A    between atoms: O_29  and  C_30
REMARK                            x       y       z     vdW  Elec       q    Type
REMARK                         _______ _______ _______ _____ _____    ______ ____
ROOT
ATOM      1  C   UNL     1      -0.038   1.369   0.021  0.00  0.00    +0.002 A 
ATOM      2  C   UNL     1       1.141   2.091   0.011  0.00  0.00    +0.001 A 
ATOM      3  C   UNL     1       2.360   1.436  -0.011  0.00  0.00    +0.016 A 
ATOM      4  C   UNL     1       2.393   0.051  -0.022  0.00  0.00    +0.030 A 
ATOM      5  C   UNL     1       1.206  -0.677  -0.009  0.00  0.00    +0.050 A 
ATOM      6  C   UNL     1      -0.011  -0.015   0.011  0.00  0.00    +0.024 A 
ATOM      7  N   UNL     1       1.257  -2.080  -0.016  0.00  0.00    -0.261 N 
ATOM      8  C   UNL     1       2.026  -2.732   0.865  0.00  0.00    +0.222 C 
ATOM      9  O   UNL     1       2.212  -3.922   0.725  0.00  0.00    -0.275 OA
ATOM     10  C   UNL     1       2.663  -2.018   2.021  0.00  0.00    +0.118 C 
ATOM     11  C   UNL     1       4.058  -1.500   1.631  0.00  0.00    +0.126 C 
ATOM     12  S   UNL     1       3.932  -0.810  -0.053  0.00  0.00    -0.112 S 
ENDROOT
BRANCH  11  13
ATOM     13  C   UNL     1       5.049  -2.635   1.649  0.00  0.00    +0.118 A 
ATOM     14  C   UNL     1       6.148  -2.708   2.422  0.00  0.00    +0.046 A 
ATOM     15  C   UNL     1       6.783  -3.933   2.116  0.00  0.00    +0.041 A 
ATOM     16  C   UNL     1       6.035  -4.536   1.175  0.00  0.00    +0.195 A 
ATOM     17  O   UNL     1       4.983  -3.748   0.900  0.00  0.00    -0.467 OA
ENDBRANCH  11  13
BRANCH   7  18
ATOM     18  C   UNL     1       0.465  -2.834  -0.990  0.00  0.00    +0.209 C 
BRANCH  18  19
ATOM     19  C   UNL     1       1.278  -3.048  -2.241  0.00  0.00    +0.235 C 
ATOM     20  O   UNL     1       2.409  -2.614  -2.311  0.00  0.00    -0.274 OA
ATOM     21  N   UNL     1       0.750  -3.723  -3.281  0.00  0.00    -0.284 N 
ATOM     22  H   UNL     1      -0.128  -4.128  -3.201  0.00  0.00    +0.155 HD
BRANCH  21  23
ATOM     23  C   UNL     1       1.468  -3.839  -4.478  0.00  0.00    +0.034 A 
ATOM     24  C   UNL     1       0.798  -3.829  -5.694  0.00  0.00    +0.027 A 
ATOM     25  C   UNL     1       1.507  -3.943  -6.874  0.00  0.00    +0.048 A 
ATOM     26  C   UNL     1       2.888  -4.068  -6.844  0.00  0.00    +0.130 A 
ATOM     27  C   UNL     1       3.558  -4.079  -5.630  0.00  0.00    +0.048 A 
ATOM     28  C   UNL     1       2.851  -3.959  -4.449  0.00  0.00    +0.027 A 
BRANCH  26  29
ATOM     29  O   UNL     1       3.585  -4.181  -8.006  0.00  0.00    -0.406 OA
BRANCH  29  30
ATOM     30  C   UNL     1       5.005  -4.306  -7.901  0.00  0.00    +0.575 C 
ATOM     31  F   UNL     1       5.319  -5.452  -7.162  0.00  0.00    -0.133 F 
ATOM     32  F   UNL     1       5.560  -4.411  -9.181  0.00  0.00    -0.133 F 
ATOM     33  F   UNL     1       5.527  -3.179  -7.258  0.00  0.00    -0.133 F 
ENDBRANCH  29  30
ENDBRANCH  26  29
ENDBRANCH  21  23
ENDBRANCH  18  19
ENDBRANCH   7  18
TORSDOF 6
