REMARK  Name = ZINC14472524
REMARK  5 active torsions:
REMARK  status: ('A' for Active; 'I' for Inactive)
REMARK    1  A    between atoms: C_4  and  C_10
REMARK    2  A    between atoms: C_6  and  N_7
REMARK    3  A    between atoms: C_21  and  S_26
REMARK    4  A    between atoms: S_26  and  N_29
REMARK    5  A    between atoms: N_29  and  C_30
REMARK                            x       y       z     vdW  Elec       q    Type
REMARK                         _______ _______ _______ _____ _____    ______ ____
ROOT
ATOM      1  C   UNL     1      -0.068   5.348   0.030  0.00  0.00    +0.106 C 
ATOM      2  C   UNL     1      -0.212   5.878  -1.386  0.00  0.00    +0.029 C 
ATOM      3  C   UNL     1      -1.544   5.614  -2.100  0.00  0.00    +0.033 C 
ATOM      4  C   UNL     1      -1.633   6.818  -3.040  0.00  0.00    -0.030 C 
ATOM      5  C   UNL     1      -0.938   7.834  -2.544  0.00  0.00    -0.023 C 
ATOM      6  C   UNL     1      -0.332   7.425  -1.240  0.00  0.00    +0.049 C 
ATOM      7  C   UNL     1       0.971   7.936  -0.761  0.00  0.00    -0.018 A 
ATOM      8  C   UNL     1       1.479   9.154  -1.157  0.00  0.00    +0.034 A 
ATOM      9  C   UNL     1       2.695   9.595  -0.671  0.00  0.00    +0.106 A 
ATOM     10  C   UNL     1       3.408   8.812   0.219  0.00  0.00    +0.030 A 
ATOM     11  C   UNL     1       2.910   7.589   0.619  0.00  0.00    +0.025 A 
ATOM     12  C   UNL     1       1.692   7.133   0.130  0.00  0.00    +0.031 A 
ATOM     13  N   UNL     1       1.224   5.873   0.522  0.00  0.00    -0.336 N 
ATOM     14  H   UNL     1       1.758   5.335   1.127  0.00  0.00    +0.147 HD
ENDROOT
BRANCH   1  18
ATOM     15  C   UNL     1      -0.012   1.076   0.007  0.00  0.00    +0.034 A 
ATOM     16  C   UNL     1      -0.260   1.757   1.185  0.00  0.00    +0.022 A 
ATOM     17  C   UNL     1      -0.272   3.140   1.194  0.00  0.00    +0.046 A 
ATOM     18  C   UNL     1      -0.048   3.841   0.022  0.00  0.00    -0.007 A 
ATOM     19  C   UNL     1       0.194   3.159  -1.155  0.00  0.00    +0.039 A 
ATOM     20  C   UNL     1       0.212   1.777  -1.163  0.00  0.00    +0.127 A 
ATOM     21 CL   UNL     1      -0.576   3.996   2.673  0.00  0.00    -0.083 Cl
BRANCH  20  22
ATOM     22  N   UNL     1       0.471   1.047  -2.424  0.00  0.00    +0.056 N 
ATOM     23  O   UNL     1       0.487  -0.171  -2.431  0.00  0.00    -0.126 OA
ATOM     24  O   UNL     1       0.669   1.664  -3.455  0.00  0.00    -0.126 OA
ENDBRANCH  20  22
ENDBRANCH   1  18
BRANCH   9  25
ATOM     25  S   UNL     1       3.338  11.153  -1.184  0.00  0.00    +0.059 S 
ATOM     26  O   UNL     1       4.747  11.090  -1.008  0.00  0.00    -0.153 OA
ATOM     27  O   UNL     1       2.740  11.446  -2.439  0.00  0.00    -0.153 OA
BRANCH  25  28
ATOM     28  N   UNL     1       2.778  12.289  -0.117  0.00  0.00    -0.187 NA
ATOM     29  H   UNL     1       2.174  12.984  -0.421  0.00  0.00    +0.148 HD
BRANCH  28  30
ATOM     30  C   UNL     1       3.196  12.245   1.286  0.00  0.00    +0.077 C 
ATOM     31  C   UNL     1       2.150  11.488   2.107  0.00  0.00    +0.020 C 
ATOM     32  C   UNL     1       2.586  11.442   3.572  0.00  0.00    +0.002 C 
ATOM     33  C   UNL     1       2.722  12.868   4.110  0.00  0.00    +0.000 C 
ATOM     34  C   UNL     1       3.769  13.624   3.289  0.00  0.00    +0.002 C 
ATOM     35  C   UNL     1       3.333  13.671   1.824  0.00  0.00    +0.020 C 
ENDBRANCH  28  30
ENDBRANCH  25  28
ENDBRANCH   9  25
TORSDOF 5
