REMARK  Name = ZINC39675461
REMARK  10 active torsions:
REMARK  status: ('A' for Active; 'I' for Inactive)
REMARK    1  A    between atoms: C_1  and  C_2
REMARK    2  A    between atoms: C_2  and  C_4
REMARK    3  A    between atoms: C_2  and  N_14
REMARK    4  A    between atoms: C_4  and  C_5
REMARK    5  A    between atoms: C_5  and  C_6
REMARK    6  A    between atoms: C_9  and  O_12
REMARK    7  A    between atoms: O_12  and  C_13
REMARK    8  A    between atoms: C_15  and  C_17
REMARK    9  A    between atoms: C_28  and  C_30
REMARK   10  A    between atoms: C_33  and  C_35
REMARK                            x       y       z     vdW  Elec       q    Type
REMARK                         _______ _______ _______ _____ _____    ______ ____
ROOT
ATOM      1  C   UNL     1       2.565  -1.234   2.459  0.00  0.00    +0.100 C 
ATOM      2  C   UNL     1       2.292  -2.754   2.506  0.00  0.00    +0.121 C 
ATOM      3  N   UNL     1       3.548  -3.375   2.022  0.00  0.00    -0.294 N 
ATOM      4  C   UNL     1       4.623  -2.551   2.625  0.00  0.00    +0.115 C 
ATOM      5  C   UNL     1       4.096  -1.105   2.542  0.00  0.00    -0.004 C 
ATOM      6  C   UNL     1       4.494  -0.325   3.791  0.00  0.00    -0.010 C 
ATOM      7  C   UNL     1       6.016  -0.159   3.821  0.00  0.00    -0.082 C 
ATOM      8  N   UNL     1       6.456   0.552   2.614  0.00  0.00    +0.379 N 
ATOM      9  C   UNL     1       6.152  -0.249   1.422  0.00  0.00    -0.082 C 
ATOM     10  C   UNL     1       4.636  -0.418   1.291  0.00  0.00    -0.010 C 
ATOM     11  C   UNL     1       3.682  -4.446   1.216  0.00  0.00    +0.282 C 
ATOM     12  O   UNL     1       4.789  -4.893   0.977  0.00  0.00    -0.267 OA
ATOM     13  H   UNL     1       5.976   1.438   2.554  0.00  0.00    -0.086 HD
ATOM     14  H   UNL     1       7.450   0.714   2.665  0.00  0.00    -0.086 HD
ENDROOT
BRANCH  11  15
ATOM     15  C   UNL     1       2.496  -5.074   0.627  0.00  0.00    +0.190 A 
ATOM     16  C   UNL     1       2.481  -6.226  -0.128  0.00  0.00    +0.055 A 
ATOM     17  C   UNL     1       1.148  -6.459  -0.482  0.00  0.00    +0.050 A 
ATOM     18  C   UNL     1       0.406  -5.452   0.065  0.00  0.00    +0.136 A 
ATOM     19  O   UNL     1       1.227  -4.627   0.735  0.00  0.00    -0.450 OA
BRANCH  18  20
ATOM     20  C   UNL     1      -1.058  -5.299  -0.056  0.00  0.00    +0.017 A 
ATOM     21  C   UNL     1      -1.819  -6.291  -0.679  0.00  0.00    +0.011 A 
ATOM     22  C   UNL     1      -3.186  -6.141  -0.787  0.00  0.00    +0.001 A 
ATOM     23  C   UNL     1      -3.804  -5.011  -0.281  0.00  0.00    +0.000 A 
ATOM     24  C   UNL     1      -3.056  -4.024   0.337  0.00  0.00    +0.001 A 
ATOM     25  C   UNL     1      -1.689  -4.163   0.458  0.00  0.00    +0.011 A 
ENDBRANCH  18  20
ENDBRANCH  11  15
BRANCH   1  27
ATOM     26  N   UNL     1       1.689   0.646   1.112  0.00  0.00    -0.312 N 
ATOM     27  C   UNL     1       2.058  -0.649   1.166  0.00  0.00    +0.218 C 
ATOM     28  O   UNL     1       1.982  -1.343   0.175  0.00  0.00    -0.275 OA
ATOM     29  H   UNL     1       1.818   1.220   1.883  0.00  0.00    +0.149 HD
BRANCH  26  31
ATOM     30  C   UNL     1       2.203   1.672  -1.048  0.00  0.00    +0.028 C 
ATOM     31  C   UNL     1       1.094   1.187  -0.113  0.00  0.00    +0.070 C 
BRANCH  31  32
ATOM     32  C   UNL     1       0.176   2.360   0.241  0.00  0.00    +0.026 C 
BRANCH  32  33
ATOM     33  C   UNL     1      -1.006   1.850   1.068  0.00  0.00    +0.037 C 
BRANCH  33  34
ATOM     34  C   UNL     1      -1.971   2.981   1.314  0.00  0.00    -0.047 A 
ATOM     35  C   UNL     1      -1.883   3.724   2.477  0.00  0.00    +0.007 A 
ATOM     36  C   UNL     1      -2.766   4.761   2.705  0.00  0.00    +0.046 A 
ATOM     37  C   UNL     1      -3.743   5.057   1.766  0.00  0.00    +0.120 A 
ATOM     38  C   UNL     1      -3.829   4.311   0.599  0.00  0.00    +0.046 A 
ATOM     39  C   UNL     1      -2.940   3.279   0.373  0.00  0.00    +0.007 A 
BRANCH  37  40
ATOM     40  O   UNL     1      -4.614   6.077   1.988  0.00  0.00    -0.495 OA
ATOM     41  C   UNL     1      -5.593   6.325   0.977  0.00  0.00    +0.277 C 
ENDBRANCH  37  40
ENDBRANCH  33  34
ENDBRANCH  32  33
ENDBRANCH  31  32
ENDBRANCH  26  31
ENDBRANCH   1  27
TORSDOF 8
