REMARK  Name = ZINC16769368
REMARK  8 active torsions:
REMARK  status: ('A' for Active; 'I' for Inactive)
REMARK    1  A    between atoms: C_1  and  C_2
REMARK    2  A    between atoms: C_10  and  C_11
REMARK    3  A    between atoms: C_11  and  O_13
REMARK    4  A    between atoms: O_13  and  C_14
REMARK    5  A    between atoms: C_14  and  C_16
REMARK    6  A    between atoms: C_14  and  C_17
REMARK    7  A    between atoms: N_19  and  C_20
REMARK    8  A    between atoms: C_21  and  C_25
REMARK                            x       y       z     vdW  Elec       q    Type
REMARK                         _______ _______ _______ _____ _____    ______ ____
ROOT
ATOM      1  C   UNL     1       5.657  -0.577  -0.053  0.00  0.00    +0.259 C 
ATOM      2  C   UNL     1       6.180  -0.581   1.385  0.00  0.00    +0.062 C 
ENDROOT
BRANCH   1   3
ATOM      3  C   UNL     1       6.162  -1.799  -0.775  0.00  0.00    +0.258 C 
ATOM      4  O   UNL     1       5.376  -2.601  -1.233  0.00  0.00    -0.271 OA
ATOM      5  N   UNL     1       7.488  -2.002  -0.911  0.00  0.00    -0.276 N 
ATOM      6  H   UNL     1       8.116  -1.360  -0.545  0.00  0.00    +0.155 HD
BRANCH   5   7
ATOM      7  C   UNL     1       7.953  -3.126  -1.575  0.00  0.00    +0.084 A 
ATOM      8  C   UNL     1       9.268  -3.502  -1.819  0.00  0.00    +0.065 A 
ATOM      9  C   UNL     1       9.467  -4.738  -2.539  0.00  0.00    +0.022 A 
ATOM     10  C   UNL     1       8.367  -5.412  -2.918  0.00  0.00    +0.048 A 
ATOM     11  S   UNL     1       7.035  -4.399  -2.308  0.00  0.00    -0.081 S 
BRANCH   8  12
ATOM     12  C   UNL     1      10.399  -2.686  -1.366  0.00  0.00    +0.244 C 
ATOM     13  O   UNL     1      10.197  -1.651  -0.759  0.00  0.00    -0.270 OA
ATOM     14  N   UNL     1      11.661  -3.082  -1.621  0.00  0.00    -0.325 N 
ATOM     15  H   UNL     1      11.822  -3.907  -2.104  0.00  0.00    +0.145 HD
ATOM     16  H   UNL     1      12.409  -2.542  -1.321  0.00  0.00    +0.145 HD
ENDBRANCH   8  12
ENDBRANCH   5   7
ENDBRANCH   1   3
BRANCH   1  17
ATOM     17  O   UNL     1       4.205  -0.588  -0.040  0.00  0.00    -0.447 OA
BRANCH  17  18
ATOM     18  C   UNL     1       3.583   0.609  -0.028  0.00  0.00    +0.376 C 
ATOM     19  O   UNL     1       4.237   1.633  -0.029  0.00  0.00    -0.241 OA
BRANCH  18  29
ATOM     20  C   UNL     1       1.911   3.231   0.001  0.00  0.00    +0.048 C 
ATOM     21  C   UNL     1       1.385   1.819  -0.001  0.00  0.00    +0.010 A 
ATOM     22  C   UNL     1      -0.017   1.403   0.010  0.00  0.00    +0.025 A 
ATOM     23  C   UNL     1      -1.235   2.087   0.030  0.00  0.00    +0.027 A 
ATOM     24  C   UNL     1      -2.407   1.384   0.034  0.00  0.00    +0.019 A 
ATOM     25  C   UNL     1      -2.394  -0.005   0.026  0.00  0.00    +0.019 A 
ATOM     26  C   UNL     1      -1.203  -0.698   0.010  0.00  0.00    +0.048 A 
ATOM     27  C   UNL     1       0.002  -0.004   0.002  0.00  0.00    +0.136 A 
ATOM     28  O   UNL     1       1.292  -0.394  -0.012  0.00  0.00    -0.448 OA
ATOM     29  C   UNL     1       2.117   0.674  -0.015  0.00  0.00    +0.216 A 
ATOM     30 BR   UNL     1      -4.057   2.307   0.056  0.00  0.00    -0.050 Br
ENDBRANCH  18  29
ENDBRANCH  17  18
ENDBRANCH   1  17
TORSDOF 6
