REMARK  Name = ZINC13401697
REMARK  8 active torsions:
REMARK  status: ('A' for Active; 'I' for Inactive)
REMARK    1  A    between atoms: C_2  and  C_3
REMARK    2  A    between atoms: C_3  and  N_4
REMARK    3  A    between atoms: N_4  and  S_5
REMARK    4  A    between atoms: S_5  and  C_8
REMARK    5  A    between atoms: C_11  and  C_14
REMARK    6  A    between atoms: N_19  and  S_22
REMARK    7  A    between atoms: S_22  and  C_25
REMARK    8  A    between atoms: C_27  and  C_30
REMARK                            x       y       z     vdW  Elec       q    Type
REMARK                         _______ _______ _______ _____ _____    ______ ____
ROOT
ATOM      1  C   UNL     1      -3.120   3.066   4.885  0.00  0.00    +0.247 C 
ATOM      2  O   UNL     1      -4.004   2.350   5.314  0.00  0.00    -0.270 OA
ATOM      3  N   UNL     1      -2.849   4.239   5.491  0.00  0.00    -0.295 N 
ATOM      4  C   UNL     1      -1.870   5.171   4.914  0.00  0.00    +0.125 C 
ATOM      5  C   UNL     1      -2.554   6.535   4.722  0.00  0.00    +0.128 C 
ATOM      6  N   UNL     1      -3.227   6.902   5.976  0.00  0.00    -0.173 NA
ATOM      7  C   UNL     1      -4.202   5.968   6.556  0.00  0.00    +0.128 C 
ATOM      8  C   UNL     1      -3.523   4.606   6.745  0.00  0.00    +0.125 C 
ENDROOT
BRANCH   1  12
ATOM      9  C   UNL     1      -0.888   1.875   1.473  0.00  0.00    +0.105 A 
ATOM     10  C   UNL     1      -0.240   2.436   2.559  0.00  0.00    +0.029 A 
ATOM     11  C   UNL     1      -0.960   2.830   3.668  0.00  0.00    +0.015 A 
ATOM     12  C   UNL     1      -2.343   2.651   3.697  0.00  0.00    +0.037 A 
ATOM     13  C   UNL     1      -2.991   2.079   2.601  0.00  0.00    +0.015 A 
ATOM     14  C   UNL     1      -2.260   1.694   1.496  0.00  0.00    +0.029 A 
BRANCH   9  15
ATOM     15  S   UNL     1       0.038   1.381   0.057  0.00  0.00    +0.059 S 
ATOM     16  O   UNL     1      -0.727   0.380  -0.599  0.00  0.00    -0.153 OA
ATOM     17  O   UNL     1       1.368   1.155   0.501  0.00  0.00    -0.153 OA
BRANCH  15  18
ATOM     18  N   UNL     1       0.095   2.681  -0.968  0.00  0.00    -0.186 NA
ATOM     19  H   UNL     1      -0.337   2.634  -1.835  0.00  0.00    +0.148 HD
BRANCH  18  20
ATOM     20  C   UNL     1       0.799   3.901  -0.565  0.00  0.00    +0.132 C 
BRANCH  20  22
ATOM     21  C   UNL     1       0.605   6.014  -1.774  0.00  0.00    +0.005 C 
ATOM     22  C   UNL     1       1.025   4.773  -1.773  0.00  0.00    -0.018 C 
ENDBRANCH  20  22
ENDBRANCH  18  20
ENDBRANCH  15  18
ENDBRANCH   9  15
ENDBRANCH   1  12
BRANCH   6  23
ATOM     23  S   UNL     1      -2.893   8.343   6.722  0.00  0.00    +0.067 S 
ATOM     24  O   UNL     1      -2.403   9.217   5.715  0.00  0.00    -0.152 OA
ATOM     25  O   UNL     1      -4.026   8.659   7.520  0.00  0.00    -0.152 OA
BRANCH  23  26
ATOM     26  C   UNL     1      -1.557   8.056   7.834  0.00  0.00    +0.143 A 
ATOM     27  C   UNL     1      -0.235   8.151   7.596  0.00  0.00    +0.051 A 
ATOM     28  C   UNL     1       0.652   7.862   8.696  0.00  0.00    +0.072 A 
ATOM     29  C   UNL     1       0.068   7.503   9.894  0.00  0.00    +0.062 A 
ATOM     30  S   UNL     1      -1.626   7.562   9.544  0.00  0.00    -0.076 S 
BRANCH  28  31
ATOM     31  C   UNL     1       2.112   7.940   8.546  0.00  0.00    +0.387 C 
ATOM     32  O   UNL     1       2.598   8.260   7.478  0.00  0.00    -0.241 OA
ATOM     33  O   UNL     1       2.914   7.658   9.592  0.00  0.00    -0.241 OA
ENDBRANCH  28  31
ENDBRANCH  23  26
ENDBRANCH   6  23
TORSDOF 8
