REMARK  Name = ZINC01062026
REMARK  5 active torsions:
REMARK  status: ('A' for Active; 'I' for Inactive)
REMARK    1  A    between atoms: C_3  and  C_10
REMARK    2  A    between atoms: C_5  and  N_7
REMARK    3  A    between atoms: C_13  and  C_24
REMARK    4  A    between atoms: C_19  and  N_23
REMARK    5  A    between atoms: C_20  and  C_21
REMARK                            x       y       z     vdW  Elec       q    Type
REMARK                         _______ _______ _______ _____ _____    ______ ____
ROOT
ATOM      1  C   UNL     1       3.672   2.182  -0.022  0.00  0.00    +0.102 C 
ATOM      2  C   UNL     1       3.727   3.068  -1.240  0.00  0.00    +0.058 A 
ATOM      3  C   UNL     1       3.912   2.722  -2.571  0.00  0.00    +0.173 A 
ATOM      4  N   UNL     1       3.888   3.823  -3.285  0.00  0.00    -0.167 NA
ATOM      5  N   UNL     1       3.685   4.909  -2.420  0.00  0.00    -0.246 N 
ATOM      6  H   UNL     1       3.624   5.842  -2.678  0.00  0.00    +0.192 HD
ATOM      7  C   UNL     1       3.590   4.427  -1.170  0.00  0.00    +0.223 A 
ATOM      8  O   UNL     1       3.396   5.084   0.000  0.00  0.00    -0.423 OA
ATOM      9  C   UNL     1       3.613   4.402   1.143  0.00  0.00    +0.200 C 
ATOM     10  C   UNL     1       3.751   3.058   1.203  0.00  0.00    +0.098 C 
ENDROOT
BRANCH   1  13
ATOM     11  C   UNL     1      -0.017   1.378   0.010  0.00  0.00    +0.003 A 
ATOM     12  C   UNL     1       1.171   2.085   0.002  0.00  0.00    +0.005 A 
ATOM     13  C   UNL     1       2.377   1.411  -0.013  0.00  0.00    -0.032 A 
ATOM     14  C   UNL     1       2.396   0.028  -0.020  0.00  0.00    +0.037 A 
ATOM     15  C   UNL     1       1.209  -0.679  -0.012  0.00  0.00    +0.126 A 
ATOM     16  C   UNL     1       0.002  -0.004   0.002  0.00  0.00    +0.033 A 
BRANCH  15  17
ATOM     17  N   UNL     1       1.229  -2.159  -0.020  0.00  0.00    +0.056 N 
ATOM     18  O   UNL     1       2.284  -2.749  -0.035  0.00  0.00    -0.126 OA
ATOM     19  O   UNL     1       0.190  -2.778  -0.013  0.00  0.00    -0.126 OA
ENDBRANCH  15  17
ENDBRANCH   1  13
BRANCH   3  20
ATOM     20  C   UNL     1       4.108   1.326  -3.104  0.00  0.00    +0.436 C 
ATOM     21  F   UNL     1       2.864   0.768  -3.417  0.00  0.00    -0.164 F 
ATOM     22  F   UNL     1       4.901   1.373  -4.255  0.00  0.00    -0.164 F 
ATOM     23  F   UNL     1       4.740   0.541  -2.134  0.00  0.00    -0.164 F 
ENDBRANCH   3  20
BRANCH   9  24
ATOM     24  N   UNL     1       3.696   5.113   2.314  0.00  0.00    -0.328 N 
ATOM     25  H   UNL     1       3.600   6.078   2.304  0.00  0.00    +0.145 HD
ATOM     26  H   UNL     1       3.852   4.650   3.153  0.00  0.00    +0.145 HD
ENDBRANCH   9  24
BRANCH  10  27
ATOM     27  C   UNL     1       3.983   2.443   2.476  0.00  0.00    +0.101 C 
ATOM     28  N   UNL     1       4.167   1.956   3.485  0.00  0.00    -0.191 NA
ENDBRANCH  10  27
TORSDOF 5
