REMARK  Name = ZINC50197632
REMARK  10 active torsions:
REMARK  status: ('A' for Active; 'I' for Inactive)
REMARK    1  A    between atoms: C_1  and  C_2
REMARK    2  A    between atoms: C_2  and  C_3
REMARK    3  A    between atoms: C_2  and  C_4
REMARK    4  A    between atoms: C_4  and  N_5
REMARK    5  A    between atoms: C_6  and  C_8
REMARK    6  A    between atoms: C_8  and  N_9
REMARK    7  A    between atoms: C_10  and  C_12
REMARK    8  A    between atoms: N_14  and  C_15
REMARK    9  A    between atoms: C_20  and  S_21
REMARK   10  A    between atoms: S_21  and  C_22
REMARK                            x       y       z     vdW  Elec       q    Type
REMARK                         _______ _______ _______ _____ _____    ______ ____
ROOT
ATOM      1  C   UNL     1      -5.564  -6.530  -0.353  0.00  0.00    +0.303 C 
ATOM      2  O   UNL     1      -6.495  -5.758  -0.245  0.00  0.00    -0.265 OA
ATOM      3  N   UNL     1      -5.794  -7.854  -0.454  0.00  0.00    -0.277 N 
ATOM      4  H   UNL     1      -5.056  -8.464  -0.606  0.00  0.00    +0.155 HD
ENDROOT
BRANCH   3   5
ATOM      5  C   UNL     1      -7.098  -8.348  -0.339  0.00  0.00    +0.048 A 
ATOM      6  C   UNL     1      -8.167  -7.610  -0.825  0.00  0.00    +0.024 A 
ATOM      7  C   UNL     1      -9.454  -8.100  -0.710  0.00  0.00    +0.002 A 
ATOM      8  C   UNL     1      -9.681  -9.326  -0.112  0.00  0.00    +0.001 A 
ATOM      9  C   UNL     1      -8.623 -10.069   0.375  0.00  0.00    +0.017 A 
ATOM     10  C   UNL     1      -7.326  -9.588   0.260  0.00  0.00    +0.037 A 
BRANCH  10  11
ATOM     11  S   UNL     1      -5.974 -10.536   0.873  0.00  0.00    -0.014 S 
BRANCH  11  12
ATOM     12  C   UNL     1      -6.754 -12.031   1.543  0.00  0.00    +0.448 C 
ATOM     13  F   UNL     1      -7.443 -12.695   0.522  0.00  0.00    -0.160 F 
ATOM     14  F   UNL     1      -5.769 -12.876   2.067  0.00  0.00    -0.160 F 
ATOM     15  F   UNL     1      -7.650 -11.675   2.556  0.00  0.00    -0.160 F 
ENDBRANCH  11  12
ENDBRANCH  10  11
ENDBRANCH   3   5
BRANCH   1  17
ATOM     16  N   UNL     1      -3.934  -4.687  -0.275  0.00  0.00    -0.299 N 
ATOM     17  C   UNL     1      -4.164  -6.011  -0.375  0.00  0.00    +0.300 C 
ATOM     18  O   UNL     1      -3.233  -6.782  -0.484  0.00  0.00    -0.265 OA
ATOM     19  H   UNL     1      -4.678  -4.071  -0.188  0.00  0.00    +0.150 HD
BRANCH  16  20
ATOM     20  C   UNL     1      -2.560  -4.178  -0.296  0.00  0.00    +0.200 C 
BRANCH  20  22
ATOM     21  N   UNL     1      -1.421  -1.987  -0.165  0.00  0.00    -0.314 N 
ATOM     22  C   UNL     1      -2.579  -2.677  -0.169  0.00  0.00    +0.230 C 
ATOM     23  O   UNL     1      -3.635  -2.090  -0.070  0.00  0.00    -0.274 OA
ATOM     24  H   UNL     1      -0.576  -2.457  -0.244  0.00  0.00    +0.149 HD
BRANCH  21  25
ATOM     25  C   UNL     1      -1.438  -0.527  -0.042  0.00  0.00    +0.107 C 
BRANCH  25  27
ATOM     26  C   UNL     1      -0.026   1.534  -0.061  0.00  0.00    +0.009 C 
ATOM     27  C   UNL     1      -0.004   0.004  -0.064  0.00  0.00    -0.000 C 
ATOM     28  C   UNL     1       0.745  -0.498   1.172  0.00  0.00    +0.009 C 
ENDBRANCH  25  27
ENDBRANCH  21  25
ENDBRANCH  20  22
ENDBRANCH  16  20
ENDBRANCH   1  17
TORSDOF 8
