REMARK  Name = ZINC20920972
REMARK  13 active torsions:
REMARK  status: ('A' for Active; 'I' for Inactive)
REMARK    1  A    between atoms: C_1  and  C_2
REMARK    2  A    between atoms: C_2  and  C_3
REMARK    3  A    between atoms: C_2  and  N_4
REMARK    4  A    between atoms: C_6  and  C_9
REMARK    5  A    between atoms: N_10  and  N_11
REMARK    6  A    between atoms: C_15  and  S_18
REMARK    7  A    between atoms: N_16  and  N_17
REMARK    8  A    between atoms: S_18  and  C_19
REMARK    9  A    between atoms: C_19  and  C_20
REMARK   10  A    between atoms: N_22  and  C_23
REMARK   11  A    between atoms: C_28  and  S_29
REMARK   12  A    between atoms: S_29  and  C_30
REMARK   13  A    between atoms: C_30  and  C_31
REMARK                            x       y       z     vdW  Elec       q    Type
REMARK                         _______ _______ _______ _____ _____    ______ ____
ROOT
ATOM      1  N   UNL     1      -0.010   0.963  -0.060  0.00  0.00    -0.204 N 
ATOM      2  C   UNL     1       1.182   1.673  -0.057  0.00  0.00    +0.254 A 
ATOM      3  N   UNL     1       1.300   2.979  -0.054  0.00  0.00    -0.109 NA
ATOM      4  N   UNL     1       2.667   3.289  -0.049  0.00  0.00    -0.119 NA
ATOM      5  C   UNL     1       3.338   2.163  -0.057  0.00  0.00    +0.210 A 
ATOM      6  N   UNL     1       2.438   1.135  -0.063  0.00  0.00    -0.211 N 
ATOM      7  H   UNL     1       0.005  -0.137  -0.062  0.00  0.00    +0.177 HD
ENDROOT
BRANCH   6   8
ATOM      8  N   UNL     1       2.741  -0.197  -0.071  0.00  0.00    -0.294 N 
ATOM      9  H   UNL     1       3.792  -0.522  -0.075  0.00  0.00    +0.163 HD
ATOM     10  H   UNL     1       1.934  -0.945  -0.075  0.00  0.00    +0.163 HD
ENDBRANCH   6   8
BRANCH   1  12
ATOM     11  C   UNL     1      -2.348   0.982  -0.067  0.00  0.00    +0.141 C 
ATOM     12  N   UNL     1      -1.233   1.647  -0.059  0.00  0.00    -0.187 NA
BRANCH  11  15
ATOM     13  N   UNL     1      -5.790   2.137  -0.070  0.00  0.00    -0.268 N 
ATOM     14  C   UNL     1      -4.890   1.132  -0.074  0.00  0.00    +0.118 A 
ATOM     15  C   UNL     1      -3.636   1.702  -0.066  0.00  0.00    +0.032 A 
ATOM     16  C   UNL     1      -3.812   3.103  -0.051  0.00  0.00    +0.143 A 
ATOM     17  N   UNL     1      -5.094   3.351  -0.060  0.00  0.00    -0.179 NA
BRANCH  13  19
ATOM     18  C   UNL     1      -7.736   1.815  -1.516  0.00  0.00    +0.032 C 
ATOM     19  C   UNL     1      -7.247   1.984  -0.076  0.00  0.00    +0.101 C 
ATOM     20  C   UNL     1      -7.633   0.750   0.742  0.00  0.00    +0.032 C 
ENDBRANCH  13  19
ENDBRANCH  11  15
ENDBRANCH   1  12
BRANCH   5  21
ATOM     21  S   UNL     1       5.093   2.003  -0.062  0.00  0.00    -0.075 S 
BRANCH  21  22
ATOM     22  C   UNL     1       5.690   3.716  -0.051  0.00  0.00    +0.173 C 
BRANCH  22  23
ATOM     23  C   UNL     1       7.197   3.723  -0.054  0.00  0.00    +0.228 C 
ATOM     24  O   UNL     1       7.808   2.676  -0.063  0.00  0.00    -0.275 OA
ATOM     25  N   UNL     1       7.865   4.894  -0.048  0.00  0.00    -0.284 N 
ATOM     26  H   UNL     1       7.313   5.843  -0.114  0.00  0.00    +0.155 HD
BRANCH  25  27
ATOM     27  C   UNL     1       9.263   4.902   0.044  0.00  0.00    +0.047 A 
ATOM     28  C   UNL     1      10.005   3.898  -0.559  0.00  0.00    +0.024 A 
ATOM     29  C   UNL     1      11.385   3.910  -0.472  0.00  0.00    +0.002 A 
ATOM     30  C   UNL     1      12.029   4.916   0.225  0.00  0.00    +0.001 A 
ATOM     31  C   UNL     1      11.298   5.918   0.835  0.00  0.00    +0.016 A 
ATOM     32  C   UNL     1       9.912   5.916   0.748  0.00  0.00    +0.029 A 
BRANCH  32  33
ATOM     33  S   UNL     1       8.977   7.192   1.524  0.00  0.00    -0.119 S 
BRANCH  33  34
ATOM     34  C   UNL     1      10.233   8.250   2.294  0.00  0.00    +0.101 C 
BRANCH  34  35
ATOM     35  C   UNL     1       9.558   9.397   3.002  0.00  0.00    -0.024 C 
ATOM     36  C   UNL     1       9.639   9.501   4.306  0.00  0.00    +0.005 C 
ENDBRANCH  34  35
ENDBRANCH  33  34
ENDBRANCH  32  33
ENDBRANCH  25  27
ENDBRANCH  22  23
ENDBRANCH  21  22
ENDBRANCH   5  21
TORSDOF 11
