REMARK  Name = ZINC38506858
REMARK  13 active torsions:
REMARK  status: ('A' for Active; 'I' for Inactive)
REMARK    1  A    between atoms: C_1  and  C_2
REMARK    2  A    between atoms: C_2  and  O_3
REMARK    3  A    between atoms: O_3  and  C_4
REMARK    4  A    between atoms: C_4  and  C_6
REMARK    5  A    between atoms: C_10  and  N_11
REMARK    6  A    between atoms: C_12  and  C_14
REMARK    7  A    between atoms: N_18  and  C_19
REMARK    8  A    between atoms: C_19  and  C_20
REMARK    9  A    between atoms: C_19  and  C_21
REMARK   10  A    between atoms: C_22  and  C_28
REMARK   11  A    between atoms: C_22  and  C_29
REMARK   12  A    between atoms: C_24  and  C_26
REMARK   13  A    between atoms: C_24  and  C_27
REMARK                            x       y       z     vdW  Elec       q    Type
REMARK                         _______ _______ _______ _____ _____    ______ ____
ROOT
ATOM      1  C   UNL     1       1.450  -2.340  -2.519  0.00  0.00    +0.091 A 
ATOM      2  C   UNL     1       2.871  -2.610  -2.537  0.00  0.00    -0.024 A 
ATOM      3  C   UNL     1       3.336  -3.103  -3.708  0.00  0.00    -0.016 A 
ATOM      4  S   UNL     1       1.905  -3.208  -4.741  0.00  0.00    -0.079 S 
ATOM      5  C   UNL     1       0.743  -2.616  -3.684  0.00  0.00    +0.087 A 
ATOM      6  C   UNL     1       4.752  -3.457  -4.020  0.00  0.00    -0.041 C 
ATOM      7  N   UNL     1       5.614  -3.382  -2.841  0.00  0.00    +0.389 N 
ATOM      8  C   UNL     1       4.954  -3.459  -1.545  0.00  0.00    -0.069 C 
ATOM      9  C   UNL     1       3.853  -2.402  -1.395  0.00  0.00    +0.024 C 
ATOM     10  C   UNL     1       4.361  -4.849  -1.307  0.00  0.00    -0.010 C 
ATOM     11  C   UNL     1       6.007  -3.201  -0.450  0.00  0.00    -0.010 C 
ATOM     12  C   UNL     1       4.806  -4.864  -4.631  0.00  0.00    -0.005 C 
ATOM     13  C   UNL     1       5.275  -2.464  -5.077  0.00  0.00    -0.005 C 
ATOM     14  H   UNL     1       6.309  -4.128  -2.898  0.00  0.00    -0.084 HD
ATOM     15  H   UNL     1       6.144  -2.509  -2.883  0.00  0.00    -0.084 HD
ENDROOT
BRANCH   5  16
ATOM     16  N   UNL     1      -0.611  -2.441  -3.917  0.00  0.00    -0.274 N 
ATOM     17  C   UNL     1      -1.135  -2.764  -5.115  0.00  0.00    +0.267 C 
ATOM     18  O   UNL     1      -0.407  -3.120  -6.022  0.00  0.00    -0.268 OA
ATOM     19  H   UNL     1      -1.182  -2.087  -3.217  0.00  0.00    +0.156 HD
BRANCH  17  20
ATOM     20  C   UNL     1      -2.589  -2.688  -5.327  0.00  0.00    +0.124 A 
ATOM     21  C   UNL     1      -3.534  -2.210  -4.436  0.00  0.00    +0.054 A 
ATOM     22  C   UNL     1      -4.761  -2.343  -5.090  0.00  0.00    +0.135 A 
ATOM     23  N   UNL     1      -4.532  -2.860  -6.271  0.00  0.00    -0.179 NA
ATOM     24  N   UNL     1      -3.276  -3.068  -6.445  0.00  0.00    -0.257 N 
BRANCH  24  25
ATOM     25  C   UNL     1      -2.674  -3.631  -7.655  0.00  0.00    +0.102 C 
ATOM     26  C   UNL     1      -3.338  -4.971  -7.981  0.00  0.00    +0.032 C 
ATOM     27  C   UNL     1      -2.877  -2.664  -8.824  0.00  0.00    +0.032 C 
ENDBRANCH  24  25
ENDBRANCH  17  20
ENDBRANCH   5  16
BRANCH   1  28
ATOM     28  C   UNL     1       0.777  -1.797  -1.337  0.00  0.00    +0.342 C 
ATOM     29  O   UNL     1       0.314  -2.551  -0.502  0.00  0.00    -0.245 OA
BRANCH  28  30
ATOM     30  O   UNL     1       0.672  -0.463  -1.174  0.00  0.00    -0.461 OA
BRANCH  30  32
ATOM     31  C   UNL     1      -0.018   1.526   0.013  0.00  0.00    +0.048 C 
ATOM     32  C   UNL     1       0.003  -0.004   0.003  0.00  0.00    +0.229 C 
ENDBRANCH  30  32
ENDBRANCH  28  30
ENDBRANCH   1  28
TORSDOF 6
