REMARK  Name = ZINC20704149
REMARK  6 active torsions:
REMARK  status: ('A' for Active; 'I' for Inactive)
REMARK    1  A    between atoms: C_1  and  O_2
REMARK    2  A    between atoms: O_2  and  C_3
REMARK    3  A    between atoms: C_6  and  O_29
REMARK    4  A    between atoms: C_16  and  C_19
REMARK    5  A    between atoms: C_23  and  N_25
REMARK    6  A    between atoms: O_29  and  C_30
REMARK                            x       y       z     vdW  Elec       q    Type
REMARK                         _______ _______ _______ _____ _____    ______ ____
ROOT
ATOM      1  C   UNL     1       6.655   0.526   0.505  0.00  0.00    +0.126 A 
ATOM      2  C   UNL     1       7.546   1.099  -0.390  0.00  0.00    +0.049 A 
ATOM      3  C   UNL     1       7.064   1.856  -1.442  0.00  0.00    +0.051 A 
ATOM      4  C   UNL     1       5.706   2.048  -1.598  0.00  0.00    +0.141 A 
ATOM      5  C   UNL     1       4.794   1.481  -0.699  0.00  0.00    +0.077 A 
ATOM      6  C   UNL     1       5.292   0.708   0.350  0.00  0.00    +0.026 A 
ATOM      7  C   UNL     1       4.316   0.078   1.268  0.00  0.00    +0.052 C 
ATOM      8  C   UNL     1       4.629  -0.218   2.687  0.00  0.00    -0.022 C 
ATOM      9  C   UNL     1       3.512  -0.106   3.398  0.00  0.00    -0.030 C 
ATOM     10  C   UNL     1       2.356   0.319   2.489  0.00  0.00    +0.033 C 
ATOM     11  C   UNL     1       3.102   1.054   1.370  0.00  0.00    +0.029 C 
ATOM     12  C   UNL     1       2.490   1.047  -0.016  0.00  0.00    +0.105 C 
ATOM     13  N   UNL     1       3.437   1.731  -0.910  0.00  0.00    -0.334 N 
ATOM     14  H   UNL     1       3.063   2.401  -1.698  0.00  0.00    +0.147 HD
ENDROOT
BRANCH  12  15
ATOM     15  C   UNL     1       1.175   1.783   0.000  0.00  0.00    -0.025 A 
ATOM     16  C   UNL     1       1.157   3.166   0.008  0.00  0.00    +0.007 A 
ATOM     17  C   UNL     1      -0.048   3.841   0.023  0.00  0.00    +0.022 A 
ATOM     18  C   UNL     1      -1.238   3.134   0.030  0.00  0.00    +0.071 A 
ATOM     19  C   UNL     1      -1.219   1.750   0.017  0.00  0.00    +0.145 A 
ATOM     20  C   UNL     1      -0.013   1.076   0.008  0.00  0.00    +0.039 A 
ATOM     21 CL   UNL     1      -2.752   3.982   0.048  0.00  0.00    -0.081 Cl
BRANCH  19  22
ATOM     22  N   UNL     1      -2.491   0.993   0.019  0.00  0.00    +0.058 N 
ATOM     23  O   UNL     1      -2.474  -0.225   0.013  0.00  0.00    -0.126 OA
ATOM     24  O   UNL     1      -3.554   1.588   0.028  0.00  0.00    -0.126 OA
ENDBRANCH  19  22
ENDBRANCH  12  15
BRANCH   1  26
ATOM     25  C   UNL     1       8.542  -0.367   1.643  0.00  0.00    +0.277 C 
ATOM     26  O   UNL     1       7.125  -0.219   1.541  0.00  0.00    -0.495 OA
ENDBRANCH   1  26
BRANCH   4  27
ATOM     27  O   UNL     1       5.247   2.797  -2.637  0.00  0.00    -0.493 OA
ATOM     28  C   UNL     1       6.226   3.349  -3.520  0.00  0.00    +0.277 C 
ENDBRANCH   4  27
TORSDOF 4
