REMARK  Name = ZINC39733821
REMARK  11 active torsions:
REMARK  status: ('A' for Active; 'I' for Inactive)
REMARK    1  A    between atoms: C_1  and  C_2
REMARK    2  A    between atoms: C_2  and  C_3
REMARK    3  A    between atoms: C_3  and  N_4
REMARK    4  A    between atoms: C_10  and  N_16
REMARK    5  A    between atoms: C_11  and  C_12
REMARK    6  A    between atoms: N_14  and  C_15
REMARK    7  A    between atoms: C_17  and  C_19
REMARK    8  A    between atoms: C_22  and  S_25
REMARK    9  A    between atoms: S_25  and  N_28
REMARK   10  A    between atoms: C_30  and  C_37
REMARK   11  A    between atoms: C_33  and  C_36
REMARK                            x       y       z     vdW  Elec       q    Type
REMARK                         _______ _______ _______ _____ _____    ______ ____
ROOT
ATOM      1  N   UNL     1       2.551  -7.799  -0.443  0.00  0.00    -0.275 N 
ATOM      2  C   UNL     1       2.934  -8.044  -1.711  0.00  0.00    +0.249 C 
ATOM      3  O   UNL     1       3.007  -7.132  -2.511  0.00  0.00    -0.270 OA
ATOM      4  H   UNL     1       2.493  -8.527   0.196  0.00  0.00    +0.156 HD
ENDROOT
BRANCH   1  11
ATOM      5  N   UNL     1       0.762  -1.980   1.234  0.00  0.00    +0.383 N 
ATOM      6  C   UNL     1       1.362  -2.467   2.482  0.00  0.00    -0.074 C 
ATOM      7  C   UNL     1       1.113  -3.971   2.636  0.00  0.00    +0.018 C 
ATOM      8  C   UNL     1       1.567  -4.654   1.354  0.00  0.00    -0.027 A 
ATOM      9  C   UNL     1       1.756  -3.929   0.228  0.00  0.00    -0.021 A 
ATOM     10  S   UNL     1       2.272  -5.109  -0.982  0.00  0.00    -0.079 S 
ATOM     11  C   UNL     1       2.241  -6.507  -0.050  0.00  0.00    +0.085 A 
ATOM     12  C   UNL     1       1.832  -6.071   1.202  0.00  0.00    +0.068 A 
ATOM     13  C   UNL     1       1.555  -2.454   0.084  0.00  0.00    -0.035 C 
ATOM     14  H   UNL     1      -0.182  -2.328   1.157  0.00  0.00    -0.081 HD
BRANCH  12  15
ATOM     15  C   UNL     1       1.676  -7.003   2.323  0.00  0.00    +0.246 C 
ATOM     16  O   UNL     1       0.605  -7.549   2.516  0.00  0.00    -0.270 OA
ATOM     17  N   UNL     1       2.718  -7.255   3.140  0.00  0.00    -0.314 N 
ATOM     18  C   UNL     1       2.562  -8.187   4.260  0.00  0.00    +0.128 C 
ATOM     19  H   UNL     1       3.571  -6.820   2.986  0.00  0.00    +0.149 HD
ENDBRANCH  12  15
BRANCH   5  20
ATOM     20  C   UNL     1       0.742  -0.511   1.242  0.00  0.00    -0.079 C 
BRANCH  20  22
ATOM     21  C   UNL     1      -0.019   1.526   0.010  0.00  0.00    +0.002 C 
ATOM     22  C   UNL     1       0.002  -0.004   0.002  0.00  0.00    -0.022 C 
ENDBRANCH  20  22
ENDBRANCH   5  20
ENDBRANCH   1  11
BRANCH   2  23
ATOM     23  C   UNL     1       3.266  -9.422  -2.130  0.00  0.00    +0.037 A 
ATOM     24  C   UNL     1       3.178 -10.473  -1.215  0.00  0.00    +0.015 A 
ATOM     25  C   UNL     1       3.488 -11.757  -1.613  0.00  0.00    +0.029 A 
ATOM     26  C   UNL     1       3.886 -12.004  -2.915  0.00  0.00    +0.106 A 
ATOM     27  C   UNL     1       3.976 -10.967  -3.826  0.00  0.00    +0.029 A 
ATOM     28  C   UNL     1       3.663  -9.680  -3.443  0.00  0.00    +0.015 A 
BRANCH  26  29
ATOM     29  S   UNL     1       4.281 -13.648  -3.414  0.00  0.00    +0.061 S 
ATOM     30  O   UNL     1       5.151 -13.534  -4.532  0.00  0.00    -0.153 OA
ATOM     31  O   UNL     1       4.644 -14.354  -2.235  0.00  0.00    -0.153 OA
BRANCH  29  32
ATOM     32  N   UNL     1       2.883 -14.340  -3.969  0.00  0.00    -0.176 NA
ATOM     33  C   UNL     1       1.991 -15.064  -3.053  0.00  0.00    +0.112 C 
ATOM     34  C   UNL     1       0.579 -14.483  -3.179  0.00  0.00    +0.002 C 
ATOM     35  C   UNL     1       0.143 -14.526  -4.646  0.00  0.00    +0.009 C 
ATOM     36  C   UNL     1       1.093 -13.671  -5.487  0.00  0.00    +0.002 C 
ATOM     37  C   UNL     1       2.509 -14.237  -5.386  0.00  0.00    +0.112 C 
ATOM     38  C   UNL     1       0.637 -13.687  -6.947  0.00  0.00    +0.009 C 
ATOM     39  C   UNL     1      -0.391 -15.311  -2.333  0.00  0.00    +0.009 C 
ENDBRANCH  29  32
ENDBRANCH  26  29
ENDBRANCH   2  23
TORSDOF 7
