REMARK  Name = ZINC39357313
REMARK  9 active torsions:
REMARK  status: ('A' for Active; 'I' for Inactive)
REMARK    1  A    between atoms: C_1  and  C_2
REMARK    2  A    between atoms: C_5  and  C_8
REMARK    3  A    between atoms: C_10  and  C_15
REMARK    4  A    between atoms: C_11  and  O_14
REMARK    5  A    between atoms: C_15  and  C_16
REMARK    6  A    between atoms: C_15  and  C_23
REMARK    7  A    between atoms: C_24  and  O_36
REMARK    8  A    between atoms: C_27  and  C_29
REMARK    9  A    between atoms: C_32  and  C_35
REMARK                            x       y       z     vdW  Elec       q    Type
REMARK                         _______ _______ _______ _____ _____    ______ ____
ROOT
ATOM      1  C   UNL     1      -2.589  -4.833  -0.341  0.00  0.00    +0.086 C 
ENDROOT
BRANCH   1   2
ATOM      2  C   UNL     1      -2.892  -3.367  -0.519  0.00  0.00    -0.036 A 
ATOM      3  C   UNL     1      -2.071  -2.583  -1.307  0.00  0.00    +0.006 A 
ATOM      4  C   UNL     1      -2.349  -1.239  -1.470  0.00  0.00    +0.020 A 
ATOM      5  C   UNL     1      -3.448  -0.678  -0.845  0.00  0.00    +0.041 A 
ATOM      6  C   UNL     1      -4.269  -1.464  -0.056  0.00  0.00    +0.020 A 
ATOM      7  C   UNL     1      -3.994  -2.809   0.102  0.00  0.00    +0.006 A 
ATOM      8 CL   UNL     1      -3.797   1.010  -1.049  0.00  0.00    -0.084 Cl
ENDBRANCH   1   2
BRANCH   1  10
ATOM      9  C   UNL     1      -0.413  -3.899   0.996  0.00  0.00    +0.161 C 
ATOM     10  C   UNL     1      -1.312  -4.990   0.444  0.00  0.00    +0.033 C 
ATOM     11  C   UNL     1      -0.707  -6.126   0.816  0.00  0.00    +0.232 C 
ATOM     12  N   UNL     1       0.424  -5.858   1.512  0.00  0.00    -0.140 NA
ATOM     13  N   UNL     1       0.665  -4.653   1.657  0.00  0.00    -0.294 N 
ATOM     14  H   UNL     1       1.427  -4.272   2.122  0.00  0.00    +0.184 HD
BRANCH   9  19
ATOM     15  C   UNL     1      -3.271  -0.642   4.820  0.00  0.00    +0.044 C 
ATOM     16  C   UNL     1      -2.526  -1.492   3.823  0.00  0.00    -0.050 A 
ATOM     17  C   UNL     1      -2.072  -0.934   2.642  0.00  0.00    +0.004 A 
ATOM     18  C   UNL     1      -1.388  -1.713   1.728  0.00  0.00    +0.006 A 
ATOM     19  C   UNL     1      -1.157  -3.049   1.994  0.00  0.00    -0.019 A 
ATOM     20  C   UNL     1      -1.611  -3.607   3.175  0.00  0.00    +0.006 A 
ATOM     21  C   UNL     1      -2.291  -2.827   4.091  0.00  0.00    +0.004 A 
ENDBRANCH   9  19
BRANCH  11  22
ATOM     22  O   UNL     1      -1.165  -7.374   0.536  0.00  0.00    -0.491 OA
ATOM     23  H   UNL     1      -0.606  -8.085   0.880  0.00  0.00    +0.294 HD
ENDBRANCH  11  22
ENDBRANCH   1  10
BRANCH   1  24
ATOM     24  C   UNL     1      -2.432  -5.481  -1.692  0.00  0.00    +0.033 C 
ATOM     25  C   UNL     1      -1.297  -5.823  -2.317  0.00  0.00    +0.232 C 
ATOM     26  N   UNL     1      -1.564  -6.384  -3.521  0.00  0.00    -0.140 NA
ATOM     27  N   UNL     1      -2.765  -6.465  -3.792  0.00  0.00    -0.294 N 
ATOM     28  C   UNL     1      -3.522  -5.903  -2.661  0.00  0.00    +0.161 C 
ATOM     29  H   UNL     1      -3.143  -6.835  -4.604  0.00  0.00    +0.184 HD
BRANCH  28  30
ATOM     30  C   UNL     1      -4.410  -6.950  -2.039  0.00  0.00    -0.019 A 
ATOM     31  C   UNL     1      -3.954  -8.248  -1.898  0.00  0.00    +0.006 A 
ATOM     32  C   UNL     1      -4.769  -9.208  -1.327  0.00  0.00    +0.004 A 
ATOM     33  C   UNL     1      -6.038  -8.871  -0.898  0.00  0.00    -0.050 A 
ATOM     34  C   UNL     1      -6.494  -7.574  -1.038  0.00  0.00    +0.004 A 
ATOM     35  C   UNL     1      -5.678  -6.612  -1.604  0.00  0.00    +0.006 A 
ATOM     36  C   UNL     1      -6.926  -9.919  -0.277  0.00  0.00    +0.044 C 
ENDBRANCH  28  30
BRANCH  25  37
ATOM     37  O   UNL     1      -0.049  -5.633  -1.812  0.00  0.00    -0.491 OA
ATOM     38  H   UNL     1       0.661  -5.938  -2.393  0.00  0.00    +0.294 HD
ENDBRANCH  25  37
ENDBRANCH   1  24
TORSDOF 7
