REMARK  Name = ZINC33974797
REMARK  4 active torsions:
REMARK  status: ('A' for Active; 'I' for Inactive)
REMARK    1  A    between atoms: N_13  and  C_16
REMARK    2  A    between atoms: C_16  and  C_17
REMARK    3  A    between atoms: C_23  and  C_25
REMARK    4  A    between atoms: C_25  and  N_26
REMARK                            x       y       z     vdW  Elec       q    Type
REMARK                         _______ _______ _______ _____ _____    ______ ____
ROOT
ATOM      1  C   UNL     1      -2.100  -7.123   1.593  0.00  0.00    -0.023 C 
ATOM      2  C   UNL     1      -2.838  -7.367   0.275  0.00  0.00    +0.002 C 
ATOM      3  C   UNL     1      -2.772  -8.853  -0.079  0.00  0.00    +0.000 C 
ATOM      4  C   UNL     1      -3.429  -9.673   1.033  0.00  0.00    +0.000 C 
ATOM      5  C   UNL     1      -2.691  -9.429   2.350  0.00  0.00    +0.005 C 
ATOM      6  C   UNL     1      -2.757  -7.942   2.705  0.00  0.00    +0.008 C 
ENDROOT
BRANCH   1   7
ATOM      7  C   UNL     1      -2.167  -5.636   1.948  0.00  0.00    -0.075 C 
BRANCH   7  20
ATOM      8  C   UNL     1       2.147  -1.104  -3.633  0.00  0.00    +0.001 A 
ATOM      9  C   UNL     1       3.188  -0.209  -3.416  0.00  0.00    +0.001 A 
ATOM     10  C   UNL     1       3.633   0.023  -2.141  0.00  0.00    +0.017 A 
ATOM     11  C   UNL     1       3.041  -0.637  -1.085  0.00  0.00    +0.041 A 
ATOM     12  C   UNL     1       1.981  -1.552  -1.278  0.00  0.00    +0.031 A 
ATOM     13  C   UNL     1       1.551  -1.765  -2.604  0.00  0.00    +0.012 A 
ATOM     14  C   UNL     1       1.516  -2.125  -0.024  0.00  0.00    +0.138 A 
ATOM     15  N   UNL     1       2.080  -1.767   1.092  0.00  0.00    -0.194 NA
ATOM     16  S   UNL     1       3.265  -0.662   0.672  0.00  0.00    +0.014 S 
ATOM     17  N   UNL     1       0.472  -3.051  -0.018  0.00  0.00    -0.318 N 
ATOM     18  C   UNL     1      -0.927  -2.613   0.102  0.00  0.00    +0.088 C 
ATOM     19  C   UNL     1      -1.597  -3.426   1.215  0.00  0.00    -0.060 C 
ATOM     20  N   UNL     1      -1.432  -4.859   0.941  0.00  0.00    +0.382 N 
ATOM     21  C   UNL     1      -0.009  -5.217   0.992  0.00  0.00    -0.060 C 
ATOM     22  C   UNL     1       0.739  -4.493  -0.138  0.00  0.00    +0.088 C 
ATOM     23  H   UNL     1      -1.798  -5.069   0.024  0.00  0.00    -0.082 HD
ENDBRANCH   7  20
ENDBRANCH   1   7
BRANCH   6  24
ATOM     24  C   UNL     1      -2.019  -7.699   4.023  0.00  0.00    +0.120 C 
BRANCH  24  25
ATOM     25  N   UNL     1      -2.719  -8.389   5.110  0.00  0.00    -0.241 N 
ATOM     26  C   UNL     1      -3.693  -7.812   5.823  0.00  0.00    +0.226 C 
ATOM     27  O   UNL     1      -4.104  -6.683   5.663  0.00  0.00    -0.275 OA
ATOM     28  C   UNL     1      -4.202  -8.788   6.859  0.00  0.00    +0.091 C 
ATOM     29  C   UNL     1      -3.784  -8.272   8.269  0.00  0.00    +0.002 C 
ATOM     30  C   UNL     1      -2.352  -7.691   8.065  0.00  0.00    +0.004 C 
ATOM     31  C   UNL     1      -1.458  -8.929   7.826  0.00  0.00    +0.004 C 
ATOM     32  C   UNL     1      -2.435 -10.142   7.910  0.00  0.00    +0.002 C 
ATOM     33  C   UNL     1      -3.470  -9.626   8.996  0.00  0.00    +0.008 C 
ATOM     34  C   UNL     1      -3.332 -10.054   6.616  0.00  0.00    +0.091 C 
ATOM     35  C   UNL     1      -2.439  -9.647   5.466  0.00  0.00    +0.226 C 
ATOM     36  O   UNL     1      -1.599 -10.351   4.949  0.00  0.00    -0.275 OA
ENDBRANCH  24  25
ENDBRANCH   6  24
TORSDOF 4
