REMARK  Name = ZINC08861632
REMARK  12 active torsions:
REMARK  status: ('A' for Active; 'I' for Inactive)
REMARK    1  A    between atoms: C_1  and  C_2
REMARK    2  A    between atoms: C_2  and  C_3
REMARK    3  A    between atoms: C_3  and  CA_4
REMARK    4  A    between atoms: CA_4  and  C_6
REMARK    5  A    between atoms: CA_4  and  N_8
REMARK    6  A    between atoms: C_9  and  C_11
REMARK    7  A    between atoms: C_11  and  O_12
REMARK    8  A    between atoms: O_12  and  C_13
REMARK    9  A    between atoms: C_18  and  C_19
REMARK   10  A    between atoms: C_19  and  C_20
REMARK   11  A    between atoms: C_23  and  C_26
REMARK   12  A    between atoms: N_30  and  C_31
REMARK                            x       y       z     vdW  Elec       q    Type
REMARK                         _______ _______ _______ _____ _____    ______ ____
ROOT
ATOM      1  C   UNL     1       1.552   5.537   0.963  0.00  0.00    +0.128 A 
ATOM      2  C   UNL     1       0.567   6.490   0.765  0.00  0.00    +0.092 A 
ATOM      3  C   UNL     1       0.917   7.827   0.628  0.00  0.00    +0.142 A 
ATOM      4  C   UNL     1       2.274   8.189   0.692  0.00  0.00    +0.065 A 
ATOM      5  C   UNL     1       3.255   7.217   0.891  0.00  0.00    +0.022 A 
ATOM      6  C   UNL     1       2.894   5.907   1.030  0.00  0.00    -0.005 A 
ATOM      7  C   UNL     1       2.627   9.612   0.543  0.00  0.00    +0.203 A 
ATOM      8  O   UNL     1       3.785   9.992   0.589  0.00  0.00    -0.286 OA
ATOM      9  C   UNL     1       1.513  10.555   0.337  0.00  0.00    +0.102 A 
ATOM     10  C   UNL     1       0.243  10.065   0.295  0.00  0.00    +0.211 A 
ATOM     11  O   UNL     1      -0.030   8.766   0.435  0.00  0.00    -0.462 OA
ENDROOT
BRANCH   9  12
ATOM     12  C   UNL     1       1.768  12.001   0.177  0.00  0.00    +0.175 A 
ATOM     13  N   UNL     1       2.542  12.747   0.935  0.00  0.00    -0.129 NA
ATOM     14  N   UNL     1       2.535  13.959   0.505  0.00  0.00    -0.137 NA
ATOM     15  C   UNL     1       1.755  14.062  -0.537  0.00  0.00    +0.230 A 
ATOM     16  N   UNL     1       1.239  12.822  -0.785  0.00  0.00    -0.282 N 
BRANCH  16  17
ATOM     17  C   UNL     1       0.351  12.464  -1.809  0.00  0.00    +0.049 A 
ATOM     18  C   UNL     1       0.685  11.449  -2.696  0.00  0.00    +0.026 A 
ATOM     19  C   UNL     1      -0.194  11.094  -3.700  0.00  0.00    +0.002 A 
ATOM     20  C   UNL     1      -1.400  11.757  -3.830  0.00  0.00    +0.000 A 
ATOM     21  C   UNL     1      -1.733  12.772  -2.953  0.00  0.00    +0.002 A 
ATOM     22  C   UNL     1      -0.861  13.127  -1.943  0.00  0.00    +0.026 A 
ENDBRANCH  16  17
ENDBRANCH   9  12
BRANCH   6  23
ATOM     23  C   UNL     1       3.951   4.856   1.251  0.00  0.00    +0.035 C 
ATOM     24  C   UNL     1       4.340   4.234  -0.092  0.00  0.00    +0.009 C 
ENDBRANCH   6  23
BRANCH   1  25
ATOM     25  O   UNL     1       1.208   4.231   1.097  0.00  0.00    -0.482 OA
BRANCH  25  26
ATOM     26  C   UNL     1      -0.185   3.917   1.025  0.00  0.00    +0.324 C 
BRANCH  26  28
ATOM     27  N   UNL     1      -1.613   1.902   1.161  0.00  0.00    -0.299 N 
ATOM     28  C   UNL     1      -0.374   2.432   1.194  0.00  0.00    +0.251 C 
ATOM     29  O   UNL     1       0.589   1.713   1.361  0.00  0.00    -0.272 OA
ATOM     30  H   UNL     1      -2.382   2.477   1.024  0.00  0.00    +0.150 HD
BRANCH  27  31
ATOM     31  CA  UNL     1      -1.797   0.458   1.326  0.00  0.00    +0.186 C 
BRANCH  31  32
ATOM     32  C   UNL     1      -1.850   0.123   2.794  0.00  0.00    +0.376 C 
ATOM     33  O   UNL     1      -1.744   1.000   3.619  0.00  0.00    -0.244 OA
ATOM     34  OXT UNL     1      -2.014  -1.150   3.186  0.00  0.00    -0.244 OA
ENDBRANCH  31  32
BRANCH  31  35
ATOM     35  C   UNL     1      -3.106   0.032   0.658  0.00  0.00    +0.033 C 
BRANCH  35  37
ATOM     36  C   UNL     1      -4.314  -0.170  -1.520  0.00  0.00    +0.004 C 
ATOM     37  C   UNL     1      -3.005   0.257  -0.852  0.00  0.00    -0.001 C 
ENDBRANCH  35  37
ENDBRANCH  31  35
ENDBRANCH  27  31
ENDBRANCH  26  28
ENDBRANCH  25  26
ENDBRANCH   1  25
TORSDOF 10
