REMARK  Name = ZINC63139957
REMARK  10 active torsions:
REMARK  status: ('A' for Active; 'I' for Inactive)
REMARK    1  A    between atoms: C_1  and  C_2
REMARK    2  A    between atoms: C_2  and  C_3
REMARK    3  A    between atoms: C_3  and  C_4
REMARK    4  A    between atoms: C_4  and  C_5
REMARK    5  A    between atoms: C_5  and  C_6
REMARK    6  A    between atoms: C_6  and  N_7
REMARK    7  A    between atoms: C_27  and  C_29
REMARK    8  A    between atoms: C_32  and  C_35
REMARK    9  A    between atoms: C_35  and  C_36
REMARK   10  A    between atoms: C_35  and  C_37
REMARK                            x       y       z     vdW  Elec       q    Type
REMARK                         _______ _______ _______ _____ _____    ______ ____
ROOT
ATOM      1  N   UNL     1      -4.202  -4.630   0.017  0.00  0.00    -0.291 N 
ATOM      2  C   UNL     1      -4.918  -4.899   1.278  0.00  0.00    +0.203 C 
ATOM      3  C   UNL     1      -6.311  -4.315   1.173  0.00  0.00    +0.234 C 
ATOM      4  O   UNL     1      -6.807  -3.689   2.086  0.00  0.00    -0.274 OA
ATOM      5  N   UNL     1      -6.986  -4.526  -0.004  0.00  0.00    -0.279 N 
ATOM      6  C   UNL     1      -6.303  -5.357  -0.972  0.00  0.00    +0.167 C 
ATOM      7  C   UNL     1      -4.885  -4.872  -1.140  0.00  0.00    +0.237 C 
ATOM      8  O   UNL     1      -4.383  -4.710  -2.232  0.00  0.00    -0.274 OA
ATOM      9  C   UNL     1      -6.979  -5.620  -2.293  0.00  0.00    +0.065 C 
ATOM     10  C   UNL     1      -8.192  -4.742  -2.430  0.00  0.00    -0.034 C 
ATOM     11  C   UNL     1      -8.687  -4.061  -3.455  0.00  0.00    -0.001 A 
ATOM     12  C   UNL     1      -8.254  -3.948  -4.857  0.00  0.00    +0.010 A 
ATOM     13  C   UNL     1      -9.002  -3.139  -5.653  0.00  0.00    +0.001 A 
ATOM     14  C   UNL     1     -10.125  -2.439  -5.200  0.00  0.00    +0.002 A 
ATOM     15  C   UNL     1     -10.597  -2.489  -3.929  0.00  0.00    +0.026 A 
ATOM     16  C   UNL     1      -9.896  -3.310  -2.999  0.00  0.00    +0.043 A 
ATOM     17  N   UNL     1     -10.130  -3.546  -1.743  0.00  0.00    -0.375 N 
ATOM     18  C   UNL     1      -9.124  -4.493  -1.246  0.00  0.00    +0.131 C 
ATOM     19  C   UNL     1      -8.271  -3.859  -0.158  0.00  0.00    +0.133 C 
ATOM     20  H   UNL     1     -10.850  -3.160  -1.221  0.00  0.00    +0.160 HD
ENDROOT
BRANCH  19  21
ATOM     21  C   UNL     1      -8.034  -2.423  -0.549  0.00  0.00    -0.025 A 
ATOM     22  C   UNL     1      -7.038  -2.108  -1.454  0.00  0.00    +0.006 A 
ATOM     23  C   UNL     1      -6.821  -0.791  -1.813  0.00  0.00    +0.004 A 
ATOM     24  C   UNL     1      -7.599   0.212  -1.266  0.00  0.00    -0.045 A 
ATOM     25  C   UNL     1      -8.595  -0.103  -0.361  0.00  0.00    +0.004 A 
ATOM     26  C   UNL     1      -8.816  -1.421  -0.005  0.00  0.00    +0.006 A 
BRANCH  24  27
ATOM     27  C   UNL     1      -7.362   1.648  -1.656  0.00  0.00    +0.013 C 
ATOM     28  C   UNL     1      -8.631   2.221  -2.290  0.00  0.00    +0.012 C 
ATOM     29  C   UNL     1      -7.001   2.461  -0.411  0.00  0.00    +0.012 C 
ENDBRANCH  24  27
ENDBRANCH  19  21
BRANCH   1  30
ATOM     30  C   UNL     1      -2.827  -4.123   0.007  0.00  0.00    +0.108 C 
BRANCH  30  31
ATOM     31  C   UNL     1      -2.848  -2.593   0.015  0.00  0.00    +0.019 C 
BRANCH  31  32
ATOM     32  C   UNL     1      -1.413  -2.063   0.004  0.00  0.00    +0.002 C 
BRANCH  32  33
ATOM     33  C   UNL     1      -1.433  -0.534   0.013  0.00  0.00    -0.000 C 
BRANCH  33  35
ATOM     34  C   UNL     1      -0.019   1.526   0.010  0.00  0.00    +0.004 C 
ATOM     35  C   UNL     1       0.002  -0.004   0.002  0.00  0.00    -0.003 C 
ENDBRANCH  33  35
ENDBRANCH  32  33
ENDBRANCH  31  32
ENDBRANCH  30  31
ENDBRANCH   1  30
TORSDOF 7
