REMARK  Name = ZINC14544991
REMARK  4 active torsions:
REMARK  status: ('A' for Active; 'I' for Inactive)
REMARK    1  A    between atoms: C_7  and  C_11
REMARK    2  A    between atoms: C_22  and  O_27
REMARK    3  A    between atoms: O_27  and  C_28
REMARK    4  A    between atoms: C_28  and  C_29
REMARK                            x       y       z     vdW  Elec       q    Type
REMARK                         _______ _______ _______ _____ _____    ______ ____
ROOT
ATOM      1  C   UNL     1       8.333   1.795   2.398  0.00  0.00    +0.107 C 
ATOM      2  C   UNL     1       7.614   1.483   3.713  0.00  0.00    +0.029 C 
ATOM      3  C   UNL     1       8.367   0.295   4.381  0.00  0.00    +0.033 C 
ATOM      4  C   UNL     1       7.798  -0.922   3.677  0.00  0.00    -0.030 C 
ATOM      5  C   UNL     1       6.630  -0.642   3.150  0.00  0.00    -0.023 C 
ATOM      6  C   UNL     1       6.264   0.797   3.424  0.00  0.00    +0.049 C 
ATOM      7  C   UNL     1       5.537   1.404   2.266  0.00  0.00    -0.016 A 
ATOM      8  C   UNL     1       4.210   1.053   2.056  0.00  0.00    +0.051 A 
ATOM      9  C   UNL     1       3.499   1.594   0.999  0.00  0.00    +0.121 A 
ATOM     10  C   UNL     1       4.109   2.491   0.135  0.00  0.00    +0.047 A 
ATOM     11  C   UNL     1       5.427   2.848   0.340  0.00  0.00    +0.027 A 
ATOM     12  C   UNL     1       6.139   2.303   1.400  0.00  0.00    +0.032 A 
ATOM     13  N   UNL     1       7.480   2.669   1.586  0.00  0.00    -0.336 N 
ATOM     14  H   UNL     1       7.834   3.479   1.188  0.00  0.00    +0.147 HD
ENDROOT
BRANCH   1  21
ATOM     15  C   UNL     1      11.869  -1.282   2.463  0.00  0.00    +0.001 A 
ATOM     16  C   UNL     1      11.681  -2.341   1.585  0.00  0.00    +0.002 A 
ATOM     17  C   UNL     1      10.547  -2.415   0.806  0.00  0.00    +0.026 A 
ATOM     18  C   UNL     1       9.579  -1.419   0.898  0.00  0.00    +0.047 A 
ATOM     19  C   UNL     1       9.775  -0.348   1.789  0.00  0.00    +0.005 A 
ATOM     20  C   UNL     1      10.932  -0.293   2.569  0.00  0.00    +0.010 A 
ATOM     21  C   UNL     1       8.598   0.513   1.651  0.00  0.00    -0.002 A 
ATOM     22  C   UNL     1       7.798  -0.059   0.737  0.00  0.00    +0.089 A 
ATOM     23  N   UNL     1       8.371  -1.211   0.272  0.00  0.00    -0.360 N 
ATOM     24  H   UNL     1       7.981  -1.797  -0.396  0.00  0.00    +0.165 HD
ENDBRANCH   1  21
BRANCH   9  25
ATOM     25  O   UNL     1       2.200   1.241   0.804  0.00  0.00    -0.489 OA
BRANCH  25  26
ATOM     26  C   UNL     1       1.526   1.837  -0.306  0.00  0.00    +0.260 C 
BRANCH  26  27
ATOM     27  C   UNL     1       0.086   1.323  -0.363  0.00  0.00    +0.156 C 
ATOM     28  C   UNL     1      -0.638   1.887  -1.606  0.00  0.00    +0.037 C 
ATOM     29  C   UNL     1      -2.080   2.146  -1.116  0.00  0.00    +0.031 C 
ATOM     30  C   UNL     1      -2.057   1.708   0.365  0.00  0.00    +0.160 C 
ATOM     31  O   UNL     1      -0.670   1.818   0.763  0.00  0.00    -0.373 OA
ENDBRANCH  26  27
ENDBRANCH  25  26
ENDBRANCH   9  25
TORSDOF 4
