REMARK  Name = ZINC63375662
REMARK  7 active torsions:
REMARK  status: ('A' for Active; 'I' for Inactive)
REMARK    1  A    between atoms: C_1  and  O_2
REMARK    2  A    between atoms: O_2  and  C_3
REMARK    3  A    between atoms: C_3  and  C_4
REMARK    4  A    between atoms: C_4  and  N_5
REMARK    5  A    between atoms: C_6  and  C_8
REMARK    6  A    between atoms: C_13  and  N_14
REMARK    7  A    between atoms: C_30  and  C_35
REMARK                            x       y       z     vdW  Elec       q    Type
REMARK                         _______ _______ _______ _____ _____    ______ ____
ROOT
ATOM      1  N   UNL     1      -1.973  -6.961  -0.995  0.00  0.00    -0.192 N 
ATOM      2  C   UNL     1      -1.497  -7.358   0.203  0.00  0.00    +0.248 C 
ATOM      3  O   UNL     1      -1.924  -7.059   1.297  0.00  0.00    -0.273 OA
ATOM      4  C   UNL     1      -0.318  -8.256  -0.103  0.00  0.00    +0.169 C 
ATOM      5  C   UNL     1       0.956  -7.691   0.550  0.00  0.00    +0.065 C 
ATOM      6  C   UNL     1       2.120  -8.239  -0.243  0.00  0.00    -0.034 C 
ATOM      7  C   UNL     1       3.195  -8.913   0.151  0.00  0.00    -0.001 A 
ATOM      8  C   UNL     1       3.684  -9.278   1.490  0.00  0.00    +0.010 A 
ATOM      9  C   UNL     1       4.833 -10.003   1.531  0.00  0.00    +0.001 A 
ATOM     10  C   UNL     1       5.537 -10.395   0.388  0.00  0.00    +0.002 A 
ATOM     11  C   UNL     1       5.164 -10.096  -0.882  0.00  0.00    +0.026 A 
ATOM     12  C   UNL     1       3.974  -9.331  -1.054  0.00  0.00    +0.043 A 
ATOM     13  N   UNL     1       3.404  -8.893  -2.137  0.00  0.00    -0.375 N 
ATOM     14  C   UNL     1       2.232  -8.103  -1.756  0.00  0.00    +0.131 C 
ATOM     15  C   UNL     1       0.942  -8.682  -2.354  0.00  0.00    +0.135 C 
ATOM     16  N   UNL     1      -0.188  -8.155  -1.571  0.00  0.00    -0.264 N 
ATOM     17  C   UNL     1      -1.241  -7.450  -2.006  0.00  0.00    +0.317 C 
ATOM     18  O   UNL     1      -1.500  -7.272  -3.179  0.00  0.00    -0.252 OA
ATOM     19  H   UNL     1       3.704  -9.062  -3.044  0.00  0.00    +0.160 HD
ENDROOT
BRANCH  15  20
ATOM     20  C   UNL     1       0.811  -8.264  -3.796  0.00  0.00    -0.025 A 
ATOM     21  C   UNL     1       0.789  -6.922  -4.128  0.00  0.00    +0.008 A 
ATOM     22  C   UNL     1       0.669  -6.538  -5.450  0.00  0.00    +0.038 A 
ATOM     23  C   UNL     1       0.570  -7.498  -6.443  0.00  0.00    +0.123 A 
ATOM     24  C   UNL     1       0.592  -8.842  -6.110  0.00  0.00    +0.038 A 
ATOM     25  C   UNL     1       0.717  -9.224  -4.787  0.00  0.00    +0.008 A 
ATOM     26  F   UNL     1       0.453  -7.124  -7.736  0.00  0.00    -0.205 F 
ENDBRANCH  15  20
BRANCH   1  32
ATOM     27  C   UNL     1      -2.951  -4.751  -1.208  0.00  0.00    +0.059 A 
ATOM     28  C   UNL     1      -4.079  -3.946  -1.381  0.00  0.00    +0.015 A 
ATOM     29  C   UNL     1      -5.324  -4.525  -1.500  0.00  0.00    +0.001 A 
ATOM     30  C   UNL     1      -5.463  -5.903  -1.448  0.00  0.00    +0.002 A 
ATOM     31  C   UNL     1      -4.356  -6.710  -1.278  0.00  0.00    +0.025 A 
ATOM     32  C   UNL     1      -3.094  -6.145  -1.162  0.00  0.00    +0.058 A 
BRANCH  27  34
ATOM     33  N   UNL     1      -1.481  -2.798  -1.125  0.00  0.00    -0.309 N 
ATOM     34  C   UNL     1      -1.614  -4.138  -1.080  0.00  0.00    +0.246 C 
ATOM     35  O   UNL     1      -0.634  -4.842  -0.935  0.00  0.00    -0.270 OA
ATOM     36  H   UNL     1      -2.263  -2.236  -1.240  0.00  0.00    +0.149 HD
BRANCH  33  37
ATOM     37  C   UNL     1      -0.154  -2.189  -0.998  0.00  0.00    +0.132 C 
BRANCH  37  38
ATOM     38  C   UNL     1      -0.282  -0.667  -1.081  0.00  0.00    +0.178 C 
BRANCH  38  40
ATOM     39  C   UNL     1      -1.203   1.229   0.061  0.00  0.00    +0.194 C 
ATOM     40  O   UNL     1      -1.026  -0.189   0.042  0.00  0.00    -0.381 OA
ENDBRANCH  38  40
ENDBRANCH  37  38
ENDBRANCH  33  37
ENDBRANCH  27  34
ENDBRANCH   1  32
TORSDOF 6
