REMARK  Name = ZINC39923402
REMARK  7 active torsions:
REMARK  status: ('A' for Active; 'I' for Inactive)
REMARK    1  A    between atoms: C_7  and  C_10
REMARK    2  A    between atoms: N_11  and  N_12
REMARK    3  A    between atoms: C_13  and  C_15
REMARK    4  A    between atoms: C_15  and  S_16
REMARK    5  A    between atoms: S_16  and  C_17
REMARK    6  A    between atoms: N_26  and  C_27
REMARK    7  A    between atoms: C_27  and  C_28
REMARK                            x       y       z     vdW  Elec       q    Type
REMARK                         _______ _______ _______ _____ _____    ______ ____
ROOT
ATOM      1  S   UNL     1       0.722  -9.415  -0.056  0.00  0.00    -0.110 S 
ENDROOT
BRANCH   1   2
ATOM      2  C   UNL     1      -0.554 -10.704  -0.050  0.00  0.00    +0.220 C 
ATOM      3  N   UNL     1      -1.425 -10.550   1.121  0.00  0.00    -0.316 N 
ATOM      4  C   UNL     1      -2.726 -10.326   0.648  0.00  0.00    +0.050 A 
ATOM      5  C   UNL     1      -3.914 -10.118   1.338  0.00  0.00    +0.025 A 
ATOM      6  C   UNL     1      -5.093  -9.916   0.646  0.00  0.00    +0.002 A 
ATOM      7  C   UNL     1      -5.095  -9.920  -0.737  0.00  0.00    +0.002 A 
ATOM      8  C   UNL     1      -3.918 -10.125  -1.431  0.00  0.00    +0.025 A 
ATOM      9  C   UNL     1      -2.728 -10.329  -0.744  0.00  0.00    +0.053 A 
ATOM     10  N   UNL     1      -1.428 -10.557  -1.221  0.00  0.00    -0.297 N 
ATOM     11  H   UNL     1      -1.152 -10.595   2.051  0.00  0.00    +0.149 HD
BRANCH  10  12
ATOM     12  C   UNL     1      -1.018 -10.633  -2.625  0.00  0.00    +0.143 C 
BRANCH  12  13
ATOM     13  C   UNL     1      -1.119 -12.059  -3.102  0.00  0.00    -0.030 A 
ATOM     14  C   UNL     1      -0.036 -12.909  -2.974  0.00  0.00    +0.006 A 
ATOM     15  C   UNL     1      -0.128 -14.216  -3.411  0.00  0.00    +0.020 A 
ATOM     16  C   UNL     1      -1.304 -14.675  -3.976  0.00  0.00    +0.041 A 
ATOM     17  C   UNL     1      -2.388 -13.825  -4.104  0.00  0.00    +0.020 A 
ATOM     18  C   UNL     1      -2.296 -12.518  -3.661  0.00  0.00    +0.006 A 
ATOM     19 CL   UNL     1      -1.420 -16.318  -4.526  0.00  0.00    -0.084 Cl
ENDBRANCH  12  13
ENDBRANCH  10  12
ENDBRANCH   1   2
BRANCH   1  20
ATOM     20  C   UNL     1      -0.220  -7.864  -0.038  0.00  0.00    +0.170 C 
BRANCH  20  22
ATOM     21  N   UNL     1       0.255  -5.437  -0.030  0.00  0.00    -0.206 N 
ATOM     22  C   UNL     1       0.733  -6.697  -0.041  0.00  0.00    +0.242 C 
ATOM     23  O   UNL     1       1.930  -6.892  -0.054  0.00  0.00    -0.273 OA
ATOM     24  H   UNL     1      -0.702  -5.281  -0.020  0.00  0.00    +0.177 HD
BRANCH  21  26
ATOM     25  C   UNL     1       0.677  -3.128  -0.022  0.00  0.00    +0.136 C 
ATOM     26  N   UNL     1       1.141  -4.352  -0.033  0.00  0.00    -0.188 NA
BRANCH  25  33
ATOM     27  C   UNL     1      -0.016   1.353   0.009  0.00  0.00    +0.001 A 
ATOM     28  C   UNL     1       1.164   2.102   0.002  0.00  0.00    +0.002 A 
ATOM     29  C   UNL     1       2.384   1.514  -0.013  0.00  0.00    +0.026 A 
ATOM     30  C   UNL     1       2.485   0.097  -0.022  0.00  0.00    +0.043 A 
ATOM     31  N   UNL     1       3.531  -0.702  -0.037  0.00  0.00    -0.380 N 
ATOM     32  C   UNL     1       3.076  -2.096  -0.040  0.00  0.00    +0.150 C 
ATOM     33  C   UNL     1       1.565  -2.042  -0.024  0.00  0.00    +0.000 C 
ATOM     34  C   UNL     1       1.238  -0.688  -0.013  0.00  0.00    +0.004 A 
ATOM     35  C   UNL     1       0.002  -0.004   0.002  0.00  0.00    +0.010 A 
ATOM     36  H   UNL     1       4.458  -0.414  -0.045  0.00  0.00    +0.160 HD
ENDBRANCH  25  33
ENDBRANCH  21  26
ENDBRANCH  20  22
ENDBRANCH   1  20
TORSDOF 7
