REMARK  Name = ZINC24710907
REMARK  10 active torsions:
REMARK  status: ('A' for Active; 'I' for Inactive)
REMARK    1  A    between atoms: C_1  and  C_2
REMARK    2  A    between atoms: C_2  and  O_3
REMARK    3  A    between atoms: O_3  and  C_4
REMARK    4  A    between atoms: C_9  and  C_10
REMARK    5  A    between atoms: C_10  and  S_11
REMARK    6  A    between atoms: S_11  and  C_12
REMARK    7  A    between atoms: C_15  and  C_24
REMARK    8  A    between atoms: N_16  and  C_17
REMARK    9  A    between atoms: C_17  and  C_18
REMARK   10  A    between atoms: C_35  and  C_38
REMARK                            x       y       z     vdW  Elec       q    Type
REMARK                         _______ _______ _______ _____ _____    ______ ____
ROOT
ATOM      1  C   UNL     1      -0.657   3.561   0.103  0.00  0.00    +0.192 A 
ATOM      2  N   UNL     1       0.642   3.494  -0.068  0.00  0.00    -0.122 NA
ATOM      3  N   UNL     1       1.018   2.266  -0.124  0.00  0.00    -0.128 NA
ATOM      4  C   UNL     1      -0.021   1.472   0.008  0.00  0.00    +0.167 A 
ATOM      5  N   UNL     1      -1.127   2.277   0.152  0.00  0.00    -0.300 N 
ENDROOT
BRANCH   4   6
ATOM      6  C   UNL     1      -0.005  -0.004  -0.004  0.00  0.00    +0.044 A 
ATOM      7  C   UNL     1      -0.838  -0.819  -0.701  0.00  0.00    +0.095 A 
ATOM      8  N   UNL     1      -0.515  -2.123  -0.459  0.00  0.00    -0.360 N 
ATOM      9  H   UNL     1      -1.086  -2.930  -0.942  0.00  0.00    +0.165 HD
ATOM     10  C   UNL     1       0.549  -2.196   0.413  0.00  0.00    +0.047 A 
ATOM     11  C   UNL     1       0.921  -0.880   0.734  0.00  0.00    +0.010 A 
ATOM     12  C   UNL     1       1.986  -0.647   1.604  0.00  0.00    +0.011 A 
ATOM     13  C   UNL     1       2.671  -1.714   2.143  0.00  0.00    +0.001 A 
ATOM     14  C   UNL     1       2.307  -3.014   1.824  0.00  0.00    +0.002 A 
ATOM     15  C   UNL     1       1.252  -3.259   0.971  0.00  0.00    +0.026 A 
ENDBRANCH   4   6
BRANCH   1  16
ATOM     16  S   UNL     1      -1.619   5.032   0.236  0.00  0.00    -0.081 S 
BRANCH  16  17
ATOM     17  C   UNL     1      -0.314   6.276   0.073  0.00  0.00    +0.116 C 
BRANCH  17  23
ATOM     18  C   UNL     1      -1.042   8.278   1.391  0.00  0.00    +0.125 A 
ATOM     19  C   UNL     1      -1.604   9.545   1.467  0.00  0.00    +0.053 A 
ATOM     20  C   UNL     1      -2.034  10.175   0.320  0.00  0.00    +0.001 A 
ATOM     21  C   UNL     1      -1.911   9.560  -0.919  0.00  0.00    +0.125 A 
ATOM     22  C   UNL     1      -1.346   8.289  -0.988  0.00  0.00    +0.054 A 
ATOM     23  C   UNL     1      -0.920   7.653   0.159  0.00  0.00    +0.008 A 
ATOM     24  O   UNL     1      -2.384  10.360  -1.915  0.00  0.00    -0.488 OA
ATOM     25  C   UNL     1      -3.244  11.364  -1.349  0.00  0.00    +0.175 C 
ATOM     26  C   UNL     1      -2.685  11.524   0.085  0.00  0.00    +0.083 C 
ATOM     27  C   UNL     1      -4.694  10.878  -1.315  0.00  0.00    +0.052 C 
BRANCH  18  28
ATOM     28  O   UNL     1      -0.613   7.652   2.520  0.00  0.00    -0.492 OA
BRANCH  28  30
ATOM     29  C   UNL     1      -0.235   7.502   4.902  0.00  0.00    +0.048 C 
ATOM     30  C   UNL     1      -0.770   8.358   3.753  0.00  0.00    +0.225 C 
ENDBRANCH  28  30
ENDBRANCH  18  28
ENDBRANCH  17  23
ENDBRANCH  16  17
ENDBRANCH   1  16
BRANCH   5  31
ATOM     31  C   UNL     1      -2.518   1.849   0.324  0.00  0.00    +0.157 C 
BRANCH  31  32
ATOM     32  C   UNL     1      -2.860   1.815   1.815  0.00  0.00    +0.138 C 
ATOM     33  C   UNL     1      -4.344   1.417   2.018  0.00  0.00    +0.035 C 
ATOM     34  C   UNL     1      -4.297   0.828   3.454  0.00  0.00    +0.031 C 
ATOM     35  C   UNL     1      -2.900   0.172   3.494  0.00  0.00    +0.160 C 
ATOM     36  O   UNL     1      -2.103   0.790   2.478  0.00  0.00    -0.375 OA
ENDBRANCH  31  32
ENDBRANCH   5  31
TORSDOF 8
