REMARK  Name = ZINC65245952
REMARK  4 active torsions:
REMARK  status: ('A' for Active; 'I' for Inactive)
REMARK    1  A    between atoms: C_3  and  C_8
REMARK    2  A    between atoms: C_8  and  N_9
REMARK    3  A    between atoms: C_10  and  C_12
REMARK    4  A    between atoms: C_14  and  C_17
REMARK                            x       y       z     vdW  Elec       q    Type
REMARK                         _______ _______ _______ _____ _____    ______ ____
ROOT
ATOM      1  C   UNL     1       5.728   3.278   2.988  0.00  0.00    +0.314 A 
ATOM      2  N   UNL     1       6.793   3.948   3.351  0.00  0.00    -0.183 NA
ATOM      3  C   UNL     1       6.879   3.984   4.689  0.00  0.00    +0.203 A 
ATOM      4  N   UNL     1       5.861   3.333   5.196  0.00  0.00    -0.055 NA
ATOM      5  O   UNL     1       5.090   2.867   4.098  0.00  0.00    -0.328 OA
ENDROOT
BRANCH   3   6
ATOM      6  C   UNL     1       7.952   4.653   5.468  0.00  0.00    +0.027 A 
ATOM      7  C   UNL     1       8.994   5.327   4.822  0.00  0.00    +0.029 A 
ATOM      8  C   UNL     1       9.973   5.936   5.579  0.00  0.00    +0.085 A 
ATOM      9  N   UNL     1       9.938   5.889   6.898  0.00  0.00    -0.350 N 
ATOM     10  C   UNL     1       8.972   5.262   7.551  0.00  0.00    +0.099 A 
ATOM     11  C   UNL     1       7.945   4.629   6.861  0.00  0.00    +0.053 A 
ATOM     12  N   UNL     1       8.982   5.243   8.941  0.00  0.00    -0.317 N 
ATOM     13  C   UNL     1      10.119   5.796   9.689  0.00  0.00    +0.106 C 
ATOM     14  C   UNL     1       9.592   6.820  10.700  0.00  0.00    +0.019 C 
ATOM     15  C   UNL     1       8.523   6.164  11.575  0.00  0.00    +0.003 C 
ATOM     16  C   UNL     1       7.355   5.705  10.700  0.00  0.00    +0.019 C 
ATOM     17  C   UNL     1       7.853   4.673   9.690  0.00  0.00    +0.106 C 
ATOM     18  H   UNL     1      10.641   6.327   7.403  0.00  0.00    +0.166 HD
ENDBRANCH   3   6
BRANCH   1  20
ATOM     19  N   UNL     1       4.170   2.321   1.354  0.00  0.00    -0.303 N 
ATOM     20  C   UNL     1       5.295   3.023   1.593  0.00  0.00    +0.302 C 
ATOM     21  O   UNL     1       5.955   3.447   0.665  0.00  0.00    -0.265 OA
ATOM     22  H   UNL     1       3.643   1.983   2.095  0.00  0.00    +0.149 HD
BRANCH  19  23
ATOM     23  C   UNL     1       3.743   2.069  -0.024  0.00  0.00    +0.140 C 
BRANCH  23  26
ATOM     24  C   UNL     1       0.073   1.183   0.006  0.00  0.00    +0.001 A 
ATOM     25  C   UNL     1       1.245   1.917  -0.001  0.00  0.00    +0.005 A 
ATOM     26  C   UNL     1       2.466   1.269  -0.016  0.00  0.00    -0.029 A 
ATOM     27  C   UNL     1       2.516  -0.112  -0.025  0.00  0.00    +0.020 A 
ATOM     28  C   UNL     1       1.344  -0.847  -0.017  0.00  0.00    +0.018 A 
ATOM     29  C   UNL     1       0.122  -0.198  -0.002  0.00  0.00    +0.015 A 
ATOM     30 BR   UNL     1       1.411  -2.736  -0.029  0.00  0.00    -0.050 Br
ENDBRANCH  23  26
ENDBRANCH  19  23
ENDBRANCH   1  20
TORSDOF 4
