REMARK  Name = ZINC36724136
REMARK  6 active torsions:
REMARK  status: ('A' for Active; 'I' for Inactive)
REMARK    1  A    between atoms: C_4  and  C_7
REMARK    2  A    between atoms: C_7  and  O_8
REMARK    3  A    between atoms: O_8  and  C_9
REMARK    4  A    between atoms: C_12  and  N_15
REMARK    5  A    between atoms: C_16  and  C_18
REMARK    6  A    between atoms: C_29  and  C_31
REMARK                            x       y       z     vdW  Elec       q    Type
REMARK                         _______ _______ _______ _____ _____    ______ ____
ROOT
ATOM      1  N   UNL     1       8.513  -4.223   2.474  0.00  0.00    -0.284 N 
ATOM      2  C   UNL     1       9.497  -3.677   3.216  0.00  0.00    +0.238 C 
ATOM      3  O   UNL     1       9.324  -2.604   3.755  0.00  0.00    -0.273 OA
ATOM      4  H   UNL     1       8.624  -5.112   2.101  0.00  0.00    +0.155 HD
ENDROOT
BRANCH   2   5
ATOM      5  C   UNL     1      10.810  -4.398   3.375  0.00  0.00    +0.167 C 
ATOM      6  C   UNL     1      10.755  -5.739   2.646  0.00  0.00    +0.067 C 
ATOM      7  C   UNL     1      11.917  -6.612   3.041  0.00  0.00    -0.040 A 
ATOM      8  C   UNL     1      12.259  -7.654   2.187  0.00  0.00    +0.004 A 
ATOM      9  C   UNL     1      13.307  -8.497   2.494  0.00  0.00    +0.000 A 
ATOM     10  C   UNL     1      14.024  -8.307   3.661  0.00  0.00    +0.000 A 
ATOM     11  C   UNL     1      13.689  -7.271   4.508  0.00  0.00    +0.005 A 
ATOM     12  C   UNL     1      12.638  -6.418   4.197  0.00  0.00    -0.027 A 
ATOM     13  C   UNL     1      12.341  -5.290   5.153  0.00  0.00    +0.144 C 
ATOM     14  N   UNL     1      11.062  -4.666   4.801  0.00  0.00    -0.279 N 
ATOM     15  C   UNL     1      10.152  -4.352   5.744  0.00  0.00    +0.283 C 
ATOM     16  O   UNL     1       9.112  -3.804   5.428  0.00  0.00    -0.267 OA
BRANCH  15  17
ATOM     17  C   UNL     1      10.414  -4.671   7.151  0.00  0.00    +0.189 A 
ATOM     18  C   UNL     1       9.532  -4.531   8.184  0.00  0.00    +0.054 A 
ATOM     19  C   UNL     1      10.200  -4.951   9.345  0.00  0.00    +0.042 A 
ATOM     20  C   UNL     1      11.444  -5.325   8.974  0.00  0.00    +0.196 A 
ATOM     21  O   UNL     1      11.568  -5.159   7.651  0.00  0.00    -0.458 OA
ENDBRANCH  15  17
ENDBRANCH   2   5
BRANCH   1  25
ATOM     22  C   UNL     1       4.995  -2.095   1.780  0.00  0.00    +0.121 A 
ATOM     23  C   UNL     1       6.180  -1.416   2.023  0.00  0.00    +0.047 A 
ATOM     24  C   UNL     1       7.345  -2.120   2.253  0.00  0.00    +0.027 A 
ATOM     25  C   UNL     1       7.331  -3.508   2.241  0.00  0.00    +0.034 A 
ATOM     26  C   UNL     1       6.145  -4.188   1.998  0.00  0.00    +0.027 A 
ATOM     27  C   UNL     1       4.979  -3.482   1.774  0.00  0.00    +0.047 A 
BRANCH  22  28
ATOM     28  O   UNL     1       3.848  -1.401   1.554  0.00  0.00    -0.487 OA
BRANCH  28  29
ATOM     29  C   UNL     1       3.937   0.025   1.575  0.00  0.00    +0.264 C 
BRANCH  29  33
ATOM     30  C   UNL     1       0.085   1.707   0.814  0.00  0.00    +0.000 A 
ATOM     31  C   UNL     1       0.475   1.431   2.111  0.00  0.00    +0.000 A 
ATOM     32  C   UNL     1       1.722   0.887   2.357  0.00  0.00    +0.007 A 
ATOM     33  C   UNL     1       2.578   0.617   1.306  0.00  0.00    -0.010 A 
ATOM     34  C   UNL     1       2.188   0.892   0.009  0.00  0.00    +0.007 A 
ATOM     35  C   UNL     1       0.942   1.438  -0.237  0.00  0.00    +0.000 A 
ENDBRANCH  29  33
ENDBRANCH  28  29
ENDBRANCH  22  28
ENDBRANCH   1  25
TORSDOF 6
