REMARK  Name = ZINC03324743
REMARK  10 active torsions:
REMARK  status: ('A' for Active; 'I' for Inactive)
REMARK    1  A    between atoms: C_1  and  C_2
REMARK    2  A    between atoms: C_5  and  N_9
REMARK    3  A    between atoms: C_7  and  C_8
REMARK    4  A    between atoms: C_10  and  C_12
REMARK    5  A    between atoms: C_12  and  O_13
REMARK    6  A    between atoms: O_13  and  C_14
REMARK    7  A    between atoms: C_19  and  C_20
REMARK    8  A    between atoms: C_20  and  C_22
REMARK    9  A    between atoms: C_24  and  C_35
REMARK   10  A    between atoms: N_27  and  C_29
REMARK                            x       y       z     vdW  Elec       q    Type
REMARK                         _______ _______ _______ _____ _____    ______ ____
ROOT
ATOM      1  C   UNL     1       3.751  -1.040   0.144  0.00  0.00    +0.132 A 
ATOM      2  C   UNL     1       3.776  -2.424   0.221  0.00  0.00    +0.049 A 
ATOM      3  C   UNL     1       2.596  -3.140   0.210  0.00  0.00    +0.042 A 
ATOM      4  C   UNL     1       1.377  -2.483   0.128  0.00  0.00    +0.124 A 
ATOM      5  C   UNL     1       1.333  -1.106   0.056  0.00  0.00    +0.053 A 
ATOM      6  C   UNL     1       2.522  -0.370   0.066  0.00  0.00    +0.067 A 
ATOM      7  F   UNL     1       0.228  -3.193   0.118  0.00  0.00    -0.205 F 
ENDROOT
BRANCH   6   8
ATOM      8  C   UNL     1       2.484   1.102  -0.011  0.00  0.00    +0.198 C 
ATOM      9  O   UNL     1       3.519   1.734  -0.106  0.00  0.00    -0.286 OA
BRANCH   8  10
ATOM     10  C   UNL     1       1.190   1.809   0.028  0.00  0.00    +0.040 A 
ATOM     11  C   UNL     1       0.313   1.611   1.114  0.00  0.00    +0.037 A 
ATOM     12  C   UNL     1      -0.901   2.285   1.122  0.00  0.00    +0.117 A 
ATOM     13  C   UNL     1      -1.212   3.181   0.005  0.00  0.00    +0.269 A 
ATOM     14  O   UNL     1      -2.267   3.790  -0.016  0.00  0.00    -0.266 OA
ATOM     15  N   UNL     1      -0.329   3.324  -1.001  0.00  0.00    -0.310 N 
ATOM     16  C   UNL     1       0.841   2.663  -1.002  0.00  0.00    +0.101 A 
BRANCH  15  17
ATOM     17  C   UNL     1      -0.650   4.217  -2.117  0.00  0.00    +0.090 C 
ATOM     18  C   UNL     1      -0.856   5.638  -1.590  0.00  0.00    +0.025 C 
ATOM     19  C   UNL     1      -1.191   6.571  -2.755  0.00  0.00    +0.002 C 
ATOM     20  C   UNL     1      -2.472   6.090  -3.441  0.00  0.00    +0.000 C 
ATOM     21  C   UNL     1      -2.266   4.669  -3.968  0.00  0.00    +0.002 C 
ATOM     22  C   UNL     1      -1.931   3.736  -2.803  0.00  0.00    +0.025 C 
ENDBRANCH  15  17
BRANCH  12  23
ATOM     23  C   UNL     1      -1.827   2.112   2.201  0.00  0.00    +0.105 C 
ATOM     24  N   UNL     1      -2.561   1.974   3.057  0.00  0.00    -0.191 NA
ENDBRANCH  12  23
ENDBRANCH   8  10
ENDBRANCH   6   8
BRANCH   1  25
ATOM     25  O   UNL     1       4.911  -0.336   0.149  0.00  0.00    -0.482 OA
BRANCH  25  26
ATOM     26  C   UNL     1       6.125  -1.087   0.231  0.00  0.00    +0.324 C 
BRANCH  26  28
ATOM     27  N   UNL     1       8.555  -0.630   0.293  0.00  0.00    -0.283 N 
ATOM     28  C   UNL     1       7.300  -0.143   0.224  0.00  0.00    +0.255 C 
ATOM     29  O   UNL     1       7.117   1.054   0.156  0.00  0.00    -0.272 OA
ATOM     30  H   UNL     1       8.705  -1.588   0.289  0.00  0.00    +0.155 HD
BRANCH  27  35
ATOM     31  C   UNL     1      12.962   2.928   0.614  0.00  0.00    +0.044 C 
ATOM     32  C   UNL     1      11.792   1.983   0.529  0.00  0.00    -0.047 A 
ATOM     33  C   UNL     1      10.683   2.324  -0.225  0.00  0.00    +0.005 A 
ATOM     34  C   UNL     1       9.612   1.457  -0.310  0.00  0.00    +0.023 A 
ATOM     35  C   UNL     1       9.642   0.248   0.372  0.00  0.00    +0.034 A 
ATOM     36  C   UNL     1      10.756  -0.091   1.129  0.00  0.00    +0.027 A 
ATOM     37  C   UNL     1      11.828   0.777   1.204  0.00  0.00    -0.046 A 
ATOM     38  C   UNL     1      13.037   0.410   2.025  0.00  0.00    +0.044 C 
ENDBRANCH  27  35
ENDBRANCH  26  28
ENDBRANCH  25  26
ENDBRANCH   1  25
TORSDOF 8
