REMARK  Name = ZINC39652687
REMARK  9 active torsions:
REMARK  status: ('A' for Active; 'I' for Inactive)
REMARK    1  A    between atoms: C_1  and  C_2
REMARK    2  A    between atoms: C_2  and  O_3
REMARK    3  A    between atoms: O_3  and  C_4
REMARK    4  A    between atoms: C_9  and  C_10
REMARK    5  A    between atoms: C_10  and  C_11
REMARK    6  A    between atoms: C_11  and  N_12
REMARK    7  A    between atoms: C_13  and  C_15
REMARK    8  A    between atoms: C_26  and  C_28
REMARK    9  A    between atoms: C_28  and  C_34
REMARK                            x       y       z     vdW  Elec       q    Type
REMARK                         _______ _______ _______ _____ _____    ______ ____
ROOT
ATOM      1  C   UNL     1      -7.626   1.487  -2.218  0.00  0.00    +0.100 C 
ATOM      2  C   UNL     1      -7.040   2.656  -1.395  0.00  0.00    +0.121 C 
ATOM      3  N   UNL     1      -6.604   3.645  -2.409  0.00  0.00    -0.300 N 
ATOM      4  C   UNL     1      -7.667   3.607  -3.442  0.00  0.00    +0.115 C 
ATOM      5  C   UNL     1      -8.040   2.115  -3.559  0.00  0.00    -0.004 C 
ATOM      6  C   UNL     1      -9.542   1.962  -3.773  0.00  0.00    -0.010 C 
ATOM      7  C   UNL     1      -9.921   2.542  -5.139  0.00  0.00    -0.082 C 
ATOM      8  N   UNL     1      -9.181   1.839  -6.194  0.00  0.00    +0.379 N 
ATOM      9  C   UNL     1      -7.740   2.069  -6.034  0.00  0.00    -0.082 C 
ATOM     10  C   UNL     1      -7.269   1.468  -4.706  0.00  0.00    -0.010 C 
ATOM     11  C   UNL     1      -5.493   4.409  -2.395  0.00  0.00    +0.222 C 
ATOM     12  O   UNL     1      -4.674   4.270  -1.512  0.00  0.00    -0.275 OA
ATOM     13  H   UNL     1      -9.371   0.849  -6.133  0.00  0.00    -0.086 HD
ATOM     14  H   UNL     1      -9.477   2.181  -7.096  0.00  0.00    -0.086 HD
ENDROOT
BRANCH  11  15
ATOM     15  C   UNL     1      -5.270   5.434  -3.476  0.00  0.00    +0.044 C 
ATOM     16  C   UNL     1      -5.056   4.726  -4.815  0.00  0.00    +0.016 C 
ATOM     17  C   UNL     1      -3.833   3.812  -4.719  0.00  0.00    +0.001 C 
ATOM     18  C   UNL     1      -2.597   4.648  -4.381  0.00  0.00    +0.000 C 
ATOM     19  C   UNL     1      -2.811   5.356  -3.042  0.00  0.00    +0.001 C 
ATOM     20  C   UNL     1      -4.034   6.270  -3.138  0.00  0.00    +0.016 C 
ATOM     21  C   UNL     1      -6.493   6.349  -3.572  0.00  0.00    +0.021 C 
ENDBRANCH  11  15
BRANCH   1  23
ATOM     22  N   UNL     1      -6.948  -0.866  -2.575  0.00  0.00    -0.315 N 
ATOM     23  C   UNL     1      -6.580   0.424  -2.438  0.00  0.00    +0.218 C 
ATOM     24  O   UNL     1      -5.407   0.728  -2.490  0.00  0.00    -0.275 OA
ATOM     25  H   UNL     1      -7.886  -1.109  -2.534  0.00  0.00    +0.149 HD
BRANCH  22  26
ATOM     26  C   UNL     1      -5.932  -1.899  -2.789  0.00  0.00    +0.109 C 
BRANCH  26  27
ATOM     27  C   UNL     1      -6.611  -3.264  -2.912  0.00  0.00    +0.057 C 
BRANCH  27  33
ATOM     28  C   UNL     1      -4.916  -4.897  -2.046  0.00  0.00    +0.124 A 
ATOM     29  C   UNL     1      -3.958  -5.879  -2.252  0.00  0.00    +0.046 A 
ATOM     30  C   UNL     1      -3.649  -6.283  -3.536  0.00  0.00    +0.004 A 
ATOM     31  C   UNL     1      -4.294  -5.710  -4.616  0.00  0.00    +0.000 A 
ATOM     32  C   UNL     1      -5.249  -4.731  -4.415  0.00  0.00    +0.007 A 
ATOM     33  C   UNL     1      -5.565  -4.327  -3.132  0.00  0.00    -0.004 A 
BRANCH  28  34
ATOM     34  O   UNL     1      -5.222  -4.497  -0.784  0.00  0.00    -0.492 OA
BRANCH  34  36
ATOM     35  C   UNL     1      -4.990  -4.553   1.621  0.00  0.00    +0.048 C 
ATOM     36  C   UNL     1      -4.514  -5.128   0.285  0.00  0.00    +0.225 C 
ENDBRANCH  34  36
ENDBRANCH  28  34
ENDBRANCH  27  33
ENDBRANCH  26  27
ENDBRANCH  22  26
ENDBRANCH   1  23
TORSDOF 7
