REMARK  Name = ZINC41020051
REMARK  4 active torsions:
REMARK  status: ('A' for Active; 'I' for Inactive)
REMARK    1  A    between atoms: C_6  and  C_7
REMARK    2  A    between atoms: C_9  and  C_12
REMARK    3  A    between atoms: C_12  and  N_13
REMARK    4  A    between atoms: C_15  and  N_18
REMARK                            x       y       z     vdW  Elec       q    Type
REMARK                         _______ _______ _______ _____ _____    ______ ____
ROOT
ATOM      1  C   UNL     1      -1.272  -0.765   0.011  0.00  0.00    +0.202 A 
ATOM      2  N   UNL     1      -1.385  -2.106   0.010  0.00  0.00    -0.190 NA
ATOM      3  C   UNL     1      -2.642  -2.447   0.020  0.00  0.00    +0.249 A 
ATOM      4  O   UNL     1      -3.384  -1.333   0.027  0.00  0.00    -0.336 OA
ATOM      5  N   UNL     1      -2.474  -0.244   0.026  0.00  0.00    -0.056 NA
ENDROOT
BRANCH   1  11
ATOM      6  C   UNL     1      -0.017   1.389   0.010  0.00  0.00    +0.014 A 
ATOM      7  C   UNL     1       1.169   2.094   0.002  0.00  0.00    +0.042 A 
ATOM      8  C   UNL     1       2.379   1.420  -0.013  0.00  0.00    +0.158 A 
ATOM      9  C   UNL     1       2.404   0.032  -0.021  0.00  0.00    +0.159 A 
ATOM     10  C   UNL     1       1.220  -0.681  -0.014  0.00  0.00    +0.053 A 
ATOM     11  C   UNL     1       0.002  -0.004   0.002  0.00  0.00    +0.025 A 
ATOM     12  F   UNL     1       3.586  -0.622  -0.035  0.00  0.00    -0.202 F 
ATOM     13  F   UNL     1       3.538   2.114  -0.021  0.00  0.00    -0.202 F 
ENDBRANCH   1  11
BRANCH   3  14
ATOM     14  C   UNL     1      -3.171  -3.858   0.022  0.00  0.00    +0.242 C 
BRANCH  14  15
ATOM     15  N   UNL     1      -3.331  -4.317   1.404  0.00  0.00    -0.261 N 
ATOM     16  C   UNL     1      -4.470  -4.813   1.956  0.00  0.00    +0.131 A 
ATOM     17  C   UNL     1      -4.199  -5.120   3.250  0.00  0.00    +0.063 A 
ATOM     18  C   UNL     1      -2.855  -4.802   3.494  0.00  0.00    +0.157 A 
ATOM     19  N   UNL     1      -2.336  -4.329   2.390  0.00  0.00    -0.177 NA
BRANCH  17  20
ATOM     20  N   UNL     1      -5.105  -5.662   4.181  0.00  0.00    -0.356 N 
ATOM     21  H   UNL     1      -6.019  -5.848   3.916  0.00  0.00    +0.142 HD
ATOM     22  H   UNL     1      -4.816  -5.848   5.088  0.00  0.00    +0.142 HD
ENDBRANCH  17  20
ENDBRANCH  14  15
ENDBRANCH   3  14
TORSDOF 4
