REMARK  Name = ZINC40000547
REMARK  10 active torsions:
REMARK  status: ('A' for Active; 'I' for Inactive)
REMARK    1  A    between atoms: C_1  and  C_2
REMARK    2  A    between atoms: C_2  and  S_3
REMARK    3  A    between atoms: S_3  and  C_4
REMARK    4  A    between atoms: C_10  and  C_26
REMARK    5  A    between atoms: C_12  and  C_17
REMARK    6  A    between atoms: C_17  and  C_19
REMARK    7  A    between atoms: C_20  and  C_25
REMARK    8  A    between atoms: C_22  and  C_24
REMARK    9  A    between atoms: C_29  and  S_32
REMARK   10  A    between atoms: S_32  and  C_33
REMARK                            x       y       z     vdW  Elec       q    Type
REMARK                         _______ _______ _______ _____ _____    ______ ____
ROOT
ATOM      1  C   UNL     1       0.197  -2.414   0.324  0.00  0.00    +0.160 A 
ATOM      2  N   UNL     1       1.023  -3.408   0.619  0.00  0.00    -0.133 NA
ATOM      3  N   UNL     1       0.647  -4.611   0.613  0.00  0.00    -0.125 NA
ATOM      4  C   UNL     1      -0.595  -4.957   0.311  0.00  0.00    +0.192 A 
ATOM      5  S   UNL     1      -1.302  -3.340   0.006  0.00  0.00    -0.024 S 
ATOM      6  N   UNL     1      -1.183  -6.214   0.252  0.00  0.00    -0.230 N 
ATOM      7  C   UNL     1      -0.519  -7.493   0.533  0.00  0.00    +0.152 C 
ATOM      8  C   UNL     1      -1.567  -8.563   0.336  0.00  0.00    +0.077 C 
ATOM      9  C   UNL     1      -2.709  -7.930  -0.022  0.00  0.00    +0.250 C 
ATOM     10  C   UNL     1      -2.464  -6.476  -0.066  0.00  0.00    +0.293 C 
ATOM     11  O   UNL     1      -3.297  -5.637  -0.351  0.00  0.00    -0.266 OA
ATOM     12  O   UNL     1      -3.889  -8.535  -0.293  0.00  0.00    -0.282 OA
ENDROOT
BRANCH   7  13
ATOM     13  C   UNL     1      -0.016  -7.514   1.954  0.00  0.00    -0.022 A 
ATOM     14  C   UNL     1      -0.840  -7.101   2.984  0.00  0.00    +0.007 A 
ATOM     15  C   UNL     1      -0.382  -7.119   4.287  0.00  0.00    +0.015 A 
ATOM     16  C   UNL     1       0.909  -7.553   4.561  0.00  0.00    +0.008 A 
ATOM     17  C   UNL     1       1.735  -7.967   3.523  0.00  0.00    +0.015 A 
ATOM     18  C   UNL     1       1.268  -7.952   2.224  0.00  0.00    +0.007 A 
BRANCH  16  19
ATOM     19  S   UNL     1       1.498  -7.577   6.222  0.00  0.00    -0.129 S 
ATOM     20  C   UNL     1       3.195  -8.203   6.077  0.00  0.00    +0.090 C 
ENDBRANCH  16  19
ENDBRANCH   7  13
BRANCH   8  21
ATOM     21  C   UNL     1      -1.383 -10.009   0.500  0.00  0.00    +0.203 C 
ATOM     22  O   UNL     1      -1.994 -10.606   1.369  0.00  0.00    -0.286 OA
BRANCH  21  23
ATOM     23  C   UNL     1      -0.464 -10.736  -0.382  0.00  0.00    +0.082 A 
ATOM     24  C   UNL     1      -0.062 -12.066  -0.345  0.00  0.00    +0.057 A 
ATOM     25  N   UNL     1       0.779 -12.443  -1.275  0.00  0.00    -0.249 NA
ATOM     26  C   UNL     1       1.217 -11.607  -2.189  0.00  0.00    +0.076 A 
ATOM     27  S   UNL     1       0.445 -10.162  -1.808  0.00  0.00    -0.069 S 
ATOM     28  C   UNL     1       2.179 -11.881  -3.317  0.00  0.00    +0.073 C 
ATOM     29  C   UNL     1      -0.566 -13.021   0.706  0.00  0.00    +0.067 C 
ENDBRANCH  21  23
ENDBRANCH   8  21
BRANCH   1  30
ATOM     30  S   UNL     1       0.488  -0.677   0.267  0.00  0.00    -0.097 S 
BRANCH  30  32
ATOM     31  C   UNL     1       2.632   0.967   0.697  0.00  0.00    +0.016 C 
ATOM     32  C   UNL     1       2.240  -0.512   0.708  0.00  0.00    +0.073 C 
ENDBRANCH  30  32
ENDBRANCH   1  30
TORSDOF 6
