REMARK  Name = ZINC12482259
REMARK  9 active torsions:
REMARK  status: ('A' for Active; 'I' for Inactive)
REMARK    1  A    between atoms: C_1  and  C_2
REMARK    2  A    between atoms: C_5  and  C_39
REMARK    3  A    between atoms: N_8  and  S_10
REMARK    4  A    between atoms: S_10  and  C_13
REMARK    5  A    between atoms: C_16  and  N_19
REMARK    6  A    between atoms: C_20  and  C_22
REMARK    7  A    between atoms: C_23  and  C_31
REMARK    8  A    between atoms: C_31  and  O_32
REMARK    9  A    between atoms: O_32  and  C_33
REMARK                            x       y       z     vdW  Elec       q    Type
REMARK                         _______ _______ _______ _____ _____    ______ ____
ROOT
ATOM      1  N   UNL     1       3.842  -4.105  -4.087  0.00  0.00    -0.279 N 
ATOM      2  C   UNL     1       5.030  -3.634  -4.516  0.00  0.00    +0.284 C 
ATOM      3  O   UNL     1       5.764  -3.043  -3.747  0.00  0.00    -0.266 OA
ATOM      4  H   UNL     1       3.291  -4.642  -4.677  0.00  0.00    +0.155 HD
ENDROOT
BRANCH   2   5
ATOM      5  C   UNL     1       5.438  -3.836  -5.913  0.00  0.00    +0.197 A 
ATOM      6  C   UNL     1       6.610  -3.412  -6.454  0.00  0.00    +0.048 A 
ATOM      7  C   UNL     1       6.583  -3.829  -7.855  0.00  0.00    +0.027 A 
ATOM      8  C   UNL     1       7.470  -3.699  -8.927  0.00  0.00    +0.012 A 
ATOM      9  C   UNL     1       7.138  -4.216 -10.147  0.00  0.00    +0.001 A 
ATOM     10  C   UNL     1       5.926  -4.868 -10.329  0.00  0.00    +0.004 A 
ATOM     11  C   UNL     1       5.037  -5.006  -9.285  0.00  0.00    +0.047 A 
ATOM     12  C   UNL     1       5.354  -4.489  -8.034  0.00  0.00    +0.136 A 
ATOM     13  O   UNL     1       4.708  -4.474  -6.851  0.00  0.00    -0.450 OA
BRANCH   6  14
ATOM     14  C   UNL     1       7.713  -2.662  -5.752  0.00  0.00    +0.269 C 
BRANCH  14  15
ATOM     15  O   UNL     1       8.641  -3.594  -5.193  0.00  0.00    -0.487 OA
BRANCH  15  16
ATOM     16  C   UNL     1       9.704  -3.078  -4.521  0.00  0.00    +0.121 A 
ATOM     17  C   UNL     1       9.847  -1.704  -4.398  0.00  0.00    +0.045 A 
ATOM     18  C   UNL     1      10.928  -1.182  -3.714  0.00  0.00    +0.004 A 
ATOM     19  C   UNL     1      11.867  -2.029  -3.153  0.00  0.00    +0.000 A 
ATOM     20  C   UNL     1      11.726  -3.399  -3.275  0.00  0.00    +0.004 A 
ATOM     21  C   UNL     1      10.644  -3.925  -3.952  0.00  0.00    +0.045 A 
ENDBRANCH  15  16
ENDBRANCH  14  15
ENDBRANCH   6  14
ENDBRANCH   2   5
BRANCH   1  25
ATOM     22  C   UNL     1       2.539  -3.253  -0.223  0.00  0.00    +0.106 A 
ATOM     23  C   UNL     1       2.213  -4.462  -0.811  0.00  0.00    +0.030 A 
ATOM     24  C   UNL     1       2.643  -4.747  -2.091  0.00  0.00    +0.025 A 
ATOM     25  C   UNL     1       3.405  -3.819  -2.790  0.00  0.00    +0.034 A 
ATOM     26  C   UNL     1       3.731  -2.606  -2.197  0.00  0.00    +0.025 A 
ATOM     27  C   UNL     1       3.293  -2.325  -0.917  0.00  0.00    +0.030 A 
BRANCH  22  28
ATOM     28  S   UNL     1       1.988  -2.893   1.411  0.00  0.00    +0.061 S 
ATOM     29  O   UNL     1       2.880  -1.920   1.936  0.00  0.00    -0.153 OA
ATOM     30  O   UNL     1       1.763  -4.143   2.049  0.00  0.00    -0.153 OA
BRANCH  28  36
ATOM     31  C   UNL     1      -0.652   1.154  -0.144  0.00  0.00    +0.009 C 
ATOM     32  C   UNL     1      -0.422  -0.357  -0.080  0.00  0.00    +0.002 C 
ATOM     33  C   UNL     1      -1.771  -1.076   0.002  0.00  0.00    +0.009 C 
ATOM     34  C   UNL     1      -1.544  -2.589   0.033  0.00  0.00    +0.002 C 
ATOM     35  C   UNL     1      -0.725  -2.953   1.276  0.00  0.00    +0.112 C 
ATOM     36  N   UNL     1       0.510  -2.157   1.278  0.00  0.00    -0.176 NA
ATOM     37  C   UNL     1       0.410  -0.696   1.161  0.00  0.00    +0.112 C 
ATOM     38  C   UNL     1      -2.894  -3.308   0.081  0.00  0.00    +0.009 C 
ENDBRANCH  28  36
ENDBRANCH  22  28
ENDBRANCH   1  25
TORSDOF 7
