REMARK  Name = ZINC01939549
REMARK  10 active torsions:
REMARK  status: ('A' for Active; 'I' for Inactive)
REMARK    1  A    between atoms: C_1  and  C_2
REMARK    2  A    between atoms: C_2  and  N_62
REMARK    3  A    between atoms: C_3  and  C_4
REMARK    4  A    between atoms: C_3  and  N_62
REMARK    5  A    between atoms: C_10  and  C_11
REMARK    6  A    between atoms: C_10  and  N_62
REMARK    7  A    between atoms: C_12  and  O_37
REMARK    8  A    between atoms: C_18  and  C_33
REMARK    9  A    between atoms: C_19  and  O_22
REMARK   10  A    between atoms: O_22  and  C_23
REMARK                            x       y       z     vdW  Elec       q    Type
REMARK                         _______ _______ _______ _____ _____    ______ ____
ROOT
ATOM      1  C   UNL     1       6.876   4.028   0.169  0.00  0.00    +0.020 A 
ATOM      2  C   UNL     1       7.461   4.424  -1.022  0.00  0.00    +0.122 A 
ATOM      3  C   UNL     1       6.910   4.041  -2.244  0.00  0.00    +0.046 A 
ATOM      4  C   UNL     1       5.785   3.269  -2.283  0.00  0.00    +0.019 A 
ATOM      5  C   UNL     1       5.184   2.861  -1.091  0.00  0.00    +0.068 A 
ATOM      6  C   UNL     1       5.732   3.243   0.147  0.00  0.00    +0.144 A 
ATOM      7  O   UNL     1       5.143   2.843   1.292  0.00  0.00    -0.447 OA
ATOM      8  C   UNL     1       4.039   2.085   1.304  0.00  0.00    +0.254 A 
ATOM      9  C   UNL     1       3.431   1.663   0.177  0.00  0.00    +0.222 A 
ATOM     10  C   UNL     1       3.973   2.023  -1.089  0.00  0.00    +0.235 A 
ATOM     11  O   UNL     1       3.452   1.656  -2.130  0.00  0.00    -0.283 OA
ENDROOT
BRANCH   8  12
ATOM     12  C   UNL     1       3.451   1.687   2.634  0.00  0.00    +0.454 C 
ATOM     13  F   UNL     1       4.016   0.476   3.049  0.00  0.00    -0.163 F 
ATOM     14  F   UNL     1       3.726   2.679   3.581  0.00  0.00    -0.163 F 
ATOM     15  F   UNL     1       2.067   1.536   2.505  0.00  0.00    -0.163 F 
ENDBRANCH   8  12
BRANCH   2  16
ATOM     16  O   UNL     1       8.580   5.192  -1.000  0.00  0.00    -0.506 OA
ATOM     17  H   UNL     1       9.403   4.690  -1.077  0.00  0.00    +0.292 HD
ENDBRANCH   2  16
BRANCH   1  18
ATOM     18  C   UNL     1       7.480   4.447   1.484  0.00  0.00    -0.035 C 
BRANCH  18  19
ATOM     19  N   UNL     1       8.313   3.340   1.998  0.00  0.00    +0.385 N 
ATOM     20  H   UNL     1       7.817   2.453   1.850  0.00  0.00    -0.081 HD
BRANCH  19  22
ATOM     21  C   UNL     1      10.407   4.569   1.533  0.00  0.00    -0.017 C 
ATOM     22  C   UNL     1       9.600   3.296   1.271  0.00  0.00    -0.081 C 
ENDBRANCH  19  22
BRANCH  19  23
ATOM     23  C   UNL     1       8.556   3.519   3.445  0.00  0.00    -0.043 C 
BRANCH  23  24
ATOM     24  C   UNL     1       9.080   2.224   4.011  0.00  0.00    -0.064 A 
ATOM     25  C   UNL     1       8.199   1.224   4.378  0.00  0.00    +0.002 A 
ATOM     26  C   UNL     1       8.679   0.035   4.893  0.00  0.00    +0.000 A 
ATOM     27  C   UNL     1      10.040  -0.150   5.052  0.00  0.00    +0.000 A 
ATOM     28  C   UNL     1      10.920   0.852   4.691  0.00  0.00    +0.000 A 
ATOM     29  C   UNL     1      10.440   2.040   4.171  0.00  0.00    +0.002 A 
ENDBRANCH  23  24
ENDBRANCH  19  23
ENDBRANCH  18  19
ENDBRANCH   1  18
BRANCH   9  30
ATOM     30  O   UNL     1       2.310   0.894   0.250  0.00  0.00    -0.448 OA
BRANCH  30  31
ATOM     31  C   UNL     1       1.106   1.522   0.281  0.00  0.00    +0.129 A 
ATOM     32  C   UNL     1       1.056   2.919   0.236  0.00  0.00    +0.047 A 
ATOM     33  C   UNL     1      -0.134   3.577   0.265  0.00  0.00    +0.012 A 
ATOM     34  C   UNL     1      -1.333   2.846   0.340  0.00  0.00    -0.018 A 
ATOM     35  C   UNL     1      -2.580   3.493   0.372  0.00  0.00    +0.008 A 
ATOM     36  C   UNL     1      -3.721   2.755   0.444  0.00  0.00    +0.001 A 
ATOM     37  C   UNL     1      -3.673   1.362   0.487  0.00  0.00    +0.001 A 
ATOM     38  C   UNL     1      -2.484   0.701   0.459  0.00  0.00    +0.008 A 
ATOM     39  C   UNL     1      -1.285   1.430   0.379  0.00  0.00    -0.014 A 
ATOM     40  C   UNL     1      -0.039   0.781   0.353  0.00  0.00    +0.054 A 
ENDBRANCH  30  31
ENDBRANCH   9  30
TORSDOF 9
