REMARK  Name = ZINC19561270
REMARK  7 active torsions:
REMARK  status: ('A' for Active; 'I' for Inactive)
REMARK    1  A    between atoms: C_1  and  C_2
REMARK    2  A    between atoms: C_3  and  C_31
REMARK    3  A    between atoms: N_9  and  C_15
REMARK    4  A    between atoms: C_10  and  C_12
REMARK    5  A    between atoms: N_18  and  C_21
REMARK    6  A    between atoms: C_21  and  C_22
REMARK    7  A    between atoms: N_24  and  C_25
REMARK                            x       y       z     vdW  Elec       q    Type
REMARK                         _______ _______ _______ _____ _____    ______ ____
ROOT
ATOM      1  C   UNL     1       4.127   0.635   0.065  0.00  0.00    +0.088 C 
ATOM      2  C   UNL     1       4.971   1.891   0.298  0.00  0.00    +0.006 C 
ATOM      3  C   UNL     1       5.712   1.762   1.631  0.00  0.00    -0.076 C 
ATOM      4  N   UNL     1       6.570   0.571   1.603  0.00  0.00    +0.386 N 
ATOM      5  C   UNL     1       5.776  -0.652   1.429  0.00  0.00    -0.076 C 
ATOM      6  C   UNL     1       5.039  -0.596   0.089  0.00  0.00    +0.006 C 
ATOM      7  H   UNL     1       7.242   0.662   0.737  0.00  0.00    -0.081 HD
ENDROOT
BRANCH   1  16
ATOM      8  C   UNL     1       5.618   0.938  -5.145  0.00  0.00    +0.045 C 
ATOM      9  C   UNL     1       4.123   0.949  -4.957  0.00  0.00    -0.026 A 
ATOM     10  C   UNL     1       3.305   1.028  -6.018  0.00  0.00    -0.008 A 
ATOM     11  S   UNL     1       1.678   1.008  -5.289  0.00  0.00    -0.073 S 
ATOM     12  C   UNL     1       2.144   0.893  -3.581  0.00  0.00    +0.116 A 
ATOM     13  C   UNL     1       3.550   0.874  -3.626  0.00  0.00    +0.075 A 
ATOM     14  C   UNL     1       4.209   0.784  -2.356  0.00  0.00    +0.263 A 
ATOM     15  O   UNL     1       5.426   0.761  -2.290  0.00  0.00    -0.267 OA
ATOM     16  N   UNL     1       3.463   0.726  -1.237  0.00  0.00    -0.293 N 
ATOM     17  C   UNL     1       2.106   0.750  -1.291  0.00  0.00    +0.117 A 
ATOM     18  N   UNL     1       1.476   0.827  -2.433  0.00  0.00    -0.226 NA
ATOM     19  C   UNL     1       3.674   1.115  -7.477  0.00  0.00    +0.052 C 
BRANCH  17  20
ATOM     20  C   UNL     1       1.313   0.682  -0.012  0.00  0.00    +0.055 C 
ATOM     21  C   UNL     1      -0.105   1.258  -0.028  0.00  0.00    +0.012 C 
ATOM     22  C   UNL     1       0.106  -0.257   0.022  0.00  0.00    +0.012 C 
ENDBRANCH  17  20
ENDBRANCH   1  16
BRANCH   4  23
ATOM     23  C   UNL     1       7.399   0.492   2.813  0.00  0.00    +0.019 C 
BRANCH  23  24
ATOM     24  C   UNL     1       8.373   1.642   2.831  0.00  0.00    +0.197 C 
ATOM     25  O   UNL     1       8.376   2.449   1.925  0.00  0.00    -0.278 OA
ATOM     26  N   UNL     1       9.241   1.775   3.854  0.00  0.00    -0.314 N 
ATOM     27  H   UNL     1       9.238   1.044   4.676  0.00  0.00    +0.149 HD
BRANCH  26  28
ATOM     28  C   UNL     1      10.187   2.893   3.871  0.00  0.00    +0.073 C 
ATOM     29  C   UNL     1      11.429   2.523   3.058  0.00  0.00    +0.022 C 
ATOM     30  C   UNL     1      12.418   3.690   3.076  0.00  0.00    +0.002 C 
ATOM     31  C   UNL     1      12.824   3.992   4.520  0.00  0.00    +0.000 C 
ATOM     32  C   UNL     1      11.582   4.362   5.333  0.00  0.00    +0.002 C 
ATOM     33  C   UNL     1      10.594   3.195   5.315  0.00  0.00    +0.022 C 
ENDBRANCH  26  28
ENDBRANCH  23  24
ENDBRANCH   4  23
TORSDOF 5
