REMARK  Name = ZINC36572832
REMARK  17 active torsions:
REMARK  status: ('A' for Active; 'I' for Inactive)
REMARK    1  A    between atoms: C_1  and  C_2
REMARK    2  A    between atoms: C_2  and  C_3
REMARK    3  A    between atoms: C_3  and  N_4
REMARK    4  A    between atoms: N_4  and  C_5
REMARK    5  A    between atoms: C_5  and  C_7
REMARK    6  A    between atoms: C_5  and  C_17
REMARK    7  A    between atoms: C_10  and  C_13
REMARK    8  A    between atoms: N_19  and  C_20
REMARK    9  A    between atoms: C_20  and  C_21
REMARK   10  A    between atoms: C_20  and  C_22
REMARK   11  A    between atoms: C_20  and  C_23
REMARK   12  A    between atoms: C_23  and  C_24
REMARK   13  A    between atoms: C_24  and  C_25
REMARK   14  A    between atoms: C_24  and  C_26
REMARK   15  A    between atoms: C_24  and  C_27
REMARK   16  A    between atoms: C_28  and  C_30
REMARK   17  A    between atoms: C_30  and  C_31
REMARK                            x       y       z     vdW  Elec       q    Type
REMARK                         _______ _______ _______ _____ _____    ______ ____
ROOT
ATOM      1  C   UNL     1       2.725  -2.758   1.203  0.00  0.00    +0.192 C 
ENDROOT
BRANCH   1   2
ATOM      2  C   UNL     1       2.237  -3.380  -0.080  0.00  0.00    -0.018 A 
ATOM      3  C   UNL     1       1.733  -2.579  -1.087  0.00  0.00    +0.006 A 
ATOM      4  C   UNL     1       1.285  -3.149  -2.264  0.00  0.00    +0.013 A 
ATOM      5  C   UNL     1       1.341  -4.520  -2.434  0.00  0.00    +0.055 A 
ATOM      6  C   UNL     1       1.845  -5.320  -1.426  0.00  0.00    +0.013 A 
ATOM      7  C   UNL     1       2.298  -4.750  -0.251  0.00  0.00    +0.006 A 
BRANCH   5   8
ATOM      8  C   UNL     1       0.851  -5.141  -3.716  0.00  0.00    +0.417 C 
ATOM      9  F   UNL     1       1.909  -5.220  -4.629  0.00  0.00    -0.166 F 
ATOM     10  F   UNL     1       0.363  -6.426  -3.455  0.00  0.00    -0.166 F 
ATOM     11  F   UNL     1      -0.172  -4.354  -4.255  0.00  0.00    -0.166 F 
ENDBRANCH   5   8
ENDBRANCH   1   2
BRANCH   1  12
ATOM     12  C   UNL     1       4.162  -2.333   1.040  0.00  0.00    +0.238 C 
ATOM     13  O   UNL     1       4.533  -1.267   1.485  0.00  0.00    -0.273 OA
ATOM     14  N   UNL     1       5.034  -3.136   0.400  0.00  0.00    -0.308 N 
ATOM     15  H   UNL     1       4.737  -3.989   0.044  0.00  0.00    +0.149 HD
BRANCH  14  16
ATOM     16  C   UNL     1       6.431  -2.723   0.242  0.00  0.00    +0.030 C 
ATOM     17  C   UNL     1       6.500  -1.504  -0.681  0.00  0.00    +0.031 C 
ATOM     18  C   UNL     1       7.013  -2.361   1.609  0.00  0.00    +0.031 C 
BRANCH  16  19
ATOM     19  C   UNL     1       7.236  -3.871  -0.368  0.00  0.00    +0.031 C 
BRANCH  19  20
ATOM     20  C   UNL     1       6.665  -5.207   0.112  0.00  0.00    -0.036 C 
ATOM     21  C   UNL     1       5.480  -5.601  -0.771  0.00  0.00    +0.010 C 
ATOM     22  C   UNL     1       7.747  -6.285   0.025  0.00  0.00    +0.010 C 
ATOM     23  C   UNL     1       6.198  -5.069   1.562  0.00  0.00    +0.010 C 
ENDBRANCH  19  20
ENDBRANCH  16  19
ENDBRANCH  14  16
ENDBRANCH   1  12
BRANCH   1  24
ATOM     24  N   UNL     1       1.903  -1.589   1.524  0.00  0.00    -0.286 N 
ATOM     25  C   UNL     1       0.604  -1.747   1.846  0.00  0.00    +0.221 C 
ATOM     26  O   UNL     1       0.115  -2.857   1.870  0.00  0.00    -0.275 OA
BRANCH  24  27
ATOM     27  C   UNL     1       2.493  -0.248   1.494  0.00  0.00    +0.108 C 
BRANCH  27  29
ATOM     28  C   UNL     1       3.468   1.519   0.021  0.00  0.00    +0.005 C 
ATOM     29  C   UNL     1       2.892   0.102   0.059  0.00  0.00    +0.016 C 
ENDBRANCH  27  29
ENDBRANCH  24  27
BRANCH  25  30
ATOM     30  C   UNL     1      -0.242  -0.544   2.175  0.00  0.00    +0.131 C 
BRANCH  30  31
ATOM     31  C   UNL     1      -1.645  -0.989   2.498  0.00  0.00    -0.035 A 
ATOM     32  C   UNL     1      -2.585  -1.093   1.489  0.00  0.00    +0.008 A 
ATOM     33  C   UNL     1      -3.873  -1.502   1.780  0.00  0.00    +0.050 A 
ATOM     34  C   UNL     1      -4.226  -1.808   3.084  0.00  0.00    +0.166 A 
ATOM     35  C   UNL     1      -3.279  -1.704   4.100  0.00  0.00    +0.166 A 
ATOM     36  C   UNL     1      -1.988  -1.299   3.800  0.00  0.00    +0.053 A 
ATOM     37  O   UNL     1      -3.866  -2.057   5.281  0.00  0.00    -0.453 OA
ATOM     38  C   UNL     1      -5.284  -1.985   5.042  0.00  0.00    +0.466 C 
ATOM     39  O   UNL     1      -5.405  -2.227   3.628  0.00  0.00    -0.453 OA
ENDBRANCH  30  31
ENDBRANCH  25  30
ENDBRANCH   1  24
TORSDOF 11
