REMARK  Name = ZINC63140371
REMARK  4 active torsions:
REMARK  status: ('A' for Active; 'I' for Inactive)
REMARK    1  A    between atoms: C_8  and  C_31
REMARK    2  A    between atoms: N_19  and  C_23
REMARK    3  A    between atoms: C_23  and  C_24
REMARK    4  A    between atoms: C_24  and  C_25
REMARK                            x       y       z     vdW  Elec       q    Type
REMARK                         _______ _______ _______ _____ _____    ______ ____
ROOT
ATOM      1  C   UNL     1      -0.047   1.287  -0.134  0.00  0.00    +0.001 A 
ATOM      2  C   UNL     1       1.106   2.076  -0.183  0.00  0.00    +0.002 A 
ATOM      3  C   UNL     1       2.371   1.587  -0.192  0.00  0.00    +0.026 A 
ATOM      4  C   UNL     1       2.528   0.171  -0.145  0.00  0.00    +0.043 A 
ATOM      5  N   UNL     1       3.605  -0.556  -0.122  0.00  0.00    -0.375 N 
ATOM      6  C   UNL     1       3.211  -1.967  -0.144  0.00  0.00    +0.131 C 
ATOM      7  C   UNL     1       3.753  -2.726   1.071  0.00  0.00    +0.133 C 
ATOM      8  N   UNL     1       3.015  -4.004   1.171  0.00  0.00    -0.279 N 
ATOM      9  C   UNL     1       1.568  -3.983   1.361  0.00  0.00    +0.167 C 
ATOM     10  C   UNL     1       0.900  -3.234   0.193  0.00  0.00    +0.065 C 
ATOM     11  C   UNL     1       1.692  -1.967  -0.032  0.00  0.00    -0.034 C 
ATOM     12  C   UNL     1       1.312  -0.696  -0.083  0.00  0.00    -0.001 A 
ATOM     13  C   UNL     1      -0.021  -0.072  -0.083  0.00  0.00    +0.010 A 
ATOM     14  C   UNL     1       0.982  -5.352   1.465  0.00  0.00    +0.237 C 
ATOM     15  O   UNL     1      -0.214  -5.445   1.644  0.00  0.00    -0.274 OA
ATOM     16  N   UNL     1       1.688  -6.477   1.374  0.00  0.00    -0.291 N 
ATOM     17  C   UNL     1       3.125  -6.510   1.160  0.00  0.00    +0.203 C 
ATOM     18  C   UNL     1       3.715  -5.141   1.084  0.00  0.00    +0.234 C 
ATOM     19  O   UNL     1       4.912  -5.053   0.909  0.00  0.00    -0.274 OA
ATOM     20  H   UNL     1       4.515  -0.222  -0.095  0.00  0.00    +0.160 HD
ENDROOT
BRANCH   7  21
ATOM     21  C   UNL     1       5.224  -2.998   0.888  0.00  0.00    -0.025 A 
ATOM     22  C   UNL     1       6.062  -3.037   1.987  0.00  0.00    +0.006 A 
ATOM     23  C   UNL     1       7.411  -3.287   1.820  0.00  0.00    +0.015 A 
ATOM     24  C   UNL     1       7.923  -3.499   0.552  0.00  0.00    +0.018 A 
ATOM     25  C   UNL     1       7.084  -3.461  -0.547  0.00  0.00    +0.015 A 
ATOM     26  C   UNL     1       5.734  -3.216  -0.378  0.00  0.00    +0.006 A 
ATOM     27 BR   UNL     1       9.768  -3.841   0.323  0.00  0.00    -0.050 Br
ENDBRANCH   7  21
BRANCH  16  28
ATOM     28  C   UNL     1       0.977  -7.753   1.496  0.00  0.00    +0.112 C 
BRANCH  28  29
ATOM     29  C   UNL     1       0.517  -8.215   0.113  0.00  0.00    +0.049 C 
BRANCH  29  30
ATOM     30  C   UNL     1      -0.214  -9.527   0.238  0.00  0.00    -0.072 C 
ATOM     31  C   UNL     1      -1.505  -9.496   0.325  0.00  0.00    -0.028 C 
ATOM     32  C   UNL     1      -2.368 -10.716   0.465  0.00  0.00    +0.027 C 
ATOM     33  C   UNL     1      -1.580 -11.967   0.069  0.00  0.00    +0.004 C 
ATOM     34  C   UNL     1      -0.235 -11.946   0.805  0.00  0.00    +0.005 C 
ATOM     35  C   UNL     1       0.600 -10.787   0.250  0.00  0.00    +0.030 C 
ENDBRANCH  29  30
ENDBRANCH  28  29
ENDBRANCH  16  28
TORSDOF 4
