REMARK  Name = ZINC58166344
REMARK  9 active torsions:
REMARK  status: ('A' for Active; 'I' for Inactive)
REMARK    1  A    between atoms: C_1  and  C_2
REMARK    2  A    between atoms: C_5  and  C_28
REMARK    3  A    between atoms: C_7  and  N_8
REMARK    4  A    between atoms: C_9  and  C_11
REMARK    5  A    between atoms: C_13  and  C_23
REMARK    6  A    between atoms: N_19  and  C_20
REMARK    7  A    between atoms: C_20  and  C_21
REMARK    8  A    between atoms: C_20  and  C_22
REMARK    9  A    between atoms: C_28  and  N_29
REMARK                            x       y       z     vdW  Elec       q    Type
REMARK                         _______ _______ _______ _____ _____    ______ ____
ROOT
ATOM      1  N   UNL     1       0.026  -0.015   2.416  0.00  0.00    -0.281 N 
ATOM      2  C   UNL     1      -0.056  -0.695   3.577  0.00  0.00    +0.249 C 
ATOM      3  O   UNL     1      -0.040  -1.911   3.572  0.00  0.00    -0.270 OA
ATOM      4  H   UNL     1       0.079   0.953   2.424  0.00  0.00    +0.155 HD
ENDROOT
BRANCH   2   5
ATOM      5  C   UNL     1      -0.165   0.037   4.857  0.00  0.00    +0.051 A 
ATOM      6  C   UNL     1      -0.191   1.426   4.886  0.00  0.00    +0.045 A 
ATOM      7  C   UNL     1      -0.295   2.083   6.119  0.00  0.00    +0.109 A 
ATOM      8  N   UNL     1      -0.369   1.407   7.257  0.00  0.00    -0.224 NA
ATOM      9  C   UNL     1      -0.348   0.083   7.286  0.00  0.00    +0.160 A 
ATOM     10  C   UNL     1      -0.251  -0.655   6.088  0.00  0.00    +0.051 A 
ATOM     11  C   UNL     1      -0.261  -2.021   6.439  0.00  0.00    +0.145 A 
ATOM     12  N   UNL     1      -0.361  -2.116   7.735  0.00  0.00    -0.177 NA
ATOM     13  N   UNL     1      -0.408  -0.836   8.301  0.00  0.00    -0.244 N 
BRANCH   7  14
ATOM     14  C   UNL     1      -0.323   3.558   6.152  0.00  0.00    +0.153 A 
ATOM     15  C   UNL     1      -0.415   4.330   7.269  0.00  0.00    +0.051 A 
ATOM     16  C   UNL     1      -0.406   5.670   6.837  0.00  0.00    +0.042 A 
ATOM     17  C   UNL     1      -0.310   5.652   5.492  0.00  0.00    +0.196 A 
ATOM     18  O   UNL     1      -0.255   4.375   5.083  0.00  0.00    -0.461 OA
ENDBRANCH   7  14
BRANCH  13  19
ATOM     19  C   UNL     1      -0.520  -0.533   9.730  0.00  0.00    +0.103 C 
ATOM     20  C   UNL     1      -1.804  -1.154  10.285  0.00  0.00    +0.032 C 
ATOM     21  C   UNL     1       0.688  -1.111  10.470  0.00  0.00    +0.032 C 
ENDBRANCH  13  19
ENDBRANCH   2   5
BRANCH   1  28
ATOM     22  C   UNL     1      -1.266   1.183   0.182  0.00  0.00    +0.045 C 
ATOM     23  C   UNL     1      -0.585  -0.158   0.085  0.00  0.00    -0.029 A 
ATOM     24  C   UNL     1      -0.570  -0.840  -1.116  0.00  0.00    +0.005 A 
ATOM     25  C   UNL     1       0.054  -2.070  -1.206  0.00  0.00    +0.002 A 
ATOM     26  C   UNL     1       0.666  -2.622  -0.096  0.00  0.00    -0.062 A 
ATOM     27  C   UNL     1       0.654  -1.945   1.108  0.00  0.00    +0.025 A 
ATOM     28  C   UNL     1       0.033  -0.706   1.201  0.00  0.00    +0.037 A 
BRANCH  26  29
ATOM     29  C   UNL     1       1.345  -3.963  -0.199  0.00  0.00    -0.043 C 
BRANCH  29  30
ATOM     30  N   UNL     1       2.752  -3.772  -0.574  0.00  0.00    +0.383 N 
ATOM     31  C   UNL     1       2.816  -3.158  -1.902  0.00  0.00    -0.068 C 
ATOM     32  C   UNL     1       4.226  -2.612  -2.157  0.00  0.00    +0.050 C 
ATOM     33  S   UNL     1       5.393  -4.008  -2.122  0.00  0.00    -0.164 S 
ATOM     34  C   UNL     1       4.953  -4.856  -0.573  0.00  0.00    +0.050 C 
ATOM     35  C   UNL     1       3.435  -5.067  -0.555  0.00  0.00    -0.068 C 
ATOM     36  H   UNL     1       3.192  -3.157   0.095  0.00  0.00    -0.081 HD
ENDBRANCH  29  30
ENDBRANCH  26  29
ENDBRANCH   1  28
TORSDOF 6
