REMARK  Name = ZINC28161928
REMARK  5 active torsions:
REMARK  status: ('A' for Active; 'I' for Inactive)
REMARK    1  A    between atoms: C_3  and  C_6
REMARK    2  A    between atoms: C_9  and  C_30
REMARK    3  A    between atoms: C_16  and  C_19
REMARK    4  A    between atoms: C_19  and  C_20
REMARK    5  A    between atoms: N_22  and  C_23
REMARK                            x       y       z     vdW  Elec       q    Type
REMARK                         _______ _______ _______ _____ _____    ______ ____
ROOT
ATOM      1  C   UNL     1      11.380   0.338   2.707  0.00  0.00    +0.142 C 
ATOM      2  C   UNL     1      11.842   0.961   4.039  0.00  0.00    +0.088 C 
ATOM      3  C   UNL     1      10.653   1.778   4.492  0.00  0.00    +0.075 C 
ATOM      4  N   UNL     1       9.702   1.671   3.625  0.00  0.00    -0.181 NA
ATOM      5  N   UNL     1      10.014   0.858   2.537  0.00  0.00    -0.195 N 
ATOM      6  C   UNL     1       9.185   0.583   1.489  0.00  0.00    +0.170 C 
ATOM      7  N   UNL     1       9.427  -0.182   0.432  0.00  0.00    -0.157 NA
ATOM      8  C   UNL     1       8.574  -0.395  -0.532  0.00  0.00    +0.252 C 
ATOM      9  O   UNL     1       8.835  -1.103  -1.486  0.00  0.00    -0.272 OA
ATOM     10  C   UNL     1       7.230   0.306  -0.381  0.00  0.00    +0.150 C 
ATOM     11  S   UNL     1       7.517   1.169   1.217  0.00  0.00    -0.078 S 
ENDROOT
BRANCH   1  14
ATOM     12  C   UNL     1      13.931   0.739  -0.094  0.00  0.00    +0.008 A 
ATOM     13  C   UNL     1      13.240   0.113   0.926  0.00  0.00    +0.013 A 
ATOM     14  C   UNL     1      12.265   0.794   1.576  0.00  0.00    +0.012 A 
ATOM     15  S   UNL     1      12.296   2.371   0.738  0.00  0.00    -0.100 S 
ATOM     16  C   UNL     1      13.613   2.017  -0.414  0.00  0.00    +0.045 A 
ENDBRANCH   1  14
BRANCH   3  17
ATOM     17  C   UNL     1      10.590   2.569   5.725  0.00  0.00    +0.035 A 
ATOM     18  C   UNL     1       9.550   3.341   6.214  0.00  0.00    +0.017 A 
ATOM     19  C   UNL     1       9.730   3.998   7.409  0.00  0.00    +0.008 A 
ATOM     20  C   UNL     1      10.912   3.870   8.067  0.00  0.00    +0.046 A 
ATOM     21  S   UNL     1      11.831   2.781   6.991  0.00  0.00    -0.095 S 
ENDBRANCH   3  17
BRANCH  10  22
ATOM     22  C   UNL     1       6.083  -0.702  -0.274  0.00  0.00    +0.120 C 
BRANCH  22  23
ATOM     23  C   UNL     1       4.776   0.037  -0.144  0.00  0.00    +0.219 C 
ATOM     24  O   UNL     1       4.762   1.249  -0.139  0.00  0.00    -0.275 OA
ATOM     25  N   UNL     1       3.622  -0.651  -0.035  0.00  0.00    -0.285 N 
ATOM     26  H   UNL     1       3.641  -1.748   0.046  0.00  0.00    +0.155 HD
BRANCH  25  27
ATOM     27  C   UNL     1       2.399   0.031  -0.026  0.00  0.00    +0.033 A 
ATOM     28  C   UNL     1       2.246   1.194  -0.769  0.00  0.00    +0.025 A 
ATOM     29  C   UNL     1       1.039   1.864  -0.759  0.00  0.00    +0.022 A 
ATOM     30  C   UNL     1      -0.018   1.378  -0.009  0.00  0.00    +0.041 A 
ATOM     31  C   UNL     1       0.132   0.219   0.732  0.00  0.00    +0.022 A 
ATOM     32  C   UNL     1       1.338  -0.455   0.725  0.00  0.00    +0.025 A 
ATOM     33 CL   UNL     1      -1.532   2.227   0.007  0.00  0.00    -0.084 Cl
ENDBRANCH  25  27
ENDBRANCH  22  23
ENDBRANCH  10  22
TORSDOF 5
