REMARK  Name = ZINC64986072
REMARK  10 active torsions:
REMARK  status: ('A' for Active; 'I' for Inactive)
REMARK    1  A    between atoms: C_1  and  C_2
REMARK    2  A    between atoms: C_5  and  S_8
REMARK    3  A    between atoms: S_8  and  N_11
REMARK    4  A    between atoms: C_13  and  C_23
REMARK    5  A    between atoms: C_20  and  C_22
REMARK    6  A    between atoms: N_25  and  C_26
REMARK    7  A    between atoms: C_29  and  O_32
REMARK    8  A    between atoms: O_32  and  C_33
REMARK    9  A    between atoms: C_33  and  C_34
REMARK   10  A    between atoms: C_33  and  C_35
REMARK                            x       y       z     vdW  Elec       q    Type
REMARK                         _______ _______ _______ _____ _____    ______ ____
ROOT
ATOM      1  N   UNL     1       1.590  -5.064  -0.068  0.00  0.00    -0.195 N 
ATOM      2  C   UNL     1       2.300  -5.362  -1.324  0.00  0.00    +0.186 C 
ATOM      3  C   UNL     1       3.687  -4.709  -1.238  0.00  0.00    +0.278 C 
ATOM      4  O   UNL     1       4.371  -5.228  -0.096  0.00  0.00    -0.476 OA
ATOM      5  C   UNL     1       3.707  -5.236   1.091  0.00  0.00    +0.144 A 
ATOM      6  C   UNL     1       2.318  -5.152   1.129  0.00  0.00    +0.093 A 
ATOM      7  C   UNL     1       1.656  -5.159   2.346  0.00  0.00    +0.029 A 
ATOM      8  C   UNL     1       2.378  -5.243   3.523  0.00  0.00    +0.005 A 
ATOM      9  C   UNL     1       3.757  -5.319   3.485  0.00  0.00    -0.047 A 
ATOM     10  C   UNL     1       4.420  -5.324   2.276  0.00  0.00    +0.051 A 
ATOM     11  C   UNL     1       4.539  -5.408   4.770  0.00  0.00    +0.044 C 
ENDROOT
BRANCH   3  12
ATOM     12  C   UNL     1       4.471  -5.024  -2.486  0.00  0.00    +0.260 C 
ATOM     13  O   UNL     1       5.474  -5.703  -2.417  0.00  0.00    -0.271 OA
ATOM     14  N   UNL     1       4.058  -4.552  -3.679  0.00  0.00    -0.282 N 
ATOM     15  H   UNL     1       3.301  -3.948  -3.726  0.00  0.00    +0.155 HD
BRANCH  14  16
ATOM     16  C   UNL     1       4.721  -4.935  -4.852  0.00  0.00    +0.034 A 
ATOM     17  C   UNL     1       4.830  -4.044  -5.911  0.00  0.00    +0.027 A 
ATOM     18  C   UNL     1       5.485  -4.422  -7.067  0.00  0.00    +0.047 A 
ATOM     19  C   UNL     1       6.034  -5.692  -7.170  0.00  0.00    +0.121 A 
ATOM     20  C   UNL     1       5.925  -6.583  -6.112  0.00  0.00    +0.047 A 
ATOM     21  C   UNL     1       5.276  -6.204  -4.954  0.00  0.00    +0.027 A 
BRANCH  19  22
ATOM     22  O   UNL     1       6.678  -6.063  -8.308  0.00  0.00    -0.489 OA
BRANCH  22  23
ATOM     23  C   UNL     1       6.707  -5.114  -9.377  0.00  0.00    +0.167 C 
ATOM     24  C   UNL     1       7.909  -5.399 -10.279  0.00  0.00    +0.051 C 
ATOM     25  C   UNL     1       5.418  -5.227 -10.193  0.00  0.00    +0.051 C 
ENDBRANCH  22  23
ENDBRANCH  19  22
ENDBRANCH  14  16
ENDBRANCH   3  12
BRANCH   1  26
ATOM     26  S   UNL     1      -0.009  -4.635  -0.068  0.00  0.00    +0.075 S 
ATOM     27  O   UNL     1      -0.316  -4.215  -1.391  0.00  0.00    -0.150 OA
ATOM     28  O   UNL     1      -0.205  -3.797   1.062  0.00  0.00    -0.150 OA
BRANCH  26  33
ATOM     29  C   UNL     1      -3.207  -9.653   0.931  0.00  0.00    +0.044 C 
ATOM     30  C   UNL     1      -2.408  -8.400   0.682  0.00  0.00    -0.050 A 
ATOM     31  C   UNL     1      -1.987  -7.625   1.746  0.00  0.00    +0.005 A 
ATOM     32  C   UNL     1      -1.255  -6.475   1.517  0.00  0.00    +0.029 A 
ATOM     33  C   UNL     1      -0.942  -6.101   0.224  0.00  0.00    +0.109 A 
ATOM     34  C   UNL     1      -1.362  -6.877  -0.841  0.00  0.00    +0.029 A 
ATOM     35  C   UNL     1      -2.091  -8.028  -0.611  0.00  0.00    +0.005 A 
ENDBRANCH  26  33
ENDBRANCH   1  26
TORSDOF 6
