REMARK  Name = ZINC39413741
REMARK  5 active torsions:
REMARK  status: ('A' for Active; 'I' for Inactive)
REMARK    1  A    between atoms: C_1  and  C_2
REMARK    2  A    between atoms: C_7  and  C_8
REMARK    3  A    between atoms: C_10  and  C_13
REMARK    4  A    between atoms: C_13  and  S_14
REMARK    5  A    between atoms: S_14  and  C_15
REMARK                            x       y       z     vdW  Elec       q    Type
REMARK                         _______ _______ _______ _____ _____    ______ ____
ROOT
ATOM      1  S   UNL     1       1.776  -0.536   6.721  0.00  0.00    -0.082 S 
ENDROOT
BRANCH   1   2
ATOM      2  C   UNL     1       1.767  -1.300   8.308  0.00  0.00    +0.182 C 
ATOM      3  N   UNL     1       0.612  -1.716   8.800  0.00  0.00    -0.151 NA
ATOM      4  C   UNL     1       0.508  -2.311   9.988  0.00  0.00    +0.272 C 
ATOM      5  O   UNL     1      -0.574  -2.680  10.412  0.00  0.00    -0.268 OA
ATOM      6  C   UNL     1       1.760  -2.511  10.788  0.00  0.00    +0.071 C 
ATOM      7  C   UNL     1       1.891  -3.137  11.969  0.00  0.00    -0.042 C 
ATOM      8  C   UNL     1       0.769  -3.921  12.645  0.00  0.00    +0.033 C 
ATOM      9  C   UNL     1       1.312  -5.332  12.909  0.00  0.00    +0.004 C 
ATOM     10  C   UNL     1       2.633  -5.255  13.672  0.00  0.00    +0.002 C 
ATOM     11  C   UNL     1       3.705  -4.549  12.836  0.00  0.00    +0.019 C 
ATOM     12  C   UNL     1       3.272  -3.097  12.613  0.00  0.00    +0.079 C 
ATOM     13  S   UNL     1       4.288  -2.337  11.291  0.00  0.00    -0.097 S 
ATOM     14  C   UNL     1       2.983  -1.995  10.136  0.00  0.00    +0.112 C 
ATOM     15  N   UNL     1       2.926  -1.437   8.954  0.00  0.00    -0.217 NA
ENDBRANCH   1   2
BRANCH   1  16
ATOM     16  C   UNL     1       0.034  -0.554   6.215  0.00  0.00    +0.133 C 
BRANCH  16  19
ATOM     17  C   UNL     1      -0.122  -0.125   2.565  0.00  0.00    +0.109 A 
ATOM     18  N   UNL     1      -0.007  -0.658   3.773  0.00  0.00    -0.243 NA
ATOM     19  C   UNL     1      -0.100   0.080   4.854  0.00  0.00    +0.059 A 
ATOM     20  C   UNL     1      -0.319   1.418   4.745  0.00  0.00    +0.071 A 
ATOM     21  S   UNL     1      -0.383   1.597   2.967  0.00  0.00    -0.075 S 
BRANCH  17  28
ATOM     22  C   UNL     1       2.015  -1.994   2.009  0.00  0.00    +0.044 C 
ATOM     23  C   UNL     1       0.978  -1.682   0.961  0.00  0.00    -0.041 A 
ATOM     24  C   UNL     1       1.039  -2.293  -0.275  0.00  0.00    +0.004 A 
ATOM     25  C   UNL     1       0.087  -2.007  -1.238  0.00  0.00    +0.000 A 
ATOM     26  C   UNL     1      -0.930  -1.109  -0.969  0.00  0.00    +0.001 A 
ATOM     27  C   UNL     1      -1.001  -0.491   0.263  0.00  0.00    +0.011 A 
ATOM     28  C   UNL     1      -0.048  -0.779   1.240  0.00  0.00    +0.010 A 
ENDBRANCH  17  28
ENDBRANCH  16  19
ENDBRANCH   1  16
TORSDOF 4
