REMARK  Name = ZINC42115816
REMARK  3 active torsions:
REMARK  status: ('A' for Active; 'I' for Inactive)
REMARK    1  A    between atoms: C_1  and  C_2
REMARK    2  A    between atoms: C_12  and  N_14
REMARK    3  A    between atoms: N_14  and  C_15
REMARK                            x       y       z     vdW  Elec       q    Type
REMARK                         _______ _______ _______ _____ _____    ______ ____
ROOT
ATOM      1  C   UNL     1      -0.018   1.503   0.010  0.00  0.00    +0.044 C 
ATOM      2  C   UNL     1       0.002  -0.004   0.002  0.00  0.00    -0.047 A 
ATOM      3  C   UNL     1       0.006  -0.691  -1.200  0.00  0.00    +0.011 A 
ATOM      4  C   UNL     1       0.024  -2.068  -1.204  0.00  0.00    +0.006 A 
ATOM      5  C   UNL     1       0.040  -2.783  -0.014  0.00  0.00    +0.075 A 
ATOM      6  C   UNL     1       0.036  -2.085   1.194  0.00  0.00    +0.145 A 
ATOM      7  C   UNL     1       0.023  -0.703   1.195  0.00  0.00    +0.043 A 
ATOM      8  F   UNL     1       0.051  -2.760   2.363  0.00  0.00    -0.204 F 
ATOM      9  N   UNL     1       0.057  -4.155  -0.276  0.00  0.00    -0.281 N 
ATOM     10  C   UNL     1       0.054  -4.421  -1.593  0.00  0.00    +0.242 C 
ATOM     11  O   UNL     1       0.067  -5.520  -2.106  0.00  0.00    -0.273 OA
ATOM     12  C   UNL     1       0.033  -3.092  -2.316  0.00  0.00    +0.190 C 
ATOM     13  H   UNL     1       0.070  -4.837   0.414  0.00  0.00    +0.155 HD
ENDROOT
BRANCH  12  14
ATOM     14  N   UNL     1       1.231  -2.939  -3.145  0.00  0.00    -0.327 N 
ATOM     15  H   UNL     1       2.031  -2.535  -2.772  0.00  0.00    +0.147 HD
BRANCH  14  16
ATOM     16  C   UNL     1       1.223  -3.378  -4.483  0.00  0.00    +0.066 A 
ATOM     17  C   UNL     1       2.260  -3.303  -5.355  0.00  0.00    +0.127 A 
ATOM     18  N   UNL     1       1.842  -3.834  -6.535  0.00  0.00    -0.283 N 
ATOM     19  H   UNL     1       2.371  -3.915  -7.344  0.00  0.00    +0.188 HD
ATOM     20  N   UNL     1       0.512  -4.244  -6.375  0.00  0.00    -0.180 NA
ATOM     21  C   UNL     1       0.144  -3.977  -5.148  0.00  0.00    +0.157 A 
ENDBRANCH  14  16
ENDBRANCH  12  14
TORSDOF 2
