REMARK  Name = ZINC09328494
REMARK  11 active torsions:
REMARK  status: ('A' for Active; 'I' for Inactive)
REMARK    1  A    between atoms: C_1  and  C_2
REMARK    2  A    between atoms: C_2  and  C_3
REMARK    3  A    between atoms: C_2  and  C_4
REMARK    4  A    between atoms: C_4  and  C_5
REMARK    5  A    between atoms: N_10  and  C_11
REMARK    6  A    between atoms: C_11  and  C_13
REMARK    7  A    between atoms: C_13  and  C_14
REMARK    8  A    between atoms: C_14  and  C_15
REMARK    9  A    between atoms: C_22  and  C_23
REMARK   10  A    between atoms: C_22  and  C_29
REMARK   11  A    between atoms: C_22  and  N_68
REMARK                            x       y       z     vdW  Elec       q    Type
REMARK                         _______ _______ _______ _____ _____    ______ ____
ROOT
ATOM      1  C   UNL     1      -2.620   0.996   4.766  0.00  0.00    +0.216 C 
ATOM      2  O   UNL     1      -3.801   0.721   4.759  0.00  0.00    -0.276 OA
ATOM      3  N   UNL     1      -2.039   1.501   3.660  0.00  0.00    -0.305 N 
ATOM      4  C   UNL     1      -2.818   1.728   2.434  0.00  0.00    +0.089 C 
ATOM      5  C   UNL     1      -2.084   1.069   1.261  0.00  0.00    -0.058 C 
ATOM      6  C   UNL     1       0.039   1.178   2.427  0.00  0.00    -0.058 C 
ATOM      7  C   UNL     1      -0.608   1.841   3.648  0.00  0.00    +0.089 C 
ATOM      8  N   UNL     1      -0.701   1.590   1.214  0.00  0.00    +0.389 N 
ATOM      9  H   UNL     1      -0.732   2.616   1.176  0.00  0.00    -0.080 HD
ENDROOT
BRANCH   1  10
ATOM     10  C   UNL     1      -1.802   0.771   6.012  0.00  0.00    +0.105 C 
BRANCH  10  11
ATOM     11  C   UNL     1      -2.696   0.194   7.112  0.00  0.00    +0.107 C 
BRANCH  11  12
ATOM     12  C   UNL     1      -1.878  -0.030   8.357  0.00  0.00    +0.239 C 
ATOM     13  O   UNL     1      -0.693   0.245   8.364  0.00  0.00    -0.274 OA
BRANCH  12  19
ATOM     14  C   UNL     1       0.052  -0.968  12.515  0.00  0.00    +0.102 A 
ATOM     15  N   UNL     1      -1.175  -1.334  12.750  0.00  0.00    -0.170 NA
ATOM     16  N   UNL     1      -2.115  -1.220  11.750  0.00  0.00    -0.256 N 
ATOM     17  H   UNL     1      -3.036  -1.486  11.902  0.00  0.00    +0.191 HD
ATOM     18  C   UNL     1      -1.725  -0.727  10.549  0.00  0.00    +0.181 A 
ATOM     19  N   UNL     1      -2.450  -0.528   9.445  0.00  0.00    -0.155 NA
ATOM     20  S   UNL     1      -0.037  -0.429  10.817  0.00  0.00    -0.036 S 
BRANCH  14  21
ATOM     21  C   UNL     1       1.242  -0.997  13.439  0.00  0.00    +0.067 C 
BRANCH  21  23
ATOM     22  C   UNL     1       3.235  -2.327  14.148  0.00  0.00    +0.007 C 
ATOM     23  C   UNL     1       1.958  -2.343  13.305  0.00  0.00    -0.011 C 
ATOM     24  C   UNL     1       1.037  -3.462  13.796  0.00  0.00    +0.007 C 
ENDBRANCH  21  23
ENDBRANCH  14  21
ENDBRANCH  12  19
ENDBRANCH  11  12
ENDBRANCH  10  11
ENDBRANCH   1  10
BRANCH   8  25
ATOM     25  C   UNL     1      -0.013   1.086   0.008  0.00  0.00    -0.007 C 
BRANCH  25  26
ATOM     26  C   UNL     1       1.401   1.607  -0.003  0.00  0.00    -0.057 A 
ATOM     27  C   UNL     1       1.663   2.902   0.406  0.00  0.00    +0.002 A 
ATOM     28  C   UNL     1       2.961   3.379   0.401  0.00  0.00    +0.000 A 
ATOM     29  C   UNL     1       3.995   2.564  -0.023  0.00  0.00    +0.000 A 
ATOM     30  C   UNL     1       3.732   1.272  -0.437  0.00  0.00    +0.000 A 
ATOM     31  C   UNL     1       2.435   0.793  -0.426  0.00  0.00    +0.002 A 
ENDBRANCH  25  26
BRANCH  25  32
ATOM     32  C   UNL     1      -0.742   1.585  -1.213  0.00  0.00    -0.057 A 
ATOM     33  C   UNL     1      -1.257   2.868  -1.234  0.00  0.00    +0.002 A 
ATOM     34  C   UNL     1      -1.922   3.327  -2.356  0.00  0.00    +0.000 A 
ATOM     35  C   UNL     1      -2.079   2.501  -3.453  0.00  0.00    +0.000 A 
ATOM     36  C   UNL     1      -1.568   1.216  -3.429  0.00  0.00    +0.000 A 
ATOM     37  C   UNL     1      -0.899   0.759  -2.310  0.00  0.00    +0.002 A 
ENDBRANCH  25  32
ENDBRANCH   8  25
TORSDOF 9
