REMARK  Name = ZINC39731438
REMARK  9 active torsions:
REMARK  status: ('A' for Active; 'I' for Inactive)
REMARK    1  A    between atoms: C_1  and  O_2
REMARK    2  A    between atoms: O_2  and  C_3
REMARK    3  A    between atoms: C_5  and  C_12
REMARK    4  A    between atoms: C_7  and  O_10
REMARK    5  A    between atoms: C_8  and  O_9
REMARK    6  A    between atoms: O_10  and  C_11
REMARK    7  A    between atoms: C_18  and  S_22
REMARK    8  A    between atoms: S_22  and  C_23
REMARK    9  A    between atoms: C_23  and  C_24
REMARK                            x       y       z     vdW  Elec       q    Type
REMARK                         _______ _______ _______ _____ _____    ______ ____
ROOT
ATOM      1  C   UNL     1       2.402   0.386  -4.230  0.00  0.00    +0.074 C 
ATOM      2  C   UNL     1       3.890   0.071  -4.344  0.00  0.00    +0.156 C 
ATOM      3  C   UNL     1       4.438   0.685  -5.603  0.00  0.00    +0.145 C 
ATOM      4  N   UNL     1       5.586   1.330  -5.589  0.00  0.00    -0.208 NA
ATOM      5  C   UNL     1       6.253   1.564  -4.460  0.00  0.00    +0.182 C 
ATOM      6  N   UNL     1       5.780   1.215  -3.269  0.00  0.00    -0.154 NA
ATOM      7  C   UNL     1       4.655   0.546  -3.150  0.00  0.00    +0.250 C 
ATOM      8  O   UNL     1       4.235   0.301  -2.035  0.00  0.00    -0.273 OA
ATOM      9  N   UNL     1       3.722   0.628  -6.722  0.00  0.00    -0.236 NA
ATOM     10  C   UNL     1       2.466   0.222  -6.743  0.00  0.00    +0.050 C 
ATOM     11  C   UNL     1       1.744   0.061  -5.555  0.00  0.00    +0.025 C 
ATOM     12  C   UNL     1       0.465  -0.380  -5.556  0.00  0.00    +0.162 C 
ATOM     13  O   UNL     1      -0.179  -0.544  -4.386  0.00  0.00    -0.292 OA
ATOM     14  C   UNL     1      -0.251  -0.689  -6.844  0.00  0.00    +0.080 C 
ATOM     15  C   UNL     1       0.290   0.231  -7.944  0.00  0.00    +0.014 C 
ATOM     16  C   UNL     1       1.798  -0.006  -8.077  0.00  0.00    +0.056 C 
ENDROOT
BRANCH   1  19
ATOM     17  C   UNL     1       0.606  -0.608  -1.056  0.00  0.00    +0.165 A 
ATOM     18  C   UNL     1       1.173   0.160  -2.063  0.00  0.00    +0.054 A 
ATOM     19  C   UNL     1       1.787  -0.452  -3.139  0.00  0.00    -0.032 A 
ATOM     20  C   UNL     1       1.839  -1.831  -3.217  0.00  0.00    +0.054 A 
ATOM     21  C   UNL     1       1.275  -2.606  -2.215  0.00  0.00    +0.165 A 
ATOM     22  C   UNL     1       0.661  -1.994  -1.128  0.00  0.00    +0.201 A 
BRANCH  17  24
ATOM     23  C   UNL     1      -0.017   1.425   0.010  0.00  0.00    +0.277 C 
ATOM     24  O   UNL     1       0.002  -0.004   0.002  0.00  0.00    -0.491 OA
ENDBRANCH  17  24
BRANCH  22  25
ATOM     25  O   UNL     1       0.111  -2.751  -0.140  0.00  0.00    -0.501 OA
ATOM     26  H   UNL     1      -0.817  -2.978  -0.289  0.00  0.00    +0.292 HD
ENDBRANCH  22  25
BRANCH  21  27
ATOM     27  O   UNL     1       1.326  -3.963  -2.293  0.00  0.00    -0.491 OA
ATOM     28  C   UNL     1       1.977  -4.523  -3.435  0.00  0.00    +0.277 C 
ENDBRANCH  21  27
ENDBRANCH   1  19
BRANCH   5  29
ATOM     29  S   UNL     1       7.821   2.363  -4.550  0.00  0.00    -0.084 S 
BRANCH  29  30
ATOM     30  C   UNL     1       8.356   2.475  -2.820  0.00  0.00    +0.115 C 
BRANCH  30  31
ATOM     31  C   UNL     1       9.703   3.149  -2.753  0.00  0.00    -0.002 A 
ATOM     32  C   UNL     1      10.858   2.394  -2.826  0.00  0.00    +0.007 A 
ATOM     33  C   UNL     1      12.093   3.012  -2.765  0.00  0.00    +0.000 A 
ATOM     34  C   UNL     1      12.174   4.386  -2.631  0.00  0.00    +0.003 A 
ATOM     35  C   UNL     1      11.021   5.143  -2.559  0.00  0.00    +0.038 A 
ATOM     36  C   UNL     1       9.783   4.525  -2.625  0.00  0.00    +0.127 A 
ATOM     37  F   UNL     1       8.654   5.265  -2.559  0.00  0.00    -0.205 F 
ENDBRANCH  30  31
ENDBRANCH  29  30
ENDBRANCH   5  29
TORSDOF 7
