REMARK  Name = ZINC41006253
REMARK  11 active torsions:
REMARK  status: ('A' for Active; 'I' for Inactive)
REMARK    1  A    between atoms: C_1  and  C_2
REMARK    2  A    between atoms: C_5  and  N_9
REMARK    3  A    between atoms: C_6  and  C_8
REMARK    4  A    between atoms: C_10  and  C_12
REMARK    5  A    between atoms: C_14  and  C_35
REMARK    6  A    between atoms: C_16  and  C_24
REMARK    7  A    between atoms: C_18  and  C_22
REMARK    8  A    between atoms: C_18  and  O_23
REMARK    9  A    between atoms: N_26  and  C_27
REMARK   10  A    between atoms: C_30  and  C_34
REMARK   11  A    between atoms: C_32  and  C_33
REMARK                            x       y       z     vdW  Elec       q    Type
REMARK                         _______ _______ _______ _____ _____    ______ ____
ROOT
ATOM      1  C   UNL     1      -0.045  -6.209  -0.517  0.00  0.00    +0.152 C 
ATOM      2  C   UNL     1      -0.292  -6.496  -2.002  0.00  0.00    +0.089 C 
ATOM      3  C   UNL     1      -0.558  -7.990  -2.194  0.00  0.00    +0.118 C 
ATOM      4  C   UNL     1      -1.840  -8.387  -1.459  0.00  0.00    +0.082 C 
ATOM      5  C   UNL     1      -1.651  -8.171   0.046  0.00  0.00    +0.110 C 
ATOM      6  C   UNL     1      -1.216  -6.741   0.280  0.00  0.00    +0.149 C 
ATOM      7  O   UNL     1      -1.789  -6.041   1.080  0.00  0.00    -0.296 OA
ATOM      8  C   UNL     1      -3.001  -7.524  -1.957  0.00  0.00    +0.042 C 
ENDROOT
BRANCH   2   9
ATOM      9  C   UNL     1      -1.486  -5.708  -2.475  0.00  0.00    +0.110 A 
ATOM     10  C   UNL     1      -2.231  -4.880  -1.720  0.00  0.00    +0.045 A 
ATOM     11  C   UNL     1      -3.239  -4.356  -2.561  0.00  0.00    +0.041 A 
ATOM     12  C   UNL     1      -3.051  -4.895  -3.779  0.00  0.00    +0.195 A 
ATOM     13  O   UNL     1      -1.984  -5.709  -3.722  0.00  0.00    -0.467 OA
ENDBRANCH   2   9
BRANCH   1  15
ATOM     14  N   UNL     1       0.293  -4.236   0.936  0.00  0.00    -0.285 N 
ATOM     15  C   UNL     1       0.080  -4.723  -0.303  0.00  0.00    +0.228 C 
ATOM     16  O   UNL     1      -0.011  -3.965  -1.245  0.00  0.00    -0.275 OA
ATOM     17  H   UNL     1       0.436  -4.845   1.678  0.00  0.00    +0.155 HD
BRANCH  14  22
ATOM     18  C   UNL     1       0.356   1.369   1.808  0.00  0.00    +0.044 C 
ATOM     19  C   UNL     1       0.339  -0.120   1.576  0.00  0.00    -0.050 A 
ATOM     20  C   UNL     1       0.801  -0.637   0.380  0.00  0.00    +0.005 A 
ATOM     21  C   UNL     1       0.787  -2.001   0.164  0.00  0.00    +0.024 A 
ATOM     22  C   UNL     1       0.309  -2.854   1.151  0.00  0.00    +0.036 A 
ATOM     23  C   UNL     1      -0.154  -2.332   2.351  0.00  0.00    -0.029 A 
ATOM     24  C   UNL     1      -0.133  -0.967   2.563  0.00  0.00    +0.008 A 
ATOM     25  C   UNL     1      -0.673  -3.253   3.425  0.00  0.00    +0.045 C 
ENDBRANCH  14  22
ENDBRANCH   1  15
BRANCH   3  26
ATOM     26  C   UNL     1      -0.713  -8.287  -3.663  0.00  0.00    +0.224 C 
ATOM     27  O   UNL     1      -0.619  -7.392  -4.476  0.00  0.00    -0.275 OA
ATOM     28  N   UNL     1      -0.955  -9.548  -4.074  0.00  0.00    -0.285 N 
ATOM     29  H   UNL     1      -1.097 -10.252  -3.422  0.00  0.00    +0.155 HD
BRANCH  28  30
ATOM     30  C   UNL     1      -1.000  -9.841  -5.441  0.00  0.00    +0.036 A 
ATOM     31  C   UNL     1      -1.367  -8.859  -6.352  0.00  0.00    +0.024 A 
ATOM     32  C   UNL     1      -1.411  -9.152  -7.701  0.00  0.00    +0.005 A 
ATOM     33  C   UNL     1      -1.091 -10.422  -8.145  0.00  0.00    -0.050 A 
ATOM     34  C   UNL     1      -0.727 -11.402  -7.241  0.00  0.00    +0.008 A 
ATOM     35  C   UNL     1      -0.674 -11.114  -5.891  0.00  0.00    -0.029 A 
ATOM     36  C   UNL     1      -0.270 -12.181  -4.907  0.00  0.00    +0.045 C 
ATOM     37  C   UNL     1      -1.141 -10.738  -9.618  0.00  0.00    +0.044 C 
ENDBRANCH  28  30
ENDBRANCH   3  26
BRANCH   4  38
ATOM     38  O   UNL     1      -2.127  -9.764  -1.711  0.00  0.00    -0.388 OA
ATOM     39  H   UNL     1      -2.928 -10.085  -1.275  0.00  0.00    +0.210 HD
ENDBRANCH   4  38
TORSDOF 6
