REMARK  Name = ZINC38657857
REMARK  10 active torsions:
REMARK  status: ('A' for Active; 'I' for Inactive)
REMARK    1  A    between atoms: C_1  and  C_2
REMARK    2  A    between atoms: C_4  and  O_10
REMARK    3  A    between atoms: C_6  and  C_9
REMARK    4  A    between atoms: O_10  and  C_11
REMARK    5  A    between atoms: C_11  and  C_12
REMARK    6  A    between atoms: C_12  and  O_14
REMARK    7  A    between atoms: O_14  and  C_15
REMARK    8  A    between atoms: C_22  and  N_38
REMARK    9  A    between atoms: C_23  and  C_36
REMARK   10  A    between atoms: C_24  and  C_26
REMARK                            x       y       z     vdW  Elec       q    Type
REMARK                         _______ _______ _______ _____ _____    ______ ____
ROOT
ATOM      1  C   UNL     1       0.034  -6.635  -5.133  0.00  0.00    +0.135 A 
ATOM      2  C   UNL     1       0.059  -5.830  -6.263  0.00  0.00    +0.047 A 
ATOM      3  C   UNL     1       0.026  -6.404  -7.519  0.00  0.00    +0.012 A 
ATOM      4  C   UNL     1      -0.032  -7.779  -7.656  0.00  0.00    +0.008 A 
ATOM      5  C   UNL     1      -0.058  -8.588  -6.530  0.00  0.00    +0.138 A 
ATOM      6  C   UNL     1      -0.019  -8.013  -5.267  0.00  0.00    +0.093 A 
ATOM      7  O   UNL     1      -0.116  -9.938  -6.644  0.00  0.00    -0.441 OA
ATOM      8  C   UNL     1      -0.530 -10.496  -7.794  0.00  0.00    +0.199 C 
ATOM      9  C   UNL     1      -0.532  -9.812  -8.963  0.00  0.00    +0.098 C 
ATOM     10  C   UNL     1      -0.067  -8.385  -9.034  0.00  0.00    +0.098 C 
ENDROOT
BRANCH  10  11
ATOM     11  C   UNL     1       1.314  -8.339  -9.635  0.00  0.00    -0.027 A 
ATOM     12  C   UNL     1       2.326  -9.061  -9.079  0.00  0.00    +0.005 A 
ATOM     13  C   UNL     1       3.610  -9.031  -9.620  0.00  0.00    +0.001 A 
ATOM     14  C   UNL     1       3.889  -8.279 -10.720  0.00  0.00    +0.008 A 
ATOM     15  C   UNL     1       2.870  -7.521 -11.321  0.00  0.00    -0.018 A 
ATOM     16  C   UNL     1       1.563  -7.556 -10.774  0.00  0.00    -0.014 A 
ATOM     17  C   UNL     1       0.543  -6.803 -11.379  0.00  0.00    +0.009 A 
ATOM     18  C   UNL     1       0.821  -6.056 -12.482  0.00  0.00    +0.001 A 
ATOM     19  C   UNL     1       2.105  -6.026 -13.024  0.00  0.00    +0.001 A 
ATOM     20  C   UNL     1       3.121  -6.732 -12.457  0.00  0.00    +0.008 A 
ENDBRANCH  10  11
BRANCH   8  21
ATOM     21  N   UNL     1      -0.963 -11.798  -7.783  0.00  0.00    -0.328 N 
ATOM     22  H   UNL     1      -0.967 -12.301  -6.954  0.00  0.00    +0.145 HD
ATOM     23  H   UNL     1      -1.265 -12.216  -8.605  0.00  0.00    +0.145 HD
ENDBRANCH   8  21
BRANCH   9  24
ATOM     24  C   UNL     1      -0.986 -10.463 -10.155  0.00  0.00    +0.101 C 
ATOM     25  N   UNL     1      -1.346 -10.979 -11.101  0.00  0.00    -0.191 NA
ENDBRANCH   9  24
BRANCH   1  26
ATOM     26  O   UNL     1       0.066  -6.072  -3.896  0.00  0.00    -0.423 OA
BRANCH  26  27
ATOM     27  C   UNL     1      -1.065  -5.524  -3.423  0.00  0.00    +0.350 C 
ATOM     28  O   UNL     1      -2.046  -5.461  -4.126  0.00  0.00    -0.247 OA
BRANCH  27  29
ATOM     29  C   UNL     1      -1.111  -4.988  -2.016  0.00  0.00    +0.349 C 
BRANCH  29  30
ATOM     30  O   UNL     1      -2.412  -4.460  -1.749  0.00  0.00    -0.481 OA
BRANCH  30  34
ATOM     31  C   UNL     1      -5.423  -2.292   1.422  0.00  0.00    +0.045 C 
ATOM     32  C   UNL     1      -4.077  -2.868   1.067  0.00  0.00    -0.028 A 
ATOM     33  C   UNL     1      -3.864  -3.403  -0.189  0.00  0.00    +0.050 A 
ATOM     34  C   UNL     1      -2.624  -3.933  -0.515  0.00  0.00    +0.122 A 
ATOM     35  C   UNL     1      -1.600  -3.924   0.421  0.00  0.00    +0.050 A 
ATOM     36  C   UNL     1      -1.817  -3.388   1.676  0.00  0.00    -0.028 A 
ATOM     37  C   UNL     1      -3.053  -2.856   1.998  0.00  0.00    +0.047 A 
ATOM     38 CL   UNL     1      -3.321  -2.177   3.573  0.00  0.00    -0.083 Cl
ATOM     39  C   UNL     1      -0.705  -3.379   2.693  0.00  0.00    +0.045 C 
ENDBRANCH  30  34
ENDBRANCH  29  30
ENDBRANCH  27  29
ENDBRANCH  26  27
ENDBRANCH   1  26
TORSDOF 8
