REMARK  Name = ZINC38651526
REMARK  10 active torsions:
REMARK  status: ('A' for Active; 'I' for Inactive)
REMARK    1  A    between atoms: C_1  and  C_2
REMARK    2  A    between atoms: C_5  and  O_9
REMARK    3  A    between atoms: C_7  and  C_8
REMARK    4  A    between atoms: O_9  and  C_10
REMARK    5  A    between atoms: C_10  and  C_11
REMARK    6  A    between atoms: C_11  and  O_13
REMARK    7  A    between atoms: O_13  and  C_14
REMARK    8  A    between atoms: C_21  and  N_34
REMARK    9  A    between atoms: C_22  and  C_32
REMARK   10  A    between atoms: C_23  and  C_25
REMARK                            x       y       z     vdW  Elec       q    Type
REMARK                         _______ _______ _______ _____ _____    ______ ____
ROOT
ATOM      1  C   UNL     1       0.136  -8.431  -2.058  0.00  0.00    +0.135 A 
ATOM      2  C   UNL     1       0.107  -9.020  -0.802  0.00  0.00    +0.047 A 
ATOM      3  C   UNL     1       0.160 -10.394  -0.683  0.00  0.00    +0.012 A 
ATOM      4  C   UNL     1       0.242 -11.190  -1.812  0.00  0.00    +0.008 A 
ATOM      5  C   UNL     1       0.271 -10.607  -3.069  0.00  0.00    +0.138 A 
ATOM      6  C   UNL     1       0.212  -9.224  -3.191  0.00  0.00    +0.093 A 
ATOM      7  O   UNL     1       0.351 -11.369  -4.188  0.00  0.00    -0.441 OA
ATOM      8  C   UNL     1       0.022 -12.671  -4.136  0.00  0.00    +0.199 C 
ATOM      9  C   UNL     1      -0.022 -13.354  -2.968  0.00  0.00    +0.098 C 
ATOM     10  C   UNL     1       0.300 -12.687  -1.661  0.00  0.00    +0.098 C 
ENDROOT
BRANCH  10  11
ATOM     11  C   UNL     1       1.683 -13.091  -1.220  0.00  0.00    -0.034 A 
ATOM     12  C   UNL     1       2.776 -12.786  -2.010  0.00  0.00    +0.004 A 
ATOM     13  C   UNL     1       4.045 -13.156  -1.607  0.00  0.00    +0.001 A 
ATOM     14  C   UNL     1       4.222 -13.832  -0.413  0.00  0.00    +0.015 A 
ATOM     15  C   UNL     1       3.129 -14.137   0.377  0.00  0.00    +0.018 A 
ATOM     16  C   UNL     1       1.859 -13.761  -0.025  0.00  0.00    +0.020 A 
ATOM     17 BR   UNL     1       3.370 -15.062   2.008  0.00  0.00    -0.050 Br
ENDBRANCH  10  11
BRANCH   8  18
ATOM     18  N   UNL     1      -0.280 -13.327  -5.303  0.00  0.00    -0.328 N 
ATOM     19  H   UNL     1      -0.254 -12.852  -6.148  0.00  0.00    +0.145 HD
ATOM     20  H   UNL     1      -0.520 -14.267  -5.283  0.00  0.00    +0.145 HD
ENDBRANCH   8  18
BRANCH   9  21
ATOM     21  C   UNL     1      -0.381 -14.740  -2.979  0.00  0.00    +0.101 C 
ATOM     22  N   UNL     1      -0.667 -15.839  -2.987  0.00  0.00    -0.191 NA
ENDBRANCH   9  21
BRANCH   1  23
ATOM     23  O   UNL     1       0.084  -7.078  -2.178  0.00  0.00    -0.423 OA
BRANCH  23  24
ATOM     24  C   UNL     1       1.202  -6.379  -1.922  0.00  0.00    +0.350 C 
ATOM     25  O   UNL     1       2.187  -6.945  -1.512  0.00  0.00    -0.247 OA
BRANCH  24  26
ATOM     26  C   UNL     1       1.227  -4.889  -2.147  0.00  0.00    +0.349 C 
BRANCH  26  27
ATOM     27  O   UNL     1       2.517  -4.378  -1.806  0.00  0.00    -0.481 OA
BRANCH  27  32
ATOM     28  C   UNL     1       3.313   1.165  -2.412  0.00  0.00    +0.044 C 
ATOM     29  C   UNL     1       3.100  -0.318  -2.250  0.00  0.00    -0.047 A 
ATOM     30  C   UNL     1       1.875  -0.878  -2.563  0.00  0.00    +0.007 A 
ATOM     31  C   UNL     1       1.677  -2.237  -2.416  0.00  0.00    +0.046 A 
ATOM     32  C   UNL     1       2.709  -3.041  -1.953  0.00  0.00    +0.122 A 
ATOM     33  C   UNL     1       3.937  -2.477  -1.639  0.00  0.00    +0.049 A 
ATOM     34  C   UNL     1       4.131  -1.118  -1.794  0.00  0.00    -0.044 A 
ATOM     35  C   UNL     1       5.467  -0.505  -1.459  0.00  0.00    +0.044 C 
ENDBRANCH  27  32
ENDBRANCH  26  27
ENDBRANCH  24  26
ENDBRANCH  23  24
ENDBRANCH   1  23
TORSDOF 8
