REMARK  Name = ZINC08798011
REMARK  9 active torsions:
REMARK  status: ('A' for Active; 'I' for Inactive)
REMARK    1  A    between atoms: C_1  and  O_2
REMARK    2  A    between atoms: O_2  and  C_3
REMARK    3  A    between atoms: C_6  and  N_12
REMARK    4  A    between atoms: C_7  and  N_9
REMARK    5  A    between atoms: C_13  and  C_15
REMARK    6  A    between atoms: C_15  and  O_16
REMARK    7  A    between atoms: O_16  and  C_17
REMARK    8  A    between atoms: C_25  and  O_28
REMARK    9  A    between atoms: O_28  and  C_29
REMARK                            x       y       z     vdW  Elec       q    Type
REMARK                         _______ _______ _______ _____ _____    ______ ____
ROOT
ATOM      1  C   UNL     1       3.542   1.594   0.014  0.00  0.00    +0.125 A 
ATOM      2  C   UNL     1       3.723   2.974   0.078  0.00  0.00    +0.046 A 
ATOM      3  C   UNL     1       4.981   3.505   0.097  0.00  0.00    +0.019 A 
ATOM      4  C   UNL     1       6.090   2.660   0.042  0.00  0.00    +0.068 A 
ATOM      5  C   UNL     1       5.917   1.266  -0.028  0.00  0.00    +0.142 A 
ATOM      6  C   UNL     1       4.631   0.742  -0.041  0.00  0.00    +0.092 A 
ATOM      7  O   UNL     1       6.995   0.459  -0.082  0.00  0.00    -0.459 OA
ATOM      8  C   UNL     1       8.248   0.934  -0.070  0.00  0.00    +0.245 A 
ATOM      9  C   UNL     1       8.528   2.251  -0.005  0.00  0.00    +0.210 A 
ATOM     10  C   UNL     1       7.463   3.193   0.055  0.00  0.00    +0.234 A 
ATOM     11  O   UNL     1       7.678   4.392   0.115  0.00  0.00    -0.283 OA
ENDROOT
BRANCH   1  12
ATOM     12  O   UNL     1       2.285   1.080   0.001  0.00  0.00    -0.483 OA
BRANCH  12  13
ATOM     13  C   UNL     1       1.203   2.011   0.060  0.00  0.00    +0.324 C 
BRANCH  13  15
ATOM     14  N   UNL     1      -1.270   1.941   0.077  0.00  0.00    -0.281 N 
ATOM     15  C   UNL     1      -0.105   1.264   0.035  0.00  0.00    +0.255 C 
ATOM     16  O   UNL     1      -0.111   0.052  -0.028  0.00  0.00    -0.272 OA
ATOM     17  H   UNL     1      -1.266   2.906   0.176  0.00  0.00    +0.155 HD
BRANCH  14  21
ATOM     18  C   UNL     1      -4.888  -0.110  -0.220  0.00  0.00    +0.122 A 
ATOM     19  C   UNL     1      -3.768  -0.750   0.290  0.00  0.00    +0.047 A 
ATOM     20  C   UNL     1      -2.570  -0.071   0.389  0.00  0.00    +0.029 A 
ATOM     21  C   UNL     1      -2.485   1.252  -0.023  0.00  0.00    +0.064 A 
ATOM     22  C   UNL     1      -3.608   1.893  -0.529  0.00  0.00    +0.151 A 
ATOM     23  C   UNL     1      -4.805   1.212  -0.632  0.00  0.00    +0.080 A 
BRANCH  22  24
ATOM     24  N   UNL     1      -3.520   3.306  -0.964  0.00  0.00    +0.058 N 
ATOM     25  O   UNL     1      -4.526   3.901  -1.307  0.00  0.00    -0.126 OA
ATOM     26  O   UNL     1      -2.443   3.873  -0.978  0.00  0.00    -0.126 OA
ENDBRANCH  22  24
BRANCH  18  28
ATOM     27  C   UNL     1      -6.082  -2.138   0.126  0.00  0.00    +0.277 C 
ATOM     28  O   UNL     1      -6.068  -0.779  -0.317  0.00  0.00    -0.495 OA
ENDBRANCH  18  28
ENDBRANCH  14  21
ENDBRANCH  13  15
ENDBRANCH  12  13
ENDBRANCH   1  12
BRANCH   9  29
ATOM     29  O   UNL     1       9.821   2.676   0.003  0.00  0.00    -0.449 OA
BRANCH  29  30
ATOM     30  C   UNL     1      10.799   1.749  -0.166  0.00  0.00    +0.129 A 
ATOM     31  C   UNL     1      11.033   1.217  -1.439  0.00  0.00    +0.047 A 
ATOM     32  C   UNL     1      12.008   0.291  -1.641  0.00  0.00    +0.012 A 
ATOM     33  C   UNL     1      12.787  -0.149  -0.557  0.00  0.00    -0.018 A 
ATOM     34  C   UNL     1      13.799  -1.109  -0.729  0.00  0.00    +0.008 A 
ATOM     35  C   UNL     1      14.535  -1.512   0.343  0.00  0.00    +0.001 A 
ATOM     36  C   UNL     1      14.301  -0.988   1.612  0.00  0.00    +0.001 A 
ATOM     37  C   UNL     1      13.329  -0.057   1.818  0.00  0.00    +0.008 A 
ATOM     38  C   UNL     1      12.549   0.385   0.735  0.00  0.00    -0.014 A 
ATOM     39  C   UNL     1      11.538   1.344   0.909  0.00  0.00    +0.054 A 
ENDBRANCH  29  30
ENDBRANCH   9  29
TORSDOF 8
