REMARK  Name = ZINC39991919
REMARK  6 active torsions:
REMARK  status: ('A' for Active; 'I' for Inactive)
REMARK    1  A    between atoms: C_4  and  C_7
REMARK    2  A    between atoms: C_7  and  C_9
REMARK    3  A    between atoms: C_7  and  S_16
REMARK    4  A    between atoms: S_16  and  C_17
REMARK    5  A    between atoms: C_21  and  C_26
REMARK    6  A    between atoms: N_22  and  C_23
REMARK                            x       y       z     vdW  Elec       q    Type
REMARK                         _______ _______ _______ _____ _____    ______ ____
ROOT
ATOM      1  C   UNL     1       3.890  -0.580   2.739  0.00  0.00    +0.238 C 
ATOM      2  N   UNL     1       2.704   0.270   2.543  0.00  0.00    -0.237 N 
ATOM      3  N   UNL     1       3.157   1.595   2.563  0.00  0.00    -0.169 NA
ATOM      4  C   UNL     1       4.450   1.652   2.744  0.00  0.00    +0.147 C 
ATOM      5  N   UNL     1       5.006   0.373   2.867  0.00  0.00    -0.282 N 
ATOM      6  H   UNL     1       1.790  -0.029   2.423  0.00  0.00    +0.171 HD
ENDROOT
BRANCH   4   7
ATOM      7  C   UNL     1       5.188   2.844   2.809  0.00  0.00    +0.022 C 
ATOM      8  C   UNL     1       4.689   4.147   2.793  0.00  0.00    +0.006 A 
ATOM      9  C   UNL     1       3.378   4.665   2.715  0.00  0.00    +0.010 A 
ATOM     10  C   UNL     1       3.184   6.009   2.721  0.00  0.00    +0.001 A 
ATOM     11  C   UNL     1       4.254   6.902   2.803  0.00  0.00    +0.002 A 
ATOM     12  C   UNL     1       5.539   6.474   2.881  0.00  0.00    +0.026 A 
ATOM     13  C   UNL     1       5.820   5.084   2.880  0.00  0.00    +0.043 A 
ATOM     14  N   UNL     1       6.961   4.425   2.946  0.00  0.00    -0.380 N 
ATOM     15  C   UNL     1       6.690   2.985   2.916  0.00  0.00    +0.152 C 
ATOM     16  H   UNL     1       7.840   4.830   3.010  0.00  0.00    +0.160 HD
ENDBRANCH   4   7
BRANCH   5  17
ATOM     17  C   UNL     1       6.417   0.044   3.080  0.00  0.00    +0.078 C 
ATOM     18  C   UNL     1       6.804  -1.436   3.093  0.00  0.00    +0.024 C 
ATOM     19  C   UNL     1       6.793  -0.636   4.398  0.00  0.00    +0.024 C 
ENDBRANCH   5  17
BRANCH   1  20
ATOM     20  S   UNL     1       4.141  -1.661   1.304  0.00  0.00    -0.101 S 
BRANCH  20  21
ATOM     21  C   UNL     1       4.265  -0.512  -0.094  0.00  0.00    +0.165 C 
BRANCH  21  22
ATOM     22  C   UNL     1       4.599  -1.280  -1.347  0.00  0.00    +0.233 C 
ATOM     23  O   UNL     1       4.306  -2.453  -1.436  0.00  0.00    -0.274 OA
ATOM     24  N   UNL     1       5.223  -0.662  -2.370  0.00  0.00    -0.300 N 
ATOM     25  C   UNL     1       5.639   0.748  -2.394  0.00  0.00    +0.108 C 
ATOM     26  C   UNL     1       6.286   1.011  -3.770  0.00  0.00    +0.020 C 
ATOM     27  C   UNL     1       5.690  -0.114  -4.656  0.00  0.00    +0.020 C 
ATOM     28  C   UNL     1       5.607  -1.290  -3.647  0.00  0.00    +0.108 C 
ENDBRANCH  21  22
BRANCH  21  32
ATOM     29  C   UNL     1       0.537   1.508  -0.616  0.00  0.00    +0.000 A 
ATOM     30  C   UNL     1       1.684   2.232  -0.350  0.00  0.00    +0.000 A 
ATOM     31  C   UNL     1       2.890   1.579  -0.182  0.00  0.00    +0.005 A 
ATOM     32  C   UNL     1       2.950   0.201  -0.278  0.00  0.00    -0.026 A 
ATOM     33  C   UNL     1       1.802  -0.523  -0.542  0.00  0.00    +0.005 A 
ATOM     34  C   UNL     1       0.596   0.130  -0.712  0.00  0.00    +0.000 A 
ENDBRANCH  21  32
ENDBRANCH  20  21
ENDBRANCH   1  20
TORSDOF 6
