REMARK  Name = ZINC09278702
REMARK  9 active torsions:
REMARK  status: ('A' for Active; 'I' for Inactive)
REMARK    1  A    between atoms: C_1  and  C_2
REMARK    2  A    between atoms: C_7  and  N_8
REMARK    3  A    between atoms: C_9  and  C_11
REMARK    4  A    between atoms: C_11  and  S_12
REMARK    5  A    between atoms: S_12  and  C_13
REMARK    6  A    between atoms: C_16  and  C_25
REMARK    7  A    between atoms: N_17  and  C_18
REMARK    8  A    between atoms: C_23  and  C_24
REMARK    9  A    between atoms: C_25  and  N_26
REMARK                            x       y       z     vdW  Elec       q    Type
REMARK                         _______ _______ _______ _____ _____    ______ ____
ROOT
ATOM      1  C   UNL     1       2.326   6.113  -3.223  0.00  0.00    +0.197 A 
ATOM      2  N   UNL     1       1.538   7.162  -3.202  0.00  0.00    -0.122 NA
ATOM      3  N   UNL     1       1.050   7.321  -2.023  0.00  0.00    -0.131 NA
ATOM      4  C   UNL     1       1.493   6.390  -1.226  0.00  0.00    +0.159 A 
ATOM      5  N   UNL     1       2.327   5.588  -1.960  0.00  0.00    -0.272 N 
ENDROOT
BRANCH   5   6
ATOM      6  C   UNL     1       3.033   4.462  -1.510  0.00  0.00    +0.053 A 
ATOM      7  C   UNL     1       2.513   3.190  -1.709  0.00  0.00    +0.026 A 
ATOM      8  C   UNL     1       3.210   2.084  -1.265  0.00  0.00    +0.002 A 
ATOM      9  C   UNL     1       4.425   2.242  -0.623  0.00  0.00    +0.000 A 
ATOM     10  C   UNL     1       4.945   3.507  -0.424  0.00  0.00    +0.005 A 
ATOM     11  C   UNL     1       4.255   4.617  -0.871  0.00  0.00    -0.027 A 
ATOM     12  C   UNL     1       4.825   5.996  -0.659  0.00  0.00    +0.046 C 
ENDBRANCH   5   6
BRANCH   1  13
ATOM     13  S   UNL     1       3.218   5.500  -4.613  0.00  0.00    -0.076 S 
BRANCH  13  14
ATOM     14  C   UNL     1       2.713   6.704  -5.866  0.00  0.00    +0.173 C 
BRANCH  14  16
ATOM     15  N   UNL     1       3.143   7.136  -8.264  0.00  0.00    -0.285 N 
ATOM     16  C   UNL     1       3.374   6.370  -7.179  0.00  0.00    +0.227 C 
ATOM     17  O   UNL     1       4.113   5.412  -7.260  0.00  0.00    -0.275 OA
ATOM     18  H   UNL     1       2.621   7.949  -8.181  0.00  0.00    +0.155 HD
BRANCH  15  25
ATOM     19  C   UNL     1       1.687   7.869 -10.596  0.00  0.00    +0.045 C 
ATOM     20  C   UNL     1       2.977   7.095 -10.673  0.00  0.00    -0.029 A 
ATOM     21  C   UNL     1       3.486   6.719 -11.901  0.00  0.00    +0.005 A 
ATOM     22  C   UNL     1       4.670   6.009 -11.973  0.00  0.00    +0.000 A 
ATOM     23  C   UNL     1       5.349   5.672 -10.816  0.00  0.00    +0.002 A 
ATOM     24  C   UNL     1       4.848   6.048  -9.585  0.00  0.00    +0.023 A 
ATOM     25  C   UNL     1       3.656   6.757  -9.509  0.00  0.00    +0.036 A 
ENDBRANCH  15  25
ENDBRANCH  14  16
ENDBRANCH  13  14
ENDBRANCH   1  13
BRANCH   4  26
ATOM     26  C   UNL     1       1.156   6.229   0.234  0.00  0.00    +0.202 C 
BRANCH  26  27
ATOM     27  N   UNL     1      -0.240   5.805   0.369  0.00  0.00    -0.294 N 
ATOM     28  C   UNL     1      -0.534   4.464   0.549  0.00  0.00    +0.060 A 
ATOM     29  C   UNL     1       0.367   3.389   0.625  0.00  0.00    +0.027 A 
ATOM     30  C   UNL     1      -0.081   2.103   0.808  0.00  0.00    +0.002 A 
ATOM     31  C   UNL     1      -1.433   1.823   0.923  0.00  0.00    +0.001 A 
ATOM     32  C   UNL     1      -2.345   2.862   0.846  0.00  0.00    +0.017 A 
ATOM     33  C   UNL     1      -1.895   4.148   0.669  0.00  0.00    +0.041 A 
ATOM     34  S   UNL     1      -2.692   5.729   0.525  0.00  0.00    -0.027 S 
ATOM     35  C   UNL     1      -1.224   6.724   0.317  0.00  0.00    +0.292 A 
ATOM     36  O   UNL     1      -1.135   7.929   0.167  0.00  0.00    -0.259 OA
ENDBRANCH  26  27
ENDBRANCH   4  26
TORSDOF 7
