REMARK  Name = ZINC39605781
REMARK  7 active torsions:
REMARK  status: ('A' for Active; 'I' for Inactive)
REMARK    1  A    between atoms: C_1  and  C_2
REMARK    2  A    between atoms: C_2  and  C_3
REMARK    3  A    between atoms: C_3  and  C_5
REMARK    4  A    between atoms: C_3  and  C_6
REMARK    5  A    between atoms: C_6  and  N_7
REMARK    6  A    between atoms: C_8  and  C_10
REMARK    7  A    between atoms: C_21  and  C_23
REMARK                            x       y       z     vdW  Elec       q    Type
REMARK                         _______ _______ _______ _____ _____    ______ ____
ROOT
ATOM      1  C   UNL     1       2.061  -4.272   4.326  0.00  0.00    +0.100 C 
ATOM      2  C   UNL     1       1.262  -3.672   5.505  0.00  0.00    +0.121 C 
ATOM      3  N   UNL     1       0.221  -4.683   5.804  0.00  0.00    -0.296 N 
ATOM      4  C   UNL     1       0.914  -5.984   5.648  0.00  0.00    +0.115 C 
ATOM      5  C   UNL     1       1.832  -5.790   4.425  0.00  0.00    -0.004 C 
ATOM      6  C   UNL     1       1.146  -6.304   3.164  0.00  0.00    -0.010 C 
ATOM      7  C   UNL     1       0.981  -7.824   3.262  0.00  0.00    -0.082 C 
ATOM      8  N   UNL     1       2.298  -8.452   3.417  0.00  0.00    +0.379 N 
ATOM      9  C   UNL     1       2.913  -8.022   4.679  0.00  0.00    -0.082 C 
ATOM     10  C   UNL     1       3.159  -6.511   4.641  0.00  0.00    -0.010 C 
ATOM     11  C   UNL     1      -1.066  -4.468   6.142  0.00  0.00    +0.247 C 
ATOM     12  O   UNL     1      -1.780  -5.404   6.444  0.00  0.00    -0.270 OA
ATOM     13  H   UNL     1       2.193  -9.455   3.421  0.00  0.00    -0.086 HD
ATOM     14  H   UNL     1       2.891  -8.181   2.647  0.00  0.00    -0.086 HD
ENDROOT
BRANCH  11  15
ATOM     15  C   UNL     1      -1.609  -3.094   6.144  0.00  0.00    +0.045 A 
ATOM     16  C   UNL     1      -0.930  -2.071   6.816  0.00  0.00    +0.014 A 
ATOM     17  C   UNL     1      -1.434  -0.788   6.820  0.00  0.00    +0.001 A 
ATOM     18  C   UNL     1      -2.618  -0.497   6.159  0.00  0.00    +0.012 A 
ATOM     19  C   UNL     1      -3.308  -1.499   5.486  0.00  0.00    +0.031 A 
ATOM     20  C   UNL     1      -2.803  -2.808   5.469  0.00  0.00    +0.006 A 
ATOM     21  C   UNL     1      -3.725  -3.664   4.681  0.00  0.00    -0.006 A 
ATOM     22  C   UNL     1      -3.692  -5.016   4.365  0.00  0.00    +0.009 A 
ATOM     23  C   UNL     1      -4.702  -5.573   3.596  0.00  0.00    +0.001 A 
ATOM     24  C   UNL     1      -5.745  -4.792   3.138  0.00  0.00    +0.001 A 
ATOM     25  C   UNL     1      -5.792  -3.441   3.444  0.00  0.00    +0.012 A 
ATOM     26  C   UNL     1      -4.786  -2.870   4.215  0.00  0.00    +0.030 A 
ATOM     27  C   UNL     1      -4.570  -1.489   4.709  0.00  0.00    +0.194 C 
ATOM     28  O   UNL     1      -5.284  -0.529   4.503  0.00  0.00    -0.287 OA
ENDBRANCH  11  15
BRANCH   1  30
ATOM     29  N   UNL     1       2.362  -3.622   1.958  0.00  0.00    -0.315 N 
ATOM     30  C   UNL     1       1.535  -3.747   3.015  0.00  0.00    +0.218 C 
ATOM     31  O   UNL     1       0.367  -3.437   2.910  0.00  0.00    -0.275 OA
ATOM     32  H   UNL     1       3.296  -3.870   2.041  0.00  0.00    +0.149 HD
BRANCH  29  33
ATOM     33  C   UNL     1       1.851  -3.112   0.683  0.00  0.00    +0.107 C 
BRANCH  33  34
ATOM     34  C   UNL     1       2.986  -3.070  -0.342  0.00  0.00    +0.003 C 
ATOM     35  C   UNL     1       3.459  -4.495  -0.637  0.00  0.00    +0.009 C 
BRANCH  34  37
ATOM     36  C   UNL     1       3.648  -2.267  -2.613  0.00  0.00    +0.004 C 
ATOM     37  C   UNL     1       2.483  -2.422  -1.633  0.00  0.00    +0.001 C 
ENDBRANCH  34  37
ENDBRANCH  33  34
ENDBRANCH  29  33
ENDBRANCH   1  30
TORSDOF 5
