REMARK  Name = ZINC45204275
REMARK  6 active torsions:
REMARK  status: ('A' for Active; 'I' for Inactive)
REMARK    1  A    between atoms: C_1  and  C_2
REMARK    2  A    between atoms: C_2  and  C_3
REMARK    3  A    between atoms: C_2  and  C_4
REMARK    4  A    between atoms: C_2  and  C_5
REMARK    5  A    between atoms: C_11  and  N_13
REMARK    6  A    between atoms: C_14  and  C_16
REMARK                            x       y       z     vdW  Elec       q    Type
REMARK                         _______ _______ _______ _____ _____    ______ ____
ROOT
ATOM      1  N   UNL     1       2.163   1.387  -1.333  0.00  0.00    -0.308 N 
ATOM      2  C   UNL     1       3.323   1.978  -0.984  0.00  0.00    +0.244 C 
ATOM      3  O   UNL     1       4.295   1.299  -0.718  0.00  0.00    -0.270 OA
ATOM      4  H   UNL     1       1.387   1.930  -1.546  0.00  0.00    +0.149 HD
ENDROOT
BRANCH   2   5
ATOM      5  C   UNL     1       3.412   3.450  -0.924  0.00  0.00    +0.039 A 
ATOM      6  C   UNL     1       2.294   4.232  -1.224  0.00  0.00    +0.017 A 
ATOM      7  C   UNL     1       2.376   5.607  -1.168  0.00  0.00    +0.048 A 
ATOM      8  C   UNL     1       3.570   6.218  -0.814  0.00  0.00    +0.142 A 
ATOM      9  C   UNL     1       4.692   5.442  -0.514  0.00  0.00    +0.076 A 
ATOM     10  C   UNL     1       4.615   4.064  -0.562  0.00  0.00    +0.040 A 
ATOM     11  N   UNL     1       5.891   6.079  -0.159  0.00  0.00    -0.280 N 
ATOM     12  C   UNL     1       5.860   7.383   0.191  0.00  0.00    +0.255 C 
ATOM     13  O   UNL     1       6.887   7.963   0.473  0.00  0.00    -0.272 OA
ATOM     14  C   UNL     1       4.543   8.116   0.230  0.00  0.00    +0.325 C 
ATOM     15  O   UNL     1       3.661   7.572  -0.756  0.00  0.00    -0.481 OA
ATOM     16  H   UNL     1       6.728   5.590  -0.165  0.00  0.00    +0.155 HD
ENDBRANCH   2   5
BRANCH   1  22
ATOM     17  C   UNL     1       0.643  -0.511  -1.071  0.00  0.00    +0.015 C 
ATOM     18  C   UNL     1       0.550  -2.037  -1.133  0.00  0.00    +0.006 C 
ATOM     19  C   UNL     1       0.926  -2.514  -2.538  0.00  0.00    +0.000 C 
ATOM     20  C   UNL     1       2.356  -2.077  -2.860  0.00  0.00    +0.002 C 
ATOM     21  C   UNL     1       2.449  -0.551  -2.797  0.00  0.00    +0.022 C 
ATOM     22  C   UNL     1       2.074  -0.074  -1.393  0.00  0.00    +0.077 C 
BRANCH  17  24
ATOM     23  C   UNL     1       0.197   1.494   0.351  0.00  0.00    +0.011 C 
ATOM     24  C   UNL     1       0.268  -0.034   0.333  0.00  0.00    -0.033 C 
ATOM     25  C   UNL     1       1.325  -0.507   1.332  0.00  0.00    +0.011 C 
ATOM     26  C   UNL     1      -1.095  -0.612   0.721  0.00  0.00    +0.011 C 
ENDBRANCH  17  24
ENDBRANCH   1  22
TORSDOF 3
