REMARK  Name = ZINC08789513
REMARK  3 active torsions:
REMARK  status: ('A' for Active; 'I' for Inactive)
REMARK    1  A    between atoms: C_4  and  C_7
REMARK    2  A    between atoms: C_7  and  C_8
REMARK    3  A    between atoms: N_16  and  C_19
REMARK                            x       y       z     vdW  Elec       q    Type
REMARK                         _______ _______ _______ _____ _____    ______ ____
ROOT
ATOM      1  C   UNL     1      -0.753   1.593  -1.232  0.00  0.00    -0.053 C 
ATOM      2  C   UNL     1       0.002   1.180  -2.513  0.00  0.00    +0.073 C 
ATOM      3  C   UNL     1      -1.113   0.828  -3.537  0.00  0.00    +0.088 C 
ATOM      4  C   UNL     1      -0.912  -0.652  -3.774  0.00  0.00    +0.225 C 
ATOM      5  O   UNL     1      -1.576  -1.338  -4.521  0.00  0.00    -0.275 OA
ATOM      6  N   UNL     1       0.111  -1.087  -3.030  0.00  0.00    -0.239 N 
ATOM      7  C   UNL     1       0.695  -0.143  -2.282  0.00  0.00    +0.224 C 
ATOM      8  O   UNL     1       1.633  -0.322  -1.536  0.00  0.00    -0.275 OA
ATOM      9  C   UNL     1      -2.424   1.055  -2.773  0.00  0.00    +0.050 C 
ATOM     10  C   UNL     1      -3.476   0.061  -3.174  0.00  0.00    -0.028 A 
ATOM     11  C   UNL     1      -3.546  -1.314  -3.137  0.00  0.00    +0.004 A 
ATOM     12  C   UNL     1      -4.680  -1.962  -3.592  0.00  0.00    +0.000 A 
ATOM     13  C   UNL     1      -5.744  -1.227  -4.083  0.00  0.00    +0.002 A 
ATOM     14  C   UNL     1      -5.679   0.150  -4.121  0.00  0.00    +0.023 A 
ATOM     15  C   UNL     1      -4.541   0.811  -3.665  0.00  0.00    +0.036 A 
ATOM     16  N   UNL     1      -4.241   2.174  -3.601  0.00  0.00    -0.286 N 
ATOM     17  C   UNL     1      -3.016   2.401  -3.088  0.00  0.00    +0.211 C 
ATOM     18  O   UNL     1      -2.493   3.481  -2.915  0.00  0.00    -0.277 OA
ATOM     19  H   UNL     1      -4.845   2.875  -3.891  0.00  0.00    +0.155 HD
ATOM     20  N   UNL     1      -2.064   0.956  -1.369  0.00  0.00    +0.394 N 
ATOM     21  H   UNL     1      -2.758   1.443  -0.789  0.00  0.00    -0.083 HD
ATOM     22  H   UNL     1      -2.012  -0.029  -1.084  0.00  0.00    -0.083 HD
ENDROOT
BRANCH   6  23
ATOM     23  C   UNL     1       0.558  -2.482  -3.035  0.00  0.00    +0.084 C 
ATOM     24  C   UNL     1       0.365  -3.073  -1.623  0.00  0.00    +0.023 C 
ATOM     25  C   UNL     1       0.326  -4.573  -1.734  0.00  0.00    +0.002 C 
ATOM     26  C   UNL     1       1.707  -5.218  -1.504  0.00  0.00    +0.000 C 
ATOM     27  C   UNL     1       2.849  -4.444  -2.190  0.00  0.00    +0.000 C 
ATOM     28  C   UNL     1       2.479  -3.975  -3.571  0.00  0.00    +0.002 C 
ATOM     29  C   UNL     1       1.945  -2.532  -3.473  0.00  0.00    +0.023 C 
ENDBRANCH   6  23
BRANCH   1  30
ATOM     30  C   UNL     1      -0.013   1.086   0.008  0.00  0.00    +0.020 C 
BRANCH  30  34
ATOM     31  C   UNL     1      -2.012   2.463   3.523  0.00  0.00    +0.000 A 
ATOM     32  C   UNL     1      -2.366   1.254   2.955  0.00  0.00    +0.000 A 
ATOM     33  C   UNL     1      -1.719   0.808   1.818  0.00  0.00    +0.003 A 
ATOM     34  C   UNL     1      -0.718   1.572   1.248  0.00  0.00    -0.049 A 
ATOM     35  C   UNL     1      -0.360   2.779   1.819  0.00  0.00    +0.003 A 
ATOM     36  C   UNL     1      -1.010   3.227   2.953  0.00  0.00    +0.000 A 
ENDBRANCH  30  34
ENDBRANCH   1  30
TORSDOF 3
