REMARK  Name = ZINC63386356
REMARK  1 active torsions:
REMARK  status: ('A' for Active; 'I' for Inactive)
REMARK    1  A    between atoms: C_7  and  C_17
REMARK                            x       y       z     vdW  Elec       q    Type
REMARK                         _______ _______ _______ _____ _____    ______ ____
ROOT
ATOM      1  C   UNL     1      -0.017   1.399   0.010  0.00  0.00    +0.022 A 
ATOM      2  C   UNL     1       1.110   2.141   0.003  0.00  0.00    +0.027 A 
ATOM      3  C   UNL     1       2.386   1.515  -0.013  0.00  0.00    +0.043 A 
ATOM      4  N   UNL     1       3.602   2.013  -0.046  0.00  0.00    -0.376 N 
ATOM      5  C   UNL     1       4.555   0.912   0.046  0.00  0.00    +0.128 C 
ATOM      6  C   UNL     1       5.549   0.893  -1.118  0.00  0.00    +0.121 C 
ATOM      7  N   UNL     1       6.262  -0.394  -1.097  0.00  0.00    -0.307 NA
ATOM      8  C   UNL     1       5.398  -1.539  -1.395  0.00  0.00    +0.086 C 
ATOM      9  C   UNL     1       4.346  -1.710  -0.283  0.00  0.00    +0.048 C 
ATOM     10  C   UNL     1       3.717  -0.353  -0.058  0.00  0.00    -0.035 C 
ATOM     11  C   UNL     1       2.436   0.032  -0.030  0.00  0.00    +0.001 A 
ATOM     12  C   UNL     1       1.162  -0.700  -0.017  0.00  0.00    +0.030 A 
ATOM     13  C   UNL     1       0.002  -0.004   0.002  0.00  0.00    +0.042 A 
ATOM     14 CL   UNL     1      -1.502  -0.870   0.018  0.00  0.00    -0.084 Cl
ATOM     15  H   UNL     1       7.062  -0.374  -1.712  0.00  0.00    +0.123 HD
ATOM     16  H   UNL     1       3.828   2.954  -0.120  0.00  0.00    +0.160 HD
ENDROOT
BRANCH   6  17
ATOM     17  C   UNL     1       6.534   2.023  -0.963  0.00  0.00    +0.100 A 
ATOM     18  H   UNL     1       7.495   4.793  -2.370  0.00  0.00    +0.173 HD
ATOM     19  C   UNL     1       7.419   2.045   0.106  0.00  0.00    +0.263 A 
ATOM     20  O   UNL     1       7.407   1.062   1.010  0.00  0.00    -0.267 OA
ATOM     21  N   UNL     1       8.299   3.075   0.225  0.00  0.00    -0.275 N 
ATOM     22  C   UNL     1       8.315   4.068  -0.683  0.00  0.00    +0.329 A 
ATOM     23  O   UNL     1       9.109   4.980  -0.558  0.00  0.00    -0.247 OA
ATOM     24  N   UNL     1       7.466   4.068  -1.727  0.00  0.00    -0.275 N 
ATOM     25  C   UNL     1       6.573   3.056  -1.891  0.00  0.00    +0.263 A 
ATOM     26  O   UNL     1       5.737   3.058  -2.932  0.00  0.00    -0.267 OA
ATOM     27  H   UNL     1       8.919   3.095   0.970  0.00  0.00    +0.173 HD
ENDBRANCH   6  17
TORSDOF 1
