REMARK  Name = ZINC07780913
REMARK  6 active torsions:
REMARK  status: ('A' for Active; 'I' for Inactive)
REMARK    1  A    between atoms: C_4  and  N_29
REMARK    2  A    between atoms: C_5  and  C_7
REMARK    3  A    between atoms: C_8  and  C_9
REMARK    4  A    between atoms: N_10  and  N_11
REMARK    5  A    between atoms: C_12  and  C_14
REMARK    6  A    between atoms: C_16  and  C_24
REMARK                            x       y       z     vdW  Elec       q    Type
REMARK                         _______ _______ _______ _____ _____    ______ ____
ROOT
ATOM      1  N   UNL     1       3.770   1.629  -0.076  0.00  0.00    -0.203 N 
ATOM      2  C   UNL     1       4.918   0.958  -0.296  0.00  0.00    +0.264 C 
ATOM      3  O   UNL     1       4.888  -0.230  -0.552  0.00  0.00    -0.268 OA
ATOM      4  H   UNL     1       3.794   2.577   0.129  0.00  0.00    +0.178 HD
ENDROOT
BRANCH   2   5
ATOM      5  C   UNL     1       6.213   1.666  -0.225  0.00  0.00    +0.050 A 
ATOM      6  C   UNL     1       6.275   3.043  -0.073  0.00  0.00    +0.045 A 
ATOM      7  C   UNL     1       7.529   3.675  -0.010  0.00  0.00    +0.107 A 
ATOM      8  N   UNL     1       8.660   3.002  -0.091  0.00  0.00    -0.244 NA
ATOM      9  C   UNL     1       8.692   1.676  -0.238  0.00  0.00    +0.073 A 
ATOM     10  C   UNL     1       7.482   0.941  -0.308  0.00  0.00    +0.013 A 
ATOM     11  C   UNL     1       7.521  -0.449  -0.457  0.00  0.00    +0.011 A 
ATOM     12  C   UNL     1       8.724  -1.086  -0.529  0.00  0.00    +0.001 A 
ATOM     13  C   UNL     1       9.917  -0.370  -0.458  0.00  0.00    +0.002 A 
ATOM     14  C   UNL     1       9.915   0.985  -0.322  0.00  0.00    +0.028 A 
BRANCH   7  15
ATOM     15  C   UNL     1       7.581   5.140   0.153  0.00  0.00    +0.153 A 
ATOM     16  C   UNL     1       8.711   5.895   0.235  0.00  0.00    +0.051 A 
ATOM     17  C   UNL     1       8.295   7.232   0.381  0.00  0.00    +0.042 A 
ATOM     18  C   UNL     1       6.946   7.228   0.389  0.00  0.00    +0.196 A 
ATOM     19  O   UNL     1       6.519   5.964   0.251  0.00  0.00    -0.461 OA
ENDBRANCH   7  15
ENDBRANCH   2   5
BRANCH   1  21
ATOM     20  C   UNL     1       1.433   1.607   0.070  0.00  0.00    +0.130 C 
ATOM     21  N   UNL     1       2.542   0.958  -0.142  0.00  0.00    -0.188 NA
BRANCH  20  23
ATOM     22  C   UNL     1      -0.959   1.601   0.218  0.00  0.00    +0.012 C 
ATOM     23  C   UNL     1       0.190   0.927   0.003  0.00  0.00    +0.022 C 
BRANCH  22  28
ATOM     24  C   UNL     1      -3.506  -1.152   0.129  0.00  0.00    +0.001 A 
ATOM     25  C   UNL     1      -4.678  -0.428  -0.001  0.00  0.00    +0.002 A 
ATOM     26  C   UNL     1      -4.643   0.954  -0.060  0.00  0.00    +0.033 A 
ATOM     27  C   UNL     1      -3.439   1.621   0.015  0.00  0.00    +0.133 A 
ATOM     28  C   UNL     1      -2.249   0.897   0.141  0.00  0.00    +0.005 A 
ATOM     29  C   UNL     1      -2.293  -0.500   0.201  0.00  0.00    +0.010 A 
BRANCH  27  30
ATOM     30  N   UNL     1      -3.404   3.100  -0.042  0.00  0.00    +0.057 N 
ATOM     31  O   UNL     1      -4.443   3.736  -0.002  0.00  0.00    -0.126 OA
ATOM     32  O   UNL     1      -2.338   3.682  -0.130  0.00  0.00    -0.126 OA
ENDBRANCH  27  30
ENDBRANCH  22  28
ENDBRANCH  20  23
ENDBRANCH   1  21
TORSDOF 6
