REMARK  Name = ZINC12497352
REMARK  11 active torsions:
REMARK  status: ('A' for Active; 'I' for Inactive)
REMARK    1  A    between atoms: C_1  and  C_2
REMARK    2  A    between atoms: C_2  and  C_3
REMARK    3  A    between atoms: C_3  and  C_4
REMARK    4  A    between atoms: C_4  and  C_30
REMARK    5  A    between atoms: C_9  and  C_11
REMARK    6  A    between atoms: C_14  and  C_17
REMARK    7  A    between atoms: N_20  and  C_23
REMARK    8  A    between atoms: C_26  and  C_29
REMARK    9  A    between atoms: C_30  and  O_32
REMARK   10  A    between atoms: O_32  and  C_33
REMARK   11  A    between atoms: C_33  and  C_34
REMARK                            x       y       z     vdW  Elec       q    Type
REMARK                         _______ _______ _______ _____ _____    ______ ____
ROOT
ATOM      1  C   UNL     1      -0.817   1.643   3.667  0.00  0.00    +0.044 C 
ATOM      2  C   UNL     1       0.177   1.716   4.750  0.00  0.00    +0.086 C 
ATOM      3  C   UNL     1       0.817   3.147   4.540  0.00  0.00    +0.077 C 
ATOM      4  C   UNL     1      -0.510   3.906   4.433  0.00  0.00    -0.027 C 
ATOM      5  C   UNL     1       1.591   3.157   5.830  0.00  0.00    +0.229 C 
ATOM      6  O   UNL     1       1.807   4.110   6.548  0.00  0.00    -0.275 OA
ATOM      7  N   UNL     1       2.000   1.868   6.026  0.00  0.00    -0.210 N 
ATOM      8  C   UNL     1       1.319   0.977   5.242  0.00  0.00    +0.229 C 
ATOM      9  O   UNL     1       1.610  -0.177   5.014  0.00  0.00    -0.275 OA
ATOM     10  N   UNL     1      -1.316   3.043   3.542  0.00  0.00    +0.395 N 
ATOM     11  H   UNL     1      -2.304   3.085   3.818  0.00  0.00    -0.083 HD
ATOM     12  H   UNL     1      -1.219   3.361   2.570  0.00  0.00    -0.083 HD
ENDROOT
BRANCH   4  13
ATOM     13  C   UNL     1      -0.297   5.274   3.838  0.00  0.00    -0.061 A 
ATOM     14  C   UNL     1      -0.156   5.420   2.471  0.00  0.00    +0.002 A 
ATOM     15  C   UNL     1       0.036   6.675   1.925  0.00  0.00    +0.003 A 
ATOM     16  C   UNL     1       0.095   7.785   2.748  0.00  0.00    -0.050 A 
ATOM     17  C   UNL     1      -0.042   7.639   4.116  0.00  0.00    +0.003 A 
ATOM     18  C   UNL     1      -0.237   6.384   4.661  0.00  0.00    +0.002 A 
ATOM     19  C   UNL     1       0.309   9.153   2.153  0.00  0.00    +0.044 C 
ENDBRANCH   4  13
BRANCH   7  20
ATOM     20  C   UNL     1       3.015   1.502   6.921  0.00  0.00    +0.044 A 
ATOM     21  C   UNL     1       3.368   0.167   7.065  0.00  0.00    +0.024 A 
ATOM     22  C   UNL     1       4.373  -0.189   7.944  0.00  0.00    +0.005 A 
ATOM     23  C   UNL     1       5.019   0.781   8.687  0.00  0.00    -0.050 A 
ATOM     24  C   UNL     1       4.666   2.111   8.549  0.00  0.00    +0.005 A 
ATOM     25  C   UNL     1       3.666   2.474   7.668  0.00  0.00    +0.024 A 
ATOM     26  C   UNL     1       6.110   0.389   9.649  0.00  0.00    +0.044 C 
ENDBRANCH   7  20
BRANCH   1  27
ATOM     27  C   UNL     1      -0.166   1.194   2.384  0.00  0.00    +0.297 C 
ATOM     28  O   UNL     1       0.829   0.510   2.418  0.00  0.00    -0.252 OA
BRANCH  27  29
ATOM     29  O   UNL     1      -0.692   1.554   1.203  0.00  0.00    -0.466 OA
BRANCH  29  30
ATOM     30  C   UNL     1      -0.013   1.086   0.008  0.00  0.00    +0.228 C 
ATOM     31  C   UNL     1      -0.753   1.593  -1.232  0.00  0.00    +0.048 C 
ENDBRANCH  29  30
ENDBRANCH  27  29
ENDBRANCH   1  27
BRANCH   1  32
ATOM     32  C   UNL     1      -1.955   0.694   4.048  0.00  0.00    -0.001 C 
BRANCH  32  34
ATOM     33  C   UNL     1      -4.135  -0.279   3.308  0.00  0.00    +0.004 C 
ATOM     34  C   UNL     1      -2.996   0.670   2.927  0.00  0.00    -0.004 C 
ENDBRANCH  32  34
ENDBRANCH   1  32
TORSDOF 7
