REMARK  Name = ZINC33398034
REMARK  10 active torsions:
REMARK  status: ('A' for Active; 'I' for Inactive)
REMARK    1  A    between atoms: C_1  and  C_2
REMARK    2  A    between atoms: C_7  and  C_8
REMARK    3  A    between atoms: C_8  and  N_9
REMARK    4  A    between atoms: N_9  and  C_10
REMARK    5  A    between atoms: N_9  and  C_28
REMARK    6  A    between atoms: C_10  and  C_11
REMARK    7  A    between atoms: C_14  and  C_16
REMARK    8  A    between atoms: N_18  and  C_19
REMARK    9  A    between atoms: C_19  and  C_21
REMARK   10  A    between atoms: C_19  and  C_22
REMARK                            x       y       z     vdW  Elec       q    Type
REMARK                         _______ _______ _______ _____ _____    ______ ____
ROOT
ATOM      1  C   UNL     1      -1.544   4.418   0.431  0.00  0.00    -0.002 C 
ENDROOT
BRANCH   1   2
ATOM      2  C   UNL     1      -0.661   3.212   0.621  0.00  0.00    +0.090 A 
ATOM      3  C   UNL     1      -1.089   1.936   0.748  0.00  0.00    +0.043 A 
ATOM      4  C   UNL     1       0.051   1.133   0.907  0.00  0.00    +0.055 A 
ATOM      5  C   UNL     1       1.130   1.968   0.857  0.00  0.00    +0.189 A 
ATOM      6  O   UNL     1       0.676   3.227   0.683  0.00  0.00    -0.457 OA
BRANCH   5   7
ATOM      7  C   UNL     1       2.536   1.567   0.973  0.00  0.00    +0.280 C 
ATOM      8  O   UNL     1       2.824   0.395   1.129  0.00  0.00    -0.267 OA
ATOM      9  N   UNL     1       3.510   2.497   0.907  0.00  0.00    -0.302 N 
ATOM     10  H   UNL     1       3.249   3.557   0.767  0.00  0.00    +0.150 HD
BRANCH   9  11
ATOM     11  C   UNL     1       4.914   2.097   1.023  0.00  0.00    +0.100 C 
ATOM     12  C   UNL     1       5.436   1.665  -0.349  0.00  0.00    +0.033 C 
BRANCH  11  13
ATOM     13  C   UNL     1       5.728   3.261   1.527  0.00  0.00    -0.027 A 
ATOM     14  C   UNL     1       5.472   4.537   1.061  0.00  0.00    +0.005 A 
ATOM     15  C   UNL     1       6.216   5.605   1.526  0.00  0.00    +0.000 A 
ATOM     16  C   UNL     1       7.222   5.396   2.451  0.00  0.00    +0.000 A 
ATOM     17  C   UNL     1       7.482   4.119   2.913  0.00  0.00    +0.000 A 
ATOM     18  C   UNL     1       6.735   3.051   2.451  0.00  0.00    +0.005 A 
ENDBRANCH  11  13
ENDBRANCH   9  11
ENDBRANCH   5   7
ENDBRANCH   1   2
BRANCH   1  19
ATOM     19  N   UNL     1      -2.050   4.865   1.736  0.00  0.00    +0.389 N 
ATOM     20  H   UNL     1      -2.318   3.971   2.319  0.00  0.00    -0.080 HD
BRANCH  19  21
ATOM     21  C   UNL     1      -1.014   5.594   2.481  0.00  0.00    -0.068 C 
ATOM     22  C   UNL     1      -0.233   6.493   1.520  0.00  0.00    -0.015 C 
ATOM     23  C   UNL     1       0.846   7.252   2.295  0.00  0.00    -0.002 C 
ATOM     24  C   UNL     1       1.802   6.253   2.950  0.00  0.00    -0.000 C 
ATOM     25  C   UNL     1       1.021   5.354   3.911  0.00  0.00    -0.002 C 
ATOM     26  C   UNL     1      -0.058   4.595   3.135  0.00  0.00    -0.015 C 
ENDBRANCH  19  21
BRANCH  19  27
ATOM     27  C   UNL     1      -3.260   5.683   1.580  0.00  0.00    -0.042 C 
BRANCH  27  34
ATOM     28  C   UNL     1      -4.738   3.433   2.629  0.00  0.00    +0.044 C 
ATOM     29  C   UNL     1      -4.671   4.720   3.410  0.00  0.00    -0.049 A 
ATOM     30  C   UNL     1      -5.314   4.823   4.629  0.00  0.00    +0.003 A 
ATOM     31  C   UNL     1      -5.256   6.005   5.343  0.00  0.00    +0.000 A 
ATOM     32  C   UNL     1      -4.553   7.084   4.839  0.00  0.00    +0.000 A 
ATOM     33  C   UNL     1      -3.907   6.979   3.622  0.00  0.00    +0.002 A 
ATOM     34  C   UNL     1      -3.964   5.797   2.908  0.00  0.00    -0.061 A 
ENDBRANCH  27  34
ENDBRANCH  19  27
ENDBRANCH   1  19
TORSDOF 8
