REMARK  Name = ZINC13179223
REMARK  7 active torsions:
REMARK  status: ('A' for Active; 'I' for Inactive)
REMARK    1  A    between atoms: C_1  and  C_2
REMARK    2  A    between atoms: C_2  and  N_3
REMARK    3  A    between atoms: C_5  and  C_32
REMARK    4  A    between atoms: C_11  and  N_15
REMARK    5  A    between atoms: C_21  and  C_23
REMARK    6  A    between atoms: C_23  and  S_24
REMARK    7  A    between atoms: S_24  and  C_25
REMARK                            x       y       z     vdW  Elec       q    Type
REMARK                         _______ _______ _______ _____ _____    ______ ____
ROOT
ATOM      1  N   UNL     1      -0.104   5.511   0.033  0.00  0.00    -0.346 N 
ATOM      2  C   UNL     1       1.012   6.252   0.025  0.00  0.00    +0.105 A 
ATOM      3  C   UNL     1       2.270   5.685   0.010  0.00  0.00    +0.126 A 
ATOM      4  C   UNL     1       2.390   4.217   0.001  0.00  0.00    +0.204 A 
ATOM      5  O   UNL     1       3.478   3.669  -0.012  0.00  0.00    -0.286 OA
ATOM      6  C   UNL     1       1.139   3.439   0.010  0.00  0.00    +0.049 A 
ATOM      7  C   UNL     1      -0.085   4.132   0.025  0.00  0.00    +0.055 A 
ATOM      8  C   UNL     1      -1.273   3.411   0.033  0.00  0.00    +0.052 A 
ATOM      9  C   UNL     1      -1.238   2.026   0.019  0.00  0.00    +0.067 A 
ATOM     10  C   UNL     1      -0.016   1.347   0.009  0.00  0.00    +0.145 A 
ATOM     11  C   UNL     1       1.159   2.043   0.002  0.00  0.00    +0.054 A 
ATOM     12  F   UNL     1       0.002  -0.004   0.002  0.00  0.00    -0.204 F 
ENDROOT
BRANCH   9  13
ATOM     13  N   UNL     1      -2.429   1.304   0.021  0.00  0.00    -0.325 N 
ATOM     14  C   UNL     1      -3.193   1.547  -1.210  0.00  0.00    +0.124 C 
ATOM     15  C   UNL     1      -4.400   0.604  -1.252  0.00  0.00    +0.126 C 
ATOM     16  N   UNL     1      -5.162   0.764  -0.005  0.00  0.00    -0.298 N 
ATOM     17  C   UNL     1      -4.437   0.671   1.271  0.00  0.00    +0.126 C 
ATOM     18  C   UNL     1      -3.229   1.611   1.214  0.00  0.00    +0.124 C 
ATOM     19  C   UNL     1      -6.491   0.992  -0.031  0.00  0.00    +0.226 C 
ATOM     20  O   UNL     1      -7.104   1.122   1.008  0.00  0.00    -0.275 OA
BRANCH  19  21
ATOM     21  C   UNL     1      -7.214   1.084  -1.349  0.00  0.00    +0.170 C 
BRANCH  21  22
ATOM     22  S   UNL     1      -8.976   1.393  -1.052  0.00  0.00    -0.113 S 
BRANCH  22  23
ATOM     23  C   UNL     1      -9.674   1.474  -2.668  0.00  0.00    +0.044 A 
ATOM     24  C   UNL     1      -8.864   1.313  -3.785  0.00  0.00    +0.017 A 
ATOM     25  C   UNL     1      -9.414   1.373  -5.050  0.00  0.00    +0.001 A 
ATOM     26  C   UNL     1     -10.769   1.601  -5.208  0.00  0.00    +0.003 A 
ATOM     27  C   UNL     1     -11.579   1.766  -4.099  0.00  0.00    +0.039 A 
ATOM     28  C   UNL     1     -11.037   1.704  -2.829  0.00  0.00    +0.137 A 
ATOM     29  F   UNL     1     -11.828   1.866  -1.746  0.00  0.00    -0.204 F 
ENDBRANCH  22  23
ENDBRANCH  21  22
ENDBRANCH  19  21
ENDBRANCH   9  13
BRANCH   3  30
ATOM     30  C   UNL     1       3.471   6.532   0.003  0.00  0.00    +0.392 C 
ATOM     31  O   UNL     1       4.574   6.022  -0.010  0.00  0.00    -0.240 OA
ATOM     32  O   UNL     1       3.349   7.874   0.011  0.00  0.00    -0.240 OA
ENDBRANCH   3  30
BRANCH   1  34
ATOM     33  C   UNL     1      -1.895   6.315   1.492  0.00  0.00    +0.027 C 
ATOM     34  C   UNL     1      -1.400   6.195   0.049  0.00  0.00    +0.118 C 
ENDBRANCH   1  34
TORSDOF 6
