REMARK  Name = ZINC33333222
REMARK  6 active torsions:
REMARK  status: ('A' for Active; 'I' for Inactive)
REMARK    1  A    between atoms: C_5  and  C_7
REMARK    2  A    between atoms: C_7  and  N_8
REMARK    3  A    between atoms: C_12  and  C_13
REMARK    4  A    between atoms: N_15  and  C_22
REMARK    5  A    between atoms: C_22  and  C_23
REMARK    6  A    between atoms: N_25  and  C_26
REMARK                            x       y       z     vdW  Elec       q    Type
REMARK                         _______ _______ _______ _____ _____    ______ ____
ROOT
ATOM      1  C   UNL     1       3.544  -4.221   5.971  0.00  0.00    +0.002 A 
ATOM      2  C   UNL     1       2.203  -4.240   6.237  0.00  0.00    +0.095 A 
ATOM      3  N   UNL     1       1.996  -4.653   7.514  0.00  0.00    -0.337 N 
ATOM      4  C   UNL     1       3.200  -4.920   8.134  0.00  0.00    +0.050 A 
ATOM      5  C   UNL     1       4.220  -4.671   7.203  0.00  0.00    +0.007 A 
ATOM      6  C   UNL     1       5.552  -4.864   7.558  0.00  0.00    +0.010 A 
ATOM      7  C   UNL     1       5.863  -5.306   8.826  0.00  0.00    +0.001 A 
ATOM      8  C   UNL     1       4.856  -5.557   9.746  0.00  0.00    +0.002 A 
ATOM      9  C   UNL     1       3.534  -5.361   9.411  0.00  0.00    +0.026 A 
ENDROOT
BRANCH   1  14
ATOM     10  N   UNL     1       2.826  -3.402   1.463  0.00  0.00    -0.216 N 
ATOM     11  C   UNL     1       3.868  -3.272   2.307  0.00  0.00    +0.269 C 
ATOM     12  O   UNL     1       4.963  -2.811   2.040  0.00  0.00    -0.268 OA
ATOM     13  C   UNL     1       3.447  -3.774   3.568  0.00  0.00    +0.098 C 
ATOM     14  C   UNL     1       4.182  -3.836   4.712  0.00  0.00    +0.038 C 
ATOM     15  N   UNL     1       2.119  -4.191   3.393  0.00  0.00    -0.265 N 
ATOM     16  C   UNL     1       1.783  -3.944   2.113  0.00  0.00    +0.313 C 
ATOM     17  O   UNL     1       0.697  -4.180   1.618  0.00  0.00    -0.252 OA
ATOM     18  H   UNL     1       1.546  -4.583   4.071  0.00  0.00    +0.157 HD
BRANCH  10  19
ATOM     19  C   UNL     1       2.828  -3.006   0.052  0.00  0.00    +0.156 C 
BRANCH  19  24
ATOM     20  C   UNL     1       0.666   0.032  -0.541  0.00  0.00    +0.000 A 
ATOM     21  C   UNL     1       1.556   1.060  -0.288  0.00  0.00    +0.003 A 
ATOM     22  C   UNL     1       2.858   0.773   0.076  0.00  0.00    +0.038 A 
ATOM     23  C   UNL     1       3.271  -0.544   0.187  0.00  0.00    +0.128 A 
ATOM     24  C   UNL     1       2.379  -1.572  -0.067  0.00  0.00    +0.006 A 
ATOM     25  C   UNL     1       1.077  -1.283  -0.431  0.00  0.00    +0.008 A 
ATOM     26  F   UNL     1       4.544  -0.826   0.542  0.00  0.00    -0.205 F 
ENDBRANCH  19  24
ENDBRANCH  10  19
ENDBRANCH   1  14
BRANCH   3  27
ATOM     27  C   UNL     1       0.681  -4.794   8.144  0.00  0.00    +0.217 C 
BRANCH  27  28
ATOM     28  C   UNL     1       0.354  -3.538   8.909  0.00  0.00    +0.237 C 
ATOM     29  O   UNL     1       1.141  -2.615   8.927  0.00  0.00    -0.274 OA
ATOM     30  N   UNL     1      -0.814  -3.439   9.575  0.00  0.00    -0.284 N 
ATOM     31  H   UNL     1      -1.407  -4.205   9.630  0.00  0.00    +0.155 HD
BRANCH  30  32
ATOM     32  C   UNL     1      -1.172  -2.231  10.186  0.00  0.00    +0.034 A 
ATOM     33  C   UNL     1      -1.883  -2.239  11.378  0.00  0.00    +0.026 A 
ATOM     34  C   UNL     1      -2.236  -1.047  11.979  0.00  0.00    +0.040 A 
ATOM     35  C   UNL     1      -1.880   0.157  11.393  0.00  0.00    +0.124 A 
ATOM     36  C   UNL     1      -1.171   0.167  10.204  0.00  0.00    +0.040 A 
ATOM     37  C   UNL     1      -0.812  -1.024   9.603  0.00  0.00    +0.026 A 
ATOM     38  F   UNL     1      -2.227   1.322  11.982  0.00  0.00    -0.205 F 
ENDBRANCH  30  32
ENDBRANCH  27  28
ENDBRANCH   3  27
TORSDOF 6
