REMARK  Name = ZINC63097120
REMARK  6 active torsions:
REMARK  status: ('A' for Active; 'I' for Inactive)
REMARK    1  A    between atoms: C_1  and  C_2
REMARK    2  A    between atoms: C_2  and  C_3
REMARK    3  A    between atoms: C_2  and  C_4
REMARK    4  A    between atoms: C_2  and  C_5
REMARK    5  A    between atoms: C_8  and  C_11
REMARK    6  A    between atoms: N_19  and  C_20
REMARK                            x       y       z     vdW  Elec       q    Type
REMARK                         _______ _______ _______ _____ _____    ______ ____
ROOT
ATOM      1  C   UNL     1       2.624  -1.496  -4.796  0.00  0.00    +0.028 C 
ATOM      2  C   UNL     1       3.112  -0.238  -5.516  0.00  0.00    +0.034 C 
ATOM      3  C   UNL     1       4.107   0.472  -4.599  0.00  0.00    +0.115 C 
ATOM      4  C   UNL     1       5.259  -0.505  -4.396  0.00  0.00    +0.029 C 
ATOM      5  C   UNL     1       6.376   0.241  -4.455  0.00  0.00    +0.093 C 
ATOM      6  N   UNL     1       6.079   1.524  -4.802  0.00  0.00    -0.281 N 
ATOM      7  N   UNL     1       4.762   1.622  -5.244  0.00  0.00    -0.182 NA
ATOM      8  C   UNL     1       5.078  -1.884  -4.314  0.00  0.00    +0.163 C 
ATOM      9  O   UNL     1       6.028  -2.598  -4.062  0.00  0.00    -0.292 OA
ATOM     10  C   UNL     1       3.730  -2.498  -4.531  0.00  0.00    +0.087 C 
ATOM     11  H   UNL     1       6.694   2.273  -4.740  0.00  0.00    +0.166 HD
ENDROOT
BRANCH   7  12
ATOM     12  C   UNL     1       4.137   2.885  -4.830  0.00  0.00    +0.269 C 
ATOM     13  N   UNL     1       2.750   2.942  -5.308  0.00  0.00    -0.350 N 
ATOM     14  C   UNL     1       1.980   3.036  -4.263  0.00  0.00    +0.061 A 
ATOM     15  C   UNL     1       0.522   3.128  -4.101  0.00  0.00    +0.027 A 
ATOM     16  C   UNL     1      -0.005   3.217  -2.864  0.00  0.00    +0.002 A 
ATOM     17  C   UNL     1       0.786   3.227  -1.702  0.00  0.00    +0.002 A 
ATOM     18  C   UNL     1       2.131   3.148  -1.737  0.00  0.00    +0.027 A 
ATOM     19  C   UNL     1       2.817   3.046  -3.033  0.00  0.00    +0.061 A 
ATOM     20  N   UNL     1       4.073   2.958  -3.365  0.00  0.00    -0.350 N 
ATOM     21  H   UNL     1       2.461   2.915  -6.234  0.00  0.00    +0.163 HD
ATOM     22  H   UNL     1       4.828   2.944  -2.756  0.00  0.00    +0.163 HD
ENDBRANCH   7  12
BRANCH   1  26
ATOM     23  C   UNL     1       0.886  -0.354  -1.065  0.00  0.00    -0.042 A 
ATOM     24  C   UNL     1       0.132  -0.306  -2.222  0.00  0.00    +0.004 A 
ATOM     25  C   UNL     1       0.694  -0.675  -3.430  0.00  0.00    +0.004 A 
ATOM     26  C   UNL     1       2.011  -1.092  -3.480  0.00  0.00    -0.044 A 
ATOM     27  C   UNL     1       2.766  -1.139  -2.323  0.00  0.00    +0.004 A 
ATOM     28  C   UNL     1       2.204  -0.766  -1.116  0.00  0.00    +0.004 A 
BRANCH  23  30
ATOM     29  C   UNL     1       1.151   1.107   0.921  0.00  0.00    +0.015 C 
ATOM     30  C   UNL     1       0.273   0.048   0.252  0.00  0.00    -0.013 C 
ATOM     31  C   UNL     1       0.168  -1.178   1.161  0.00  0.00    +0.015 C 
ATOM     32  C   UNL     1      -1.124   0.624   0.009  0.00  0.00    +0.015 C 
ENDBRANCH  23  30
ENDBRANCH   1  26
TORSDOF 3
