REMARK  Name = ZINC21858155
REMARK  7 active torsions:
REMARK  status: ('A' for Active; 'I' for Inactive)
REMARK    1  A    between atoms: C_1  and  C_2
REMARK    2  A    between atoms: C_2  and  C_24
REMARK    3  A    between atoms: N_15  and  C_16
REMARK    4  A    between atoms: C_16  and  C_17
REMARK    5  A    between atoms: C_17  and  C_18
REMARK    6  A    between atoms: N_26  and  C_27
REMARK    7  A    between atoms: C_27  and  C_28
REMARK                            x       y       z     vdW  Elec       q    Type
REMARK                         _______ _______ _______ _____ _____    ______ ____
ROOT
ATOM      1  C   UNL     1       0.694  -3.730   3.052  0.00  0.00    +0.043 C 
ATOM      2  C   UNL     1       0.063  -2.336   3.037  0.00  0.00    +0.128 C 
ATOM      3  C   UNL     1      -1.374  -2.439   3.546  0.00  0.00    +0.157 C 
ATOM      4  N   UNL     1      -1.895  -1.092   3.804  0.00  0.00    -0.334 N 
ATOM      5  C   UNL     1      -3.161  -0.616   3.738  0.00  0.00    +0.050 A 
ATOM      6  C   UNL     1      -4.372  -1.218   3.394  0.00  0.00    +0.026 A 
ATOM      7  C   UNL     1      -5.504  -0.424   3.437  0.00  0.00    +0.002 A 
ATOM      8  C   UNL     1      -5.458   0.912   3.801  0.00  0.00    +0.001 A 
ATOM      9  C   UNL     1      -4.285   1.535   4.143  0.00  0.00    +0.010 A 
ATOM     10  C   UNL     1      -3.119   0.757   4.108  0.00  0.00    +0.001 A 
ATOM     11  C   UNL     1      -1.776   1.071   4.389  0.00  0.00    +0.041 A 
ATOM     12  C   UNL     1      -1.051  -0.049   4.193  0.00  0.00    +0.106 A 
ATOM     13  C   UNL     1       0.402  -0.267   4.319  0.00  0.00    +0.264 C 
ATOM     14  O   UNL     1       1.133   0.567   4.821  0.00  0.00    -0.268 OA
ATOM     15  N   UNL     1       0.879  -1.440   3.849  0.00  0.00    -0.280 N 
ENDROOT
BRANCH   2  16
ATOM     16  C   UNL     1       0.042  -1.826   1.619  0.00  0.00    +0.238 C 
ATOM     17  O   UNL     1       0.044  -2.609   0.693  0.00  0.00    -0.273 OA
ATOM     18  N   UNL     1       0.022  -0.500   1.381  0.00  0.00    -0.309 N 
ATOM     19  H   UNL     1       0.020   0.210   2.220  0.00  0.00    +0.149 HD
BRANCH  18  20
ATOM     20  C   UNL     1       0.002  -0.004   0.002  0.00  0.00    +0.139 C 
BRANCH  20  21
ATOM     21  C   UNL     1      -0.018   1.503   0.010  0.00  0.00    -0.030 A 
ATOM     22  C   UNL     1      -1.225   2.178   0.020  0.00  0.00    +0.005 A 
ATOM     23  C   UNL     1      -1.244   3.560   0.032  0.00  0.00    +0.000 A 
ATOM     24  C   UNL     1      -0.056   4.267   0.025  0.00  0.00    +0.000 A 
ATOM     25  C   UNL     1       1.151   3.592   0.010  0.00  0.00    +0.000 A 
ATOM     26  C   UNL     1       1.169   2.210   0.003  0.00  0.00    +0.005 A 
ENDBRANCH  20  21
ENDBRANCH  18  20
ENDBRANCH   2  16
BRANCH  15  27
ATOM     27  C   UNL     1       2.258  -1.823   4.163  0.00  0.00    +0.113 C 
BRANCH  27  28
ATOM     28  C   UNL     1       3.195  -1.290   3.078  0.00  0.00    +0.049 C 
BRANCH  28  29
ATOM     29  C   UNL     1       4.613  -1.683   3.401  0.00  0.00    -0.072 C 
ATOM     30  C   UNL     1       5.083  -2.761   2.860  0.00  0.00    -0.028 C 
ATOM     31  C   UNL     1       6.470  -3.284   3.093  0.00  0.00    +0.027 C 
ATOM     32  C   UNL     1       7.355  -2.185   3.685  0.00  0.00    +0.004 C 
ATOM     33  C   UNL     1       6.614  -1.550   4.869  0.00  0.00    +0.005 C 
ATOM     34  C   UNL     1       5.395  -0.797   4.326  0.00  0.00    +0.030 C 
ENDBRANCH  28  29
ENDBRANCH  27  28
ENDBRANCH  15  27
TORSDOF 6
