REMARK  Name = ZINC20751631
REMARK  4 active torsions:
REMARK  status: ('A' for Active; 'I' for Inactive)
REMARK    1  A    between atoms: C_9  and  O_31
REMARK    2  A    between atoms: C_10  and  C_11
REMARK    3  A    between atoms: C_21  and  N_28
REMARK    4  A    between atoms: C_24  and  O_27
REMARK                            x       y       z     vdW  Elec       q    Type
REMARK                         _______ _______ _______ _____ _____    ______ ____
ROOT
ATOM      1  C   UNL     1      -2.215   4.025  -0.412  0.00  0.00    +0.109 C 
ATOM      2  C   UNL     1      -2.976   4.145   0.892  0.00  0.00    +0.029 C 
ATOM      3  C   UNL     1      -2.201   4.585   2.140  0.00  0.00    +0.033 C 
ATOM      4  C   UNL     1      -2.989   3.886   3.250  0.00  0.00    -0.030 C 
ATOM      5  C   UNL     1      -3.592   2.806   2.766  0.00  0.00    -0.023 C 
ATOM      6  C   UNL     1      -3.238   2.671   1.332  0.00  0.00    +0.051 C 
ATOM      7  C   UNL     1      -4.161   2.087   0.334  0.00  0.00    +0.014 A 
ATOM      8  C   UNL     1      -5.091   1.127   0.681  0.00  0.00    +0.132 A 
ATOM      9  C   UNL     1      -5.919   0.573  -0.276  0.00  0.00    +0.037 A 
ATOM     10  C   UNL     1      -5.815   0.983  -1.593  0.00  0.00    +0.049 A 
ATOM     11  C   UNL     1      -4.893   1.948  -1.948  0.00  0.00    +0.138 A 
ATOM     12  C   UNL     1      -4.052   2.523  -0.987  0.00  0.00    +0.076 A 
ATOM     13  N   UNL     1      -3.157   3.505  -1.416  0.00  0.00    -0.333 N 
ATOM     14  H   UNL     1      -3.132   3.890  -2.445  0.00  0.00    +0.147 HD
ENDROOT
BRANCH   1  24
ATOM     15  C   UNL     1       2.476   4.285   1.617  0.00  0.00    +0.001 A 
ATOM     16  C   UNL     1       1.419   5.181   1.474  0.00  0.00    +0.001 A 
ATOM     17  C   UNL     1       0.259   4.805   0.870  0.00  0.00    +0.009 A 
ATOM     18  C   UNL     1       0.121   3.494   0.382  0.00  0.00    -0.009 A 
ATOM     19  C   UNL     1       1.197   2.582   0.529  0.00  0.00    -0.017 A 
ATOM     20  C   UNL     1       2.379   3.007   1.158  0.00  0.00    +0.008 A 
ATOM     21  C   UNL     1       1.062   1.270   0.042  0.00  0.00    +0.012 A 
ATOM     22  C   UNL     1      -0.096   0.891  -0.563  0.00  0.00    +0.046 A 
ATOM     23  C   UNL     1      -1.156   1.790  -0.714  0.00  0.00    +0.122 A 
ATOM     24  C   UNL     1      -1.060   3.070  -0.247  0.00  0.00    +0.022 A 
BRANCH  23  25
ATOM     25  O   UNL     1      -2.298   1.383  -1.327  0.00  0.00    -0.506 OA
ATOM     26  H   UNL     1      -3.136   2.085  -1.450  0.00  0.00    +0.292 HD
ENDBRANCH  23  25
ENDBRANCH   1  24
BRANCH   8  27
ATOM     27  N   UNL     1      -5.203   0.690   2.090  0.00  0.00    +0.057 N 
ATOM     28  O   UNL     1      -4.210   0.330   2.697  0.00  0.00    -0.126 OA
ATOM     29  O   UNL     1      -6.288   0.690   2.644  0.00  0.00    -0.126 OA
ENDBRANCH   8  27
BRANCH  11  30
ATOM     30  O   UNL     1      -4.801   2.345  -3.246  0.00  0.00    -0.505 OA
ATOM     31  H   UNL     1      -4.069   3.113  -3.535  0.00  0.00    +0.292 HD
ENDBRANCH  11  30
TORSDOF 4
