REMARK  Name = ZINC12579703
REMARK  5 active torsions:
REMARK  status: ('A' for Active; 'I' for Inactive)
REMARK    1  A    between atoms: C_1  and  C_2
REMARK    2  A    between atoms: C_2  and  C_4
REMARK    3  A    between atoms: C_2  and  N_6
REMARK    4  A    between atoms: C_24  and  C_34
REMARK    5  A    between atoms: C_39  and  O_40
REMARK                            x       y       z     vdW  Elec       q    Type
REMARK                         _______ _______ _______ _____ _____    ______ ____
ROOT
ATOM      1  N   UNL     1      -1.913   1.580   0.239  0.00  0.00    -0.228 N 
ATOM      2  C   UNL     1      -1.280   0.522  -0.366  0.00  0.00    +0.227 C 
ATOM      3  O   UNL     1      -1.722  -0.206  -1.228  0.00  0.00    -0.275 OA
ATOM      4  C   UNL     1       0.075   0.462   0.269  0.00  0.00    +0.091 C 
ATOM      5  C   UNL     1       1.341   0.108  -0.548  0.00  0.00    +0.007 C 
ATOM      6  C   UNL     1       1.835   1.502  -1.095  0.00  0.00    +0.010 C 
ATOM      7  C   UNL     1       1.684   2.305   0.303  0.00  0.00    +0.015 C 
ATOM      8  C   UNL     1       0.238   2.027   0.372  0.00  0.00    +0.092 C 
ATOM      9  C   UNL     1      -1.038   2.410   0.917  0.00  0.00    +0.227 C 
ATOM     10  O   UNL     1      -1.283   3.249   1.758  0.00  0.00    -0.275 OA
ATOM     11  C   UNL     1       2.608   1.394   1.037  0.00  0.00    +0.061 C 
ATOM     12  C   UNL     1       2.297  -0.074   0.669  0.00  0.00    +0.019 C 
ATOM     13  C   UNL     1       3.618  -0.776   0.463  0.00  0.00    +0.066 C 
ATOM     14  C   UNL     1       4.409  -0.666   1.742  0.00  0.00    +0.032 A 
ATOM     15  C   UNL     1       4.291   0.184   2.789  0.00  0.00    +0.087 A 
ATOM     16  N   UNL     1       5.154  -0.011   3.835  0.00  0.00    -0.311 N 
ATOM     17  H   UNL     1       5.091   0.549   4.625  0.00  0.00    +0.170 HD
ATOM     18  C   UNL     1       6.092  -0.978   3.769  0.00  0.00    +0.289 A 
ATOM     19  O   UNL     1       6.944  -1.274   4.588  0.00  0.00    -0.260 OA
ATOM     20  S   UNL     1       5.776  -1.695   2.220  0.00  0.00    -0.030 S 
ATOM     21  S   UNL     1       3.077   1.508   2.746  0.00  0.00    -0.103 S 
ENDROOT
BRANCH  13  22
ATOM     22  C   UNL     1       4.375  -0.118  -0.662  0.00  0.00    +0.002 A 
ATOM     23  C   UNL     1       4.025  -0.375  -1.974  0.00  0.00    +0.008 A 
ATOM     24  C   UNL     1       4.716   0.233  -3.006  0.00  0.00    +0.001 A 
ATOM     25  C   UNL     1       5.765   1.090  -2.729  0.00  0.00    +0.004 A 
ATOM     26  C   UNL     1       6.121   1.347  -1.419  0.00  0.00    +0.046 A 
ATOM     27  C   UNL     1       5.426   0.742  -0.381  0.00  0.00    +0.121 A 
BRANCH  27  28
ATOM     28  O   UNL     1       5.775   0.993   0.908  0.00  0.00    -0.506 OA
ATOM     29  H   UNL     1       6.502   0.443   1.232  0.00  0.00    +0.292 HD
ENDBRANCH  27  28
ENDBRANCH  13  22
BRANCH   1  31
ATOM     30  C   UNL     1      -3.636   3.159  -0.479  0.00  0.00    +0.040 C 
ATOM     31  C   UNL     1      -3.359   1.804   0.175  0.00  0.00    +0.194 C 
BRANCH  31  32
ATOM     32  C   UNL     1      -3.932   1.793   1.569  0.00  0.00    +0.376 C 
ATOM     33  O   UNL     1      -3.206   1.616   2.518  0.00  0.00    -0.244 OA
ATOM     34  O   UNL     1      -5.248   1.980   1.755  0.00  0.00    -0.244 OA
ENDBRANCH  31  32
ENDBRANCH   1  31
TORSDOF 4
