REMARK  Name = ZINC09310387
REMARK  3 active torsions:
REMARK  status: ('A' for Active; 'I' for Inactive)
REMARK    1  A    between atoms: C_6  and  C_7
REMARK    2  A    between atoms: C_7  and  C_8
REMARK    3  A    between atoms: C_7  and  C_19
REMARK                            x       y       z     vdW  Elec       q    Type
REMARK                         _______ _______ _______ _____ _____    ______ ____
ROOT
ATOM      1  C   UNL     1      -1.282  -0.793   0.011  0.00  0.00    +0.100 C 
ENDROOT
BRANCH   1   2
ATOM      2  C   UNL     1      -1.578  -1.575  -1.243  0.00  0.00    +0.093 A 
ATOM      3  C   UNL     1      -2.838  -2.123  -1.451  0.00  0.00    +0.260 A 
ATOM      4  N   UNL     1      -3.082  -2.824  -2.590  0.00  0.00    -0.302 N 
ATOM      5  H   UNL     1      -3.960  -3.208  -2.740  0.00  0.00    +0.171 HD
ATOM      6  C   UNL     1      -2.115  -2.990  -3.510  0.00  0.00    +0.161 A 
ATOM      7  S   UNL     1      -2.452  -3.878  -4.935  0.00  0.00    -0.013 S 
ATOM      8  N   UNL     1      -0.888  -2.469  -3.331  0.00  0.00    -0.302 N 
ATOM      9  H   UNL     1      -0.205  -2.600  -4.008  0.00  0.00    +0.171 HD
ATOM     10  C   UNL     1      -0.598  -1.755  -2.210  0.00  0.00    +0.260 A 
ATOM     11  O   UNL     1       0.620  -1.236  -2.039  0.00  0.00    -0.267 OA
ATOM     12  O   UNL     1      -3.801  -1.961  -0.541  0.00  0.00    -0.267 OA
ENDBRANCH   1   2
BRANCH   1  13
ATOM     13  C   UNL     1      -1.428  -1.693   1.211  0.00  0.00    +0.093 A 
ATOM     14  C   UNL     1      -1.240  -3.064   1.091  0.00  0.00    +0.260 A 
ATOM     15  N   UNL     1      -1.377  -3.855   2.188  0.00  0.00    -0.302 N 
ATOM     16  C   UNL     1      -1.694  -3.320   3.381  0.00  0.00    +0.161 A 
ATOM     17  S   UNL     1      -1.861  -4.342   4.745  0.00  0.00    -0.013 S 
ATOM     18  N   UNL     1      -1.881  -1.995   3.521  0.00  0.00    -0.302 N 
ATOM     19  H   UNL     1      -2.108  -1.631   4.391  0.00  0.00    +0.171 HD
ATOM     20  C   UNL     1      -1.748  -1.163   2.454  0.00  0.00    +0.260 A 
ATOM     21  O   UNL     1      -1.930   0.152   2.599  0.00  0.00    -0.267 OA
ATOM     22  O   UNL     1      -0.926  -3.600  -0.090  0.00  0.00    -0.267 OA
ATOM     23  H   UNL     1      -1.246  -4.813   2.110  0.00  0.00    +0.171 HD
ENDBRANCH   1  13
BRANCH   1  29
ATOM     24  C   UNL     1       0.380   1.033  -0.476  0.00  0.00    +0.024 A 
ATOM     25  C   UNL     1       1.685   1.486  -0.519  0.00  0.00    +0.111 A 
ATOM     26  N   UNL     1       2.683   0.701  -0.160  0.00  0.00    -0.263 NA
ATOM     27  C   UNL     1       2.480  -0.535   0.250  0.00  0.00    +0.111 A 
ATOM     28  C   UNL     1       1.202  -1.057   0.319  0.00  0.00    +0.024 A 
ATOM     29  C   UNL     1       0.127  -0.262  -0.050  0.00  0.00    -0.032 A 
ENDBRANCH   1  29
TORSDOF 3
