REMARK  Name = ZINC06285143
REMARK  17 active torsions:
REMARK  status: ('A' for Active; 'I' for Inactive)
REMARK    1  A    between atoms: C_1  and  C_2
REMARK    2  A    between atoms: C_2  and  C_3
REMARK    3  A    between atoms: C_7  and  C_33
REMARK    4  A    between atoms: C_8  and  N_9
REMARK    5  A    between atoms: N_9  and  C_10
REMARK    6  A    between atoms: C_10  and  N_12
REMARK    7  A    between atoms: N_12  and  C_13
REMARK    8  A    between atoms: N_12  and  C_23
REMARK    9  A    between atoms: C_13  and  C_14
REMARK   10  A    between atoms: C_19  and  O_20
REMARK   11  A    between atoms: O_20  and  C_21
REMARK   12  A    between atoms: C_21  and  C_22
REMARK   13  A    between atoms: C_25  and  C_31
REMARK   14  A    between atoms: C_25  and  C_32
REMARK   15  A    between atoms: C_27  and  C_29
REMARK   16  A    between atoms: C_27  and  C_30
REMARK   17  A    between atoms: C_33  and  C_34
REMARK                            x       y       z     vdW  Elec       q    Type
REMARK                         _______ _______ _______ _____ _____    ______ ____
ROOT
ATOM      1  N   UNL     1       4.216  -0.448   1.837  0.00  0.00    -0.305 N 
ENDROOT
BRANCH   1   2
ATOM      2  C   UNL     1       3.201   0.261   2.628  0.00  0.00    +0.073 C 
ATOM      3  C   UNL     1       1.952  -0.615   2.743  0.00  0.00    +0.009 C 
ATOM      4  C   UNL     1       0.881   0.114   3.554  0.00  0.00    -0.072 C 
ATOM      5  N   UNL     1       0.590   1.434   3.015  0.00  0.00    +0.386 N 
ATOM      6  C   UNL     1       1.716   2.287   2.671  0.00  0.00    -0.072 C 
ATOM      7  C   UNL     1       2.816   1.554   1.911  0.00  0.00    +0.009 C 
ATOM      8  C   UNL     1       2.304   2.974   3.907  0.00  0.00    -0.010 C 
ATOM      9  C   UNL     1       1.185   3.406   1.744  0.00  0.00    -0.010 C 
ATOM     10  C   UNL     1       1.280   0.169   5.028  0.00  0.00    -0.010 C 
ATOM     11  C   UNL     1      -0.414  -0.725   3.460  0.00  0.00    -0.010 C 
ATOM     12  H   UNL     1       0.007   1.319   2.182  0.00  0.00    -0.084 HD
ATOM     13  H   UNL     1       0.001   1.932   3.687  0.00  0.00    -0.084 HD
ENDBRANCH   1   2
BRANCH   1  14
ATOM     14  C   UNL     1       3.901  -0.939   0.622  0.00  0.00    +0.138 C 
ATOM     15  S   UNL     1       5.035  -1.894  -0.235  0.00  0.00    -0.018 S 
BRANCH  14  16
ATOM     16  N   UNL     1       2.695  -0.678   0.082  0.00  0.00    -0.296 N 
ATOM     17  H   UNL     1       2.079  -0.082   0.536  0.00  0.00    +0.154 HD
BRANCH  16  23
ATOM     18  C   UNL     1       2.667  -0.655  -2.333  0.00  0.00    -0.026 A 
ATOM     19  C   UNL     1       2.311  -1.243  -3.531  0.00  0.00    +0.005 A 
ATOM     20  C   UNL     1       1.615  -2.438  -3.536  0.00  0.00    +0.001 A 
ATOM     21  C   UNL     1       1.274  -3.048  -2.344  0.00  0.00    +0.005 A 
ATOM     22  C   UNL     1       1.626  -2.465  -1.142  0.00  0.00    -0.026 A 
ATOM     23  C   UNL     1       2.330  -1.268  -1.133  0.00  0.00    +0.039 A 
BRANCH  18  25
ATOM     24  C   UNL     1       3.779   1.038  -3.764  0.00  0.00    +0.009 C 
ATOM     25  C   UNL     1       3.425   0.647  -2.327  0.00  0.00    +0.033 C 
ENDBRANCH  18  25
BRANCH  22  26
ATOM     26  C   UNL     1       1.254  -3.131   0.157  0.00  0.00    +0.033 C 
ATOM     27  C   UNL     1      -0.086  -2.579   0.647  0.00  0.00    +0.009 C 
ENDBRANCH  22  26
ENDBRANCH  16  23
ENDBRANCH  14  16
ENDBRANCH   1  14
BRANCH   1  28
ATOM     28  C   UNL     1       5.570  -0.620   2.369  0.00  0.00    +0.145 C 
BRANCH  28  29
ATOM     29  C   UNL     1       6.392   0.603   2.057  0.00  0.00    +0.011 A 
ATOM     30  C   UNL     1       7.159   0.647   0.908  0.00  0.00    +0.009 A 
ATOM     31  C   UNL     1       7.913   1.769   0.621  0.00  0.00    +0.001 A 
ATOM     32  C   UNL     1       7.904   2.850   1.482  0.00  0.00    +0.004 A 
ATOM     33  C   UNL     1       7.139   2.812   2.632  0.00  0.00    +0.046 A 
ATOM     34  C   UNL     1       6.376   1.689   2.919  0.00  0.00    +0.125 A 
BRANCH  34  35
ATOM     35  O   UNL     1       5.619   1.652   4.047  0.00  0.00    -0.492 OA
BRANCH  35  36
ATOM     36  C   UNL     1       5.611   2.825   4.863  0.00  0.00    +0.225 C 
ATOM     37  C   UNL     1       4.835   2.545   6.151  0.00  0.00    +0.048 C 
ENDBRANCH  35  36
ENDBRANCH  34  35
ENDBRANCH  28  29
ENDBRANCH   1  28
TORSDOF 10
