REMARK  Name = ZINC36203036
REMARK  10 active torsions:
REMARK  status: ('A' for Active; 'I' for Inactive)
REMARK    1  A    between atoms: C_3  and  C_8
REMARK    2  A    between atoms: C_8  and  N_9
REMARK    3  A    between atoms: N_9  and  C_10
REMARK    4  A    between atoms: N_9  and  C_32
REMARK    5  A    between atoms: C_10  and  C_11
REMARK    6  A    between atoms: C_14  and  C_16
REMARK    7  A    between atoms: C_16  and  C_17
REMARK    8  A    between atoms: C_16  and  C_24
REMARK    9  A    between atoms: C_16  and  O_31
REMARK   10  A    between atoms: C_32  and  C_33
REMARK                            x       y       z     vdW  Elec       q    Type
REMARK                         _______ _______ _______ _____ _____    ______ ____
ROOT
ATOM      1  C   UNL     1       6.191   2.416   3.549  0.00  0.00    +0.089 A 
ATOM      2  C   UNL     1       6.610   1.982   4.751  0.00  0.00    +0.043 A 
ATOM      3  C   UNL     1       6.298   2.997   5.684  0.00  0.00    +0.048 A 
ATOM      4  C   UNL     1       5.706   3.990   4.997  0.00  0.00    +0.146 A 
ATOM      5  O   UNL     1       5.649   3.635   3.703  0.00  0.00    -0.463 OA
ENDROOT
BRANCH   1   6
ATOM      6  C   UNL     1       6.314   1.664   2.248  0.00  0.00    -0.003 C 
BRANCH   6   7
ATOM      7  N   UNL     1       5.114   0.842   2.043  0.00  0.00    +0.389 N 
ATOM      8  H   UNL     1       4.977   0.242   2.843  0.00  0.00    -0.081 HD
BRANCH   7   9
ATOM      9  C   UNL     1       5.285   0.019   0.838  0.00  0.00    -0.042 C 
BRANCH   9  12
ATOM     10  C   UNL     1       7.131  -3.095   1.913  0.00  0.00    +0.003 A 
ATOM     11  C   UNL     1       6.119  -2.177   1.704  0.00  0.00    +0.002 A 
ATOM     12  C   UNL     1       6.389  -0.981   1.065  0.00  0.00    -0.061 A 
ATOM     13  C   UNL     1       7.673  -0.703   0.634  0.00  0.00    +0.040 A 
ATOM     14  C   UNL     1       8.687  -1.622   0.843  0.00  0.00    +0.124 A 
ATOM     15  C   UNL     1       8.415  -2.819   1.483  0.00  0.00    +0.038 A 
ATOM     16  F   UNL     1       9.942  -1.351   0.421  0.00  0.00    -0.205 F 
ENDBRANCH   9  12
ENDBRANCH   7   9
BRANCH   7  17
ATOM     17  C   UNL     1       3.944   1.714   1.879  0.00  0.00    -0.046 C 
BRANCH  17  18
ATOM     18  C   UNL     1       2.675   0.861   1.830  0.00  0.00    +0.102 C 
ATOM     19  C   UNL     1       1.442   1.768   1.623  0.00  0.00    +0.032 C 
ATOM     20  C   UNL     1       0.385   1.101   2.545  0.00  0.00    +0.030 C 
ATOM     21  C   UNL     1       1.281   0.595   3.703  0.00  0.00    +0.160 C 
ATOM     22  O   UNL     1       2.504   0.172   3.074  0.00  0.00    -0.378 OA
ENDBRANCH  17  18
ENDBRANCH   7  17
ENDBRANCH   6   7
ENDBRANCH   1   6
BRANCH   4  23
ATOM     23  C   UNL     1       5.198   5.284   5.579  0.00  0.00    +0.174 C 
BRANCH  23  24
ATOM     24  C   UNL     1       5.294   6.374   4.542  0.00  0.00    -0.002 A 
ATOM     25  C   UNL     1       6.104   7.472   4.767  0.00  0.00    +0.007 A 
ATOM     26  C   UNL     1       6.193   8.472   3.817  0.00  0.00    +0.003 A 
ATOM     27  C   UNL     1       5.473   8.375   2.641  0.00  0.00    +0.038 A 
ATOM     28  C   UNL     1       4.662   7.276   2.415  0.00  0.00    +0.124 A 
ATOM     29  C   UNL     1       4.578   6.272   3.365  0.00  0.00    +0.045 A 
ATOM     30  F   UNL     1       3.958   7.181   1.266  0.00  0.00    -0.205 F 
ENDBRANCH  23  24
BRANCH  23  31
ATOM     31  C   UNL     1       3.760   5.116   5.999  0.00  0.00    -0.002 A 
ATOM     32  C   UNL     1       2.878   4.430   5.184  0.00  0.00    +0.007 A 
ATOM     33  C   UNL     1       1.560   4.275   5.568  0.00  0.00    +0.003 A 
ATOM     34  C   UNL     1       1.121   4.806   6.766  0.00  0.00    +0.038 A 
ATOM     35  C   UNL     1       2.003   5.494   7.582  0.00  0.00    +0.124 A 
ATOM     36  C   UNL     1       3.325   5.643   7.200  0.00  0.00    +0.045 A 
ATOM     37  F   UNL     1       1.575   6.014   8.753  0.00  0.00    -0.205 F 
ENDBRANCH  23  31
BRANCH  23  38
ATOM     38  O   UNL     1       5.988   5.638   6.716  0.00  0.00    -0.372 OA
ATOM     39  H   UNL     1       6.926   5.762   6.520  0.00  0.00    +0.212 HD
ENDBRANCH  23  38
ENDBRANCH   4  23
TORSDOF 10
