REMARK  Name = ZINC39136221
REMARK  13 active torsions:
REMARK  status: ('A' for Active; 'I' for Inactive)
REMARK    1  A    between atoms: C_1  and  C_2
REMARK    2  A    between atoms: C_5  and  C_36
REMARK    3  A    between atoms: N_6  and  C_7
REMARK    4  A    between atoms: C_10  and  C_13
REMARK    5  A    between atoms: C_20  and  O_35
REMARK    6  A    between atoms: C_21  and  O_31
REMARK    7  A    between atoms: C_22  and  O_27
REMARK    8  A    between atoms: O_27  and  C_28
REMARK    9  A    between atoms: C_28  and  C_29
REMARK   10  A    between atoms: C_28  and  C_30
REMARK   11  A    between atoms: O_31  and  C_32
REMARK   12  A    between atoms: C_32  and  C_33
REMARK   13  A    between atoms: C_32  and  C_34
REMARK                            x       y       z     vdW  Elec       q    Type
REMARK                         _______ _______ _______ _____ _____    ______ ____
ROOT
ATOM      1  C   UNL     1      -0.166   0.589   6.053  0.00  0.00    +0.079 C 
ATOM      2  C   UNL     1      -0.120  -0.467   7.144  0.00  0.00    +0.004 C 
ATOM      3  C   UNL     1      -0.912  -0.387   8.197  0.00  0.00    +0.094 C 
ATOM      4  N   UNL     1      -1.822   0.650   8.368  0.00  0.00    -0.249 N 
ATOM      5  C   UNL     1      -1.910   1.642   7.410  0.00  0.00    +0.106 A 
ATOM      6  C   UNL     1      -1.164   1.703   6.263  0.00  0.00    +0.037 A 
ATOM      7  C   UNL     1      -1.370   2.759   5.401  0.00  0.00    +0.169 A 
ATOM      8  C   UNL     1      -2.334   3.715   5.737  0.00  0.00    +0.208 A 
ATOM      9  C   UNL     1      -3.079   3.626   6.909  0.00  0.00    +0.211 A 
ATOM     10  C   UNL     1      -2.865   2.567   7.771  0.00  0.00    +0.203 A 
ATOM     11  O   UNL     1      -3.356   2.130   8.954  0.00  0.00    -0.403 OA
ATOM     12  C   UNL     1      -2.731   0.985   9.308  0.00  0.00    +0.425 A 
ATOM     13  O   UNL     1      -2.955   0.350  10.321  0.00  0.00    -0.222 OA
ENDROOT
BRANCH   1  17
ATOM     14  C   UNL     1      -1.089  -1.351   2.358  0.00  0.00    +0.047 A 
ATOM     15  C   UNL     1       0.127  -0.700   2.517  0.00  0.00    +0.026 A 
ATOM     16  C   UNL     1       0.422  -0.074   3.712  0.00  0.00    +0.006 A 
ATOM     17  C   UNL     1      -0.492  -0.095   4.750  0.00  0.00    -0.036 A 
ATOM     18  C   UNL     1      -1.703  -0.743   4.594  0.00  0.00    +0.006 A 
ATOM     19  C   UNL     1      -2.007  -1.366   3.400  0.00  0.00    +0.026 A 
BRANCH  14  25
ATOM     20  C   UNL     1      -1.437   0.113  -0.315  0.00  0.00    +0.064 C 
ATOM     21  C   UNL     1      -1.554  -1.367  -0.060  0.00  0.00    +0.021 A 
ATOM     22  C   UNL     1      -1.830  -2.310  -0.984  0.00  0.00    +0.023 A 
ATOM     23  C   UNL     1      -1.844  -3.556  -0.327  0.00  0.00    +0.023 A 
ATOM     24  C   UNL     1      -1.577  -3.330   0.976  0.00  0.00    +0.021 A 
ATOM     25  N   UNL     1      -1.392  -1.988   1.146  0.00  0.00    -0.318 N 
ATOM     26  C   UNL     1      -1.492  -4.378   2.055  0.00  0.00    +0.064 C 
ENDBRANCH  14  25
ENDBRANCH   1  17
BRANCH   7  27
ATOM     27  O   UNL     1      -0.653   2.867   4.250  0.00  0.00    -0.503 OA
ATOM     28  H   UNL     1      -1.029   2.379   3.505  0.00  0.00    +0.292 HD
ENDBRANCH   7  27
BRANCH   9  29
ATOM     29  O   UNL     1      -4.008   4.575   7.204  0.00  0.00    -0.482 OA
BRANCH  29  30
ATOM     30  C   UNL     1      -5.327   4.372   6.694  0.00  0.00    +0.168 C 
ATOM     31  C   UNL     1      -6.147   3.569   7.706  0.00  0.00    +0.051 C 
ATOM     32  C   UNL     1      -5.996   5.727   6.456  0.00  0.00    +0.051 C 
ENDBRANCH  29  30
ENDBRANCH   9  29
BRANCH   8  33
ATOM     33  O   UNL     1      -2.548   4.763   4.894  0.00  0.00    -0.482 OA
BRANCH  33  34
ATOM     34  C   UNL     1      -1.681   5.891   5.028  0.00  0.00    +0.168 C 
ATOM     35  C   UNL     1      -1.565   6.608   3.681  0.00  0.00    +0.051 C 
ATOM     36  C   UNL     1      -2.253   6.854   6.071  0.00  0.00    +0.051 C 
ENDBRANCH  33  34
ENDBRANCH   8  33
TORSDOF 7
