REMARK  Name = ZINC35469054
REMARK  8 active torsions:
REMARK  status: ('A' for Active; 'I' for Inactive)
REMARK    1  A    between atoms: C_1  and  C_2
REMARK    2  A    between atoms: C_2  and  C_3
REMARK    3  A    between atoms: C_3  and  C_5
REMARK    4  A    between atoms: C_3  and  C_6
REMARK    5  A    between atoms: C_9  and  C_12
REMARK    6  A    between atoms: C_12  and  C_14
REMARK    7  A    between atoms: C_12  and  N_21
REMARK    8  A    between atoms: N_21  and  C_22
REMARK                            x       y       z     vdW  Elec       q    Type
REMARK                         _______ _______ _______ _____ _____    ______ ____
ROOT
ATOM      1  C   UNL     1      -1.358  -6.295   0.456  0.00  0.00    -0.010 C 
ENDROOT
BRANCH   1   2
ATOM      2  C   UNL     1      -2.674  -6.852  -0.022  0.00  0.00    -0.057 A 
ATOM      3  C   UNL     1      -3.777  -6.831   0.812  0.00  0.00    +0.003 A 
ATOM      4  C   UNL     1      -4.984  -7.342   0.374  0.00  0.00    +0.014 A 
ATOM      5  C   UNL     1      -5.090  -7.874  -0.898  0.00  0.00    +0.013 A 
ATOM      6  C   UNL     1      -3.986  -7.894  -1.732  0.00  0.00    +0.014 A 
ATOM      7  C   UNL     1      -2.781  -7.378  -1.296  0.00  0.00    +0.003 A 
ATOM      8  I   UNL     1      -6.919  -8.649  -1.562  0.00  0.00    -0.044 I 
ENDBRANCH   1   2
BRANCH   1  12
ATOM      9  C   UNL     1      -1.414  -2.036   0.129  0.00  0.00    -0.045 A 
ATOM     10  C   UNL     1      -0.780  -2.795  -0.837  0.00  0.00    +0.004 A 
ATOM     11  C   UNL     1      -0.762  -4.173  -0.731  0.00  0.00    +0.002 A 
ATOM     12  C   UNL     1      -1.377  -4.792   0.341  0.00  0.00    -0.057 A 
ATOM     13  C   UNL     1      -2.010  -4.033   1.307  0.00  0.00    +0.002 A 
ATOM     14  C   UNL     1      -2.024  -2.655   1.203  0.00  0.00    +0.004 A 
BRANCH   9  15
ATOM     15  C   UNL     1      -1.433  -0.534   0.013  0.00  0.00    +0.016 C 
ATOM     16  C   UNL     1      -2.135  -0.131  -1.286  0.00  0.00    +0.012 C 
BRANCH  15  18
ATOM     17  C   UNL     1      -0.019   1.526   0.010  0.00  0.00    +0.004 C 
ATOM     18  C   UNL     1       0.002  -0.004   0.002  0.00  0.00    +0.004 C 
ENDBRANCH  15  18
ENDBRANCH   9  15
ENDBRANCH   1  12
BRANCH   1  19
ATOM     19  N   UNL     1      -1.145  -6.676   1.858  0.00  0.00    +0.384 N 
ATOM     20  C   UNL     1      -1.007  -8.135   1.954  0.00  0.00    -0.099 C 
ATOM     21  H   UNL     1      -0.305  -6.235   2.203  0.00  0.00    -0.085 HD
ATOM     22  H   UNL     1      -1.933  -6.376   2.412  0.00  0.00    -0.085 HD
ENDBRANCH   1  19
TORSDOF 5
