REMARK  Name = ZINC37425495
REMARK  13 active torsions:
REMARK  status: ('A' for Active; 'I' for Inactive)
REMARK    1  A    between atoms: C_1  and  C_2
REMARK    2  A    between atoms: C_2  and  C_3
REMARK    3  A    between atoms: C_3  and  N_4
REMARK    4  A    between atoms: C_5  and  C_7
REMARK    5  A    between atoms: C_7  and  N_8
REMARK    6  A    between atoms: C_11  and  C_22
REMARK    7  A    between atoms: N_13  and  C_14
REMARK    8  A    between atoms: C_18  and  C_21
REMARK    9  A    between atoms: C_19  and  C_20
REMARK   10  A    between atoms: C_22  and  C_23
REMARK   11  A    between atoms: C_22  and  C_24
REMARK   12  A    between atoms: C_22  and  C_25
REMARK   13  A    between atoms: C_26  and  C_32
REMARK                            x       y       z     vdW  Elec       q    Type
REMARK                         _______ _______ _______ _____ _____    ______ ____
ROOT
ATOM      1  N   UNL     1      -2.737  -5.608  -5.311  0.00  0.00    -0.246 N 
ATOM      2  C   UNL     1      -1.775  -5.838  -6.306  0.00  0.00    +0.136 A 
ATOM      3  C   UNL     1      -0.801  -4.957  -6.630  0.00  0.00    +0.034 A 
ATOM      4  C   UNL     1      -0.032  -5.523  -7.648  0.00  0.00    +0.075 A 
ATOM      5  N   UNL     1      -0.528  -6.704  -7.929  0.00  0.00    -0.169 NA
ATOM      6  N   UNL     1      -1.635  -6.930  -7.095  0.00  0.00    -0.217 N 
ATOM      7  C   UNL     1      -0.614  -3.606  -5.988  0.00  0.00    +0.118 C 
ATOM      8  S   UNL     1       0.065  -3.849  -4.307  0.00  0.00    -0.138 S 
ATOM      9  C   UNL     1      -0.885  -5.292  -3.723  0.00  0.00    +0.166 C 
ATOM     10  C   UNL     1      -2.327  -5.167  -4.118  0.00  0.00    +0.231 C 
ATOM     11  O   UNL     1      -3.124  -4.669  -3.352  0.00  0.00    -0.274 OA
ENDROOT
BRANCH   6  12
ATOM     12  C   UNL     1      -2.445  -8.073  -7.082  0.00  0.00    +0.071 A 
ATOM     13  C   UNL     1      -2.743  -8.701  -5.880  0.00  0.00    +0.028 A 
ATOM     14  C   UNL     1      -3.542  -9.828  -5.871  0.00  0.00    +0.002 A 
ATOM     15  C   UNL     1      -4.044 -10.331  -7.057  0.00  0.00    +0.004 A 
ATOM     16  C   UNL     1      -3.749  -9.708  -8.256  0.00  0.00    -0.046 A 
ATOM     17  C   UNL     1      -2.956  -8.577  -8.271  0.00  0.00    -0.022 A 
ATOM     18  C   UNL     1      -2.640  -7.894  -9.577  0.00  0.00    +0.046 C 
ATOM     19  C   UNL     1      -4.299 -10.259  -9.546  0.00  0.00    +0.044 C 
ENDBRANCH   6  12
BRANCH   7  20
ATOM     20  C   UNL     1       0.344  -2.783  -6.811  0.00  0.00    +0.007 A 
ATOM     21  C   UNL     1       1.699  -2.806  -6.820  0.00  0.00    +0.012 A 
ATOM     22  C   UNL     1       2.378  -1.951  -7.668  0.00  0.00    +0.008 A 
ATOM     23  C   UNL     1       1.669  -1.115  -8.465  0.00  0.00    +0.045 A 
ATOM     24  S   UNL     1      -0.012  -1.530  -8.031  0.00  0.00    -0.100 S 
ENDBRANCH   7  20
BRANCH   4  25
ATOM     25  C   UNL     1       1.163  -4.886  -8.311  0.00  0.00    +0.007 C 
ATOM     26  C   UNL     1       2.283  -4.712  -7.284  0.00  0.00    +0.017 C 
ATOM     27  C   UNL     1       1.651  -5.782  -9.451  0.00  0.00    +0.017 C 
ATOM     28  C   UNL     1       0.767  -3.519  -8.871  0.00  0.00    +0.017 C 
ENDBRANCH   4  25
BRANCH   1  29
ATOM     29  C   UNL     1      -4.159  -5.840  -5.577  0.00  0.00    +0.210 C 
BRANCH  29  31
ATOM     30  N   UNL     1      -6.122  -4.520  -6.298  0.00  0.00    -0.314 N 
ATOM     31  C   UNL     1      -4.808  -4.548  -6.001  0.00  0.00    +0.231 C 
ATOM     32  O   UNL     1      -4.148  -3.533  -6.074  0.00  0.00    -0.274 OA
ATOM     33  H   UNL     1      -6.650  -5.331  -6.240  0.00  0.00    +0.149 HD
BRANCH  30  34
ATOM     34  C   UNL     1      -6.753  -3.264  -6.710  0.00  0.00    +0.104 C 
BRANCH  34  36
ATOM     35  C   UNL     1      -8.898  -2.194  -7.418  0.00  0.00    +0.005 C 
ATOM     36  C   UNL     1      -8.239  -3.506  -6.987  0.00  0.00    +0.015 C 
ENDBRANCH  34  36
ENDBRANCH  30  34
ENDBRANCH  29  31
ENDBRANCH   1  29
TORSDOF 7
