REMARK  Name = ZINC32099633
REMARK  8 active torsions:
REMARK  status: ('A' for Active; 'I' for Inactive)
REMARK    1  A    between atoms: C_1  and  C_2
REMARK    2  A    between atoms: N_4  and  C_23
REMARK    3  A    between atoms: C_8  and  C_9
REMARK    4  A    between atoms: C_13  and  O_15
REMARK    5  A    between atoms: O_15  and  C_16
REMARK    6  A    between atoms: C_16  and  C_18
REMARK    7  A    between atoms: C_26  and  S_29
REMARK    8  A    between atoms: S_29  and  N_32
REMARK                            x       y       z     vdW  Elec       q    Type
REMARK                         _______ _______ _______ _____ _____    ______ ____
ROOT
ATOM      1  C   UNL     1       0.287 -10.371   0.163  0.00  0.00    +0.068 C 
ATOM      2  C   UNL     1       1.761 -10.057   0.125  0.00  0.00    +0.069 C 
ATOM      3  N   UNL     1       2.729 -10.918   0.181  0.00  0.00    -0.177 NA
ATOM      4  N   UNL     1       3.974 -10.291   0.127  0.00  0.00    -0.156 N 
ATOM      5  C   UNL     1       3.817  -8.956   0.024  0.00  0.00    +0.272 C 
ATOM      6  O   UNL     1       4.698  -8.117  -0.044  0.00  0.00    -0.268 OA
ATOM      7  C   UNL     1       2.362  -8.719   0.012  0.00  0.00    +0.062 C 
ATOM      8  C   UNL     1       1.707  -7.506  -0.079  0.00  0.00    +0.023 C 
ENDROOT
BRANCH   8   9
ATOM      9  C   UNL     1       2.465  -6.282  -0.353  0.00  0.00    -0.021 A 
ATOM     10  C   UNL     1       3.509  -6.295  -1.289  0.00  0.00    +0.008 A 
ATOM     11  C   UNL     1       4.218  -5.141  -1.543  0.00  0.00    +0.004 A 
ATOM     12  C   UNL     1       3.905  -3.969  -0.878  0.00  0.00    +0.046 A 
ATOM     13  C   UNL     1       2.873  -3.944   0.052  0.00  0.00    +0.133 A 
ATOM     14  C   UNL     1       2.155  -5.095   0.322  0.00  0.00    +0.054 A 
BRANCH  13  15
ATOM     15  O   UNL     1       2.572  -2.789   0.701  0.00  0.00    -0.422 OA
BRANCH  15  16
ATOM     16  C   UNL     1       1.877  -1.847   0.030  0.00  0.00    +0.351 C 
ATOM     17  O   UNL     1       1.616  -2.008  -1.147  0.00  0.00    -0.244 OA
BRANCH  16  18
ATOM     18  C   UNL     1       1.436  -0.633   0.719  0.00  0.00    +0.097 A 
ATOM     19  C   UNL     1       0.719   0.444   0.219  0.00  0.00    +0.022 A 
ATOM     20  C   UNL     1       0.436   1.465   1.091  0.00  0.00    +0.008 A 
ATOM     21  C   UNL     1       0.862   1.375   2.378  0.00  0.00    +0.046 A 
ATOM     22  S   UNL     1       1.682  -0.152   2.419  0.00  0.00    -0.090 S 
ENDBRANCH  16  18
ENDBRANCH  15  16
ENDBRANCH  13  15
ENDBRANCH   8   9
BRANCH   4  23
ATOM     23  C   UNL     1       5.207 -10.953   0.173  0.00  0.00    +0.060 A 
ATOM     24  C   UNL     1       6.389 -10.226   0.107  0.00  0.00    +0.027 A 
ATOM     25  C   UNL     1       7.604 -10.881   0.159  0.00  0.00    +0.030 A 
ATOM     26  C   UNL     1       7.645 -12.259   0.265  0.00  0.00    +0.105 A 
ATOM     27  C   UNL     1       6.470 -12.986   0.326  0.00  0.00    +0.030 A 
ATOM     28  C   UNL     1       5.252 -12.337   0.280  0.00  0.00    +0.027 A 
BRANCH  26  29
ATOM     29  S   UNL     1       9.197 -13.091   0.324  0.00  0.00    +0.056 S 
ATOM     30  O   UNL     1      10.146 -12.147   0.800  0.00  0.00    -0.153 OA
ATOM     31  O   UNL     1       8.967 -14.334   0.974  0.00  0.00    -0.153 OA
BRANCH  29  32
ATOM     32  N   UNL     1       9.623 -13.445  -1.236  0.00  0.00    -0.204 NA
ATOM     33  H   UNL     1      10.591 -13.967  -1.243  0.00  0.00    +0.144 HD
ATOM     34  H   UNL     1       9.705 -12.512  -1.814  0.00  0.00    +0.144 HD
ENDBRANCH  29  32
ENDBRANCH  26  29
ENDBRANCH   4  23
TORSDOF 7
