REMARK  Name = ZINC21200846
REMARK  12 active torsions:
REMARK  status: ('A' for Active; 'I' for Inactive)
REMARK    1  A    between atoms: C_1  and  C_2
REMARK    2  A    between atoms: C_2  and  O_3
REMARK    3  A    between atoms: O_3  and  C_4
REMARK    4  A    between atoms: C_7  and  C_10
REMARK    5  A    between atoms: N_16  and  C_17
REMARK    6  A    between atoms: C_17  and  C_18
REMARK    7  A    between atoms: C_18  and  C_19
REMARK    8  A    between atoms: N_21  and  C_22
REMARK    9  A    between atoms: C_22  and  C_23
REMARK   10  A    between atoms: C_23  and  N_30
REMARK   11  A    between atoms: N_30  and  C_31
REMARK   12  A    between atoms: N_30  and  C_32
REMARK                            x       y       z     vdW  Elec       q    Type
REMARK                         _______ _______ _______ _____ _____    ______ ____
ROOT
ATOM      1  C   UNL     1       1.999  -4.797  -3.685  0.00  0.00    +0.135 C 
ENDROOT
BRANCH   1   8
ATOM      2  C   UNL     1       0.805  -3.692  -1.741  0.00  0.00    +0.163 A 
ATOM      3  N   UNL     1       0.352  -4.063  -0.577  0.00  0.00    -0.153 NA
ATOM      4  N   UNL     1       0.633  -5.427  -0.416  0.00  0.00    -0.254 N 
ATOM      5  H   UNL     1       0.410  -5.971   0.356  0.00  0.00    +0.191 HD
ATOM      6  C   UNL     1       1.269  -5.844  -1.530  0.00  0.00    +0.176 A 
ATOM      7  S   UNL     1       1.829  -7.432  -1.838  0.00  0.00    -0.011 S 
ATOM      8  N   UNL     1       1.378  -4.787  -2.358  0.00  0.00    -0.303 N 
BRANCH   2  12
ATOM      9  C   UNL     1       0.550   0.224  -3.373  0.00  0.00    +0.121 A 
ATOM     10  C   UNL     1       1.609  -0.604  -3.721  0.00  0.00    +0.046 A 
ATOM     11  C   UNL     1       1.695  -1.875  -3.194  0.00  0.00    +0.015 A 
ATOM     12  C   UNL     1       0.717  -2.329  -2.309  0.00  0.00    +0.019 A 
ATOM     13  C   UNL     1      -0.346  -1.494  -1.960  0.00  0.00    +0.015 A 
ATOM     14  C   UNL     1      -0.423  -0.223  -2.488  0.00  0.00    +0.046 A 
BRANCH   9  15
ATOM     15  O   UNL     1       0.468   1.476  -3.894  0.00  0.00    -0.492 OA
BRANCH  15  17
ATOM     16  C   UNL     1       1.241   3.300  -5.277  0.00  0.00    +0.048 C 
ATOM     17  C   UNL     1       1.502   1.871  -4.798  0.00  0.00    +0.225 C 
ENDBRANCH  15  17
ENDBRANCH   9  15
ENDBRANCH   2  12
ENDBRANCH   1   8
BRANCH   1  18
ATOM     18  C   UNL     1       3.510  -4.601  -3.542  0.00  0.00    +0.117 C 
BRANCH  18  19
ATOM     19  C   UNL     1       4.132  -4.474  -4.909  0.00  0.00    +0.215 C 
ATOM     20  O   UNL     1       3.435  -4.534  -5.900  0.00  0.00    -0.276 OA
ATOM     21  N   UNL     1       5.462  -4.293  -5.030  0.00  0.00    -0.317 N 
ATOM     22  H   UNL     1       6.019  -4.244  -4.237  0.00  0.00    +0.149 HD
BRANCH  21  23
ATOM     23  C   UNL     1       6.066  -4.170  -6.359  0.00  0.00    +0.092 C 
BRANCH  23  24
ATOM     24  C   UNL     1       7.548  -3.818  -6.214  0.00  0.00    -0.050 C 
ATOM     25  C   UNL     1       7.936  -2.820  -7.271  0.00  0.00    -0.010 C 
ATOM     26  C   UNL     1       7.032  -2.899  -8.517  0.00  0.00    -0.001 C 
ATOM     27  C   UNL     1       6.713  -4.348  -8.932  0.00  0.00    -0.000 C 
ATOM     28  C   UNL     1       7.912  -5.251  -8.839  0.00  0.00    -0.000 C 
ATOM     29  C   UNL     1       7.896  -5.946  -7.462  0.00  0.00    -0.001 C 
ATOM     30  C   UNL     1       8.403  -5.088  -6.401  0.00  0.00    -0.010 C 
BRANCH  24  31
ATOM     31  N   UNL     1       7.793  -3.250  -4.881  0.00  0.00    +0.381 N 
ATOM     32  C   UNL     1       9.212  -2.894  -4.754  0.00  0.00    -0.096 C 
ATOM     33  C   UNL     1       6.968  -2.048  -4.702  0.00  0.00    -0.096 C 
ATOM     34  H   UNL     1       7.552  -3.931  -4.176  0.00  0.00    -0.082 HD
ENDBRANCH  24  31
ENDBRANCH  23  24
ENDBRANCH  21  23
ENDBRANCH  18  19
ENDBRANCH   1  18
TORSDOF 9
