REMARK  Name = ZINC59170479
REMARK  8 active torsions:
REMARK  status: ('A' for Active; 'I' for Inactive)
REMARK    1  A    between atoms: C_1  and  C_2
REMARK    2  A    between atoms: C_5  and  N_9
REMARK    3  A    between atoms: C_7  and  C_8
REMARK    4  A    between atoms: C_10  and  C_12
REMARK    5  A    between atoms: C_16  and  N_33
REMARK    6  A    between atoms: N_22  and  C_23
REMARK    7  A    between atoms: C_26  and  S_29
REMARK    8  A    between atoms: S_29  and  N_32
REMARK                            x       y       z     vdW  Elec       q    Type
REMARK                         _______ _______ _______ _____ _____    ______ ____
ROOT
ATOM      1  C   UNL     1      -0.182  -6.284  -1.175  0.00  0.00    +0.098 A 
ATOM      2  C   UNL     1      -0.169  -6.991  -2.371  0.00  0.00    +0.030 A 
ATOM      3  C   UNL     1      -0.208  -8.453  -2.289  0.00  0.00    +0.020 A 
ATOM      4  C   UNL     1       0.068  -9.241  -3.412  0.00  0.00    +0.044 A 
ATOM      5  C   UNL     1       0.028 -10.603  -3.310  0.00  0.00    +0.127 A 
ATOM      6  C   UNL     1      -0.285 -11.211  -2.103  0.00  0.00    +0.036 A 
ATOM      7  C   UNL     1      -0.562 -10.452  -0.984  0.00  0.00    +0.049 A 
ATOM      8  C   UNL     1      -0.529  -9.067  -1.064  0.00  0.00    +0.138 A 
ATOM      9  O   UNL     1      -0.805  -8.305   0.021  0.00  0.00    -0.439 OA
ATOM     10  C   UNL     1      -0.230  -7.074   0.071  0.00  0.00    +0.212 A 
ATOM     11  N   UNL     1       0.264  -6.598   1.194  0.00  0.00    -0.325 N 
ATOM     12  H   UNL     1       0.763  -5.766   1.190  0.00  0.00    +0.169 HD
ENDROOT
BRANCH  11  13
ATOM     13  C   UNL     1       0.074  -7.276   2.366  0.00  0.00    +0.042 A 
ATOM     14  C   UNL     1      -1.184  -7.796   2.680  0.00  0.00    +0.027 A 
ATOM     15  C   UNL     1      -1.368  -8.479   3.864  0.00  0.00    +0.030 A 
ATOM     16  C   UNL     1      -0.310  -8.650   4.740  0.00  0.00    +0.105 A 
ATOM     17  C   UNL     1       0.939  -8.138   4.435  0.00  0.00    +0.030 A 
ATOM     18  C   UNL     1       1.139  -7.458   3.252  0.00  0.00    +0.027 A 
BRANCH  16  19
ATOM     19  S   UNL     1      -0.554  -9.523   6.251  0.00  0.00    +0.056 S 
ATOM     20  O   UNL     1       0.454  -9.076   7.146  0.00  0.00    -0.153 OA
ATOM     21  O   UNL     1      -1.939  -9.429   6.554  0.00  0.00    -0.153 OA
BRANCH  19  22
ATOM     22  N   UNL     1      -0.244 -11.122   5.948  0.00  0.00    -0.204 NA
ATOM     23  H   UNL     1       0.018 -11.405   5.058  0.00  0.00    +0.144 HD
ATOM     24  H   UNL     1      -0.324 -11.775   6.661  0.00  0.00    +0.144 HD
ENDBRANCH  19  22
ENDBRANCH  16  19
ENDBRANCH  11  13
BRANCH   1  26
ATOM     25  N   UNL     1      -0.297  -4.153   0.013  0.00  0.00    -0.281 N 
ATOM     26  C   UNL     1      -0.145  -4.812  -1.152  0.00  0.00    +0.253 C 
ATOM     27  O   UNL     1       0.024  -4.192  -2.185  0.00  0.00    -0.270 OA
ATOM     28  H   UNL     1      -0.379  -4.648   0.844  0.00  0.00    +0.155 HD
BRANCH  25  33
ATOM     29  C   UNL     1      -0.466   1.517   0.061  0.00  0.00    +0.044 C 
ATOM     30  C   UNL     1      -0.421   0.011   0.048  0.00  0.00    -0.047 A 
ATOM     31  C   UNL     1       0.395  -0.648  -0.854  0.00  0.00    +0.005 A 
ATOM     32  C   UNL     1       0.438  -2.028  -0.868  0.00  0.00    +0.023 A 
ATOM     33  C   UNL     1      -0.339  -2.755   0.025  0.00  0.00    +0.034 A 
ATOM     34  C   UNL     1      -1.156  -2.091   0.930  0.00  0.00    +0.027 A 
ATOM     35  C   UNL     1      -1.191  -0.710   0.943  0.00  0.00    -0.046 A 
ATOM     36  C   UNL     1      -2.074   0.012   1.928  0.00  0.00    +0.044 C 
ENDBRANCH  25  33
ENDBRANCH   1  26
BRANCH   5  37
ATOM     37  N   UNL     1       0.319 -11.438  -4.498  0.00  0.00    +0.056 N 
ATOM     38  O   UNL     1       0.592 -10.913  -5.553  0.00  0.00    -0.126 OA
ATOM     39  O   UNL     1       0.285 -12.643  -4.413  0.00  0.00    -0.126 OA
ENDBRANCH   5  37
TORSDOF 6
