REMARK  Name = ZINC39413709
REMARK  7 active torsions:
REMARK  status: ('A' for Active; 'I' for Inactive)
REMARK    1  A    between atoms: C_1  and  C_2
REMARK    2  A    between atoms: N_14  and  N_15
REMARK    3  A    between atoms: C_22  and  C_39
REMARK    4  A    between atoms: C_25  and  O_28
REMARK    5  A    between atoms: O_28  and  C_29
REMARK    6  A    between atoms: C_29  and  C_31
REMARK    7  A    between atoms: C_32  and  C_33
REMARK                            x       y       z     vdW  Elec       q    Type
REMARK                         _______ _______ _______ _____ _____    ______ ____
ROOT
ATOM      1  C   UNL     1      -0.019   1.522   0.010  0.00  0.00    +0.018 C 
ATOM      2  C   UNL     1       0.002  -0.004   0.002  0.00  0.00    +0.011 C 
ATOM      3  C   UNL     1      -1.386  -0.586  -0.002  0.00  0.00    +0.013 C 
ATOM      4  C   UNL     1      -2.002  -0.578   1.401  0.00  0.00    +0.005 C 
ATOM      5  C   UNL     1      -1.166   0.171   2.422  0.00  0.00    +0.003 C 
ATOM      6  C   UNL     1       0.261  -0.338   2.519  0.00  0.00    +0.001 C 
ATOM      7  C   UNL     1       0.831  -0.614   1.147  0.00  0.00    +0.005 C 
ATOM      8  C   UNL     1       2.226  -0.046   0.845  0.00  0.00    +0.010 C 
ATOM      9  C   UNL     1       2.295  -0.158  -0.705  0.00  0.00    +0.053 C 
ATOM     10  C   UNL     1       0.868  -0.403  -1.186  0.00  0.00    +0.043 C 
ATOM     11  N   UNL     1       0.471  -0.837  -2.312  0.00  0.00    -0.187 NA
ATOM     12  C   UNL     1       0.288  -1.674   3.282  0.00  0.00    +0.031 C 
ATOM     13  C   UNL     1      -0.469  -1.583   4.567  0.00  0.00    -0.027 C 
ATOM     14  C   UNL     1      -1.425  -0.730   4.777  0.00  0.00    -0.064 C 
ATOM     15  C   UNL     1      -1.861   0.284   3.767  0.00  0.00    -0.008 C 
ATOM     16  C   UNL     1      -3.379   0.222   3.597  0.00  0.00    +0.015 C 
ATOM     17  C   UNL     1      -4.081   0.303   4.951  0.00  0.00    +0.046 C 
ATOM     18  C   UNL     1      -3.643  -0.851   5.851  0.00  0.00    +0.181 C 
ATOM     19  C   UNL     1      -2.138  -0.758   6.118  0.00  0.00    +0.075 C 
ATOM     20  C   UNL     1      -1.508   1.673   4.317  0.00  0.00    +0.016 C 
ENDROOT
BRANCH  11  21
ATOM     21  N   UNL     1       1.404  -1.161  -3.306  0.00  0.00    -0.191 N 
ATOM     22  C   UNL     1       0.984  -1.622  -4.501  0.00  0.00    +0.317 C 
ATOM     23  O   UNL     1       1.793  -1.903  -5.363  0.00  0.00    -0.251 OA
ATOM     24  N   UNL     1      -0.334  -1.771  -4.739  0.00  0.00    -0.312 N 
ATOM     25  H   UNL     1       2.353  -1.054  -3.134  0.00  0.00    +0.179 HD
ATOM     26  H   UNL     1      -0.980  -1.547  -4.051  0.00  0.00    +0.147 HD
ATOM     27  H   UNL     1      -0.637  -2.103  -5.599  0.00  0.00    +0.147 HD
ENDBRANCH  11  21
BRANCH  18  28
ATOM     28  O   UNL     1      -4.350  -0.782   7.092  0.00  0.00    -0.458 OA
BRANCH  28  29
ATOM     29  C   UNL     1      -4.591  -1.948   7.726  0.00  0.00    +0.332 C 
ATOM     30  O   UNL     1      -4.211  -2.995   7.238  0.00  0.00    -0.246 OA
BRANCH  29  31
ATOM     31  C   UNL     1      -5.309  -1.953   9.000  0.00  0.00    +0.092 C 
ATOM     32  C   UNL     1      -5.550  -3.120   9.634  0.00  0.00    +0.015 C 
BRANCH  32  33
ATOM     33  C   UNL     1      -6.272  -3.125  10.916  0.00  0.00    -0.025 A 
ATOM     34  C   UNL     1      -6.716  -1.923  11.477  0.00  0.00    +0.008 A 
ATOM     35  C   UNL     1      -7.393  -1.936  12.679  0.00  0.00    +0.001 A 
ATOM     36  C   UNL     1      -7.633  -3.135  13.329  0.00  0.00    +0.000 A 
ATOM     37  C   UNL     1      -7.197  -4.328  12.779  0.00  0.00    +0.001 A 
ATOM     38  C   UNL     1      -6.524  -4.332  11.576  0.00  0.00    +0.008 A 
ENDBRANCH  32  33
ENDBRANCH  29  31
ENDBRANCH  28  29
ENDBRANCH  18  28
TORSDOF 5
