REMARK  Name = ZINC20906659
REMARK  10 active torsions:
REMARK  status: ('A' for Active; 'I' for Inactive)
REMARK    1  A    between atoms: C_1  and  C_2
REMARK    2  A    between atoms: C_5  and  N_9
REMARK    3  A    between atoms: C_6  and  C_8
REMARK    4  A    between atoms: C_10  and  C_12
REMARK    5  A    between atoms: C_12  and  C_13
REMARK    6  A    between atoms: C_13  and  S_14
REMARK    7  A    between atoms: S_14  and  C_15
REMARK    8  A    between atoms: N_20  and  N_21
REMARK    9  A    between atoms: C_22  and  C_23
REMARK   10  A    between atoms: C_27  and  O_29
REMARK                            x       y       z     vdW  Elec       q    Type
REMARK                         _______ _______ _______ _____ _____    ______ ____
ROOT
ATOM      1  C   UNL     1      -3.953   9.648   0.053  0.00  0.00    +0.210 A 
ATOM      2  N   UNL     1      -2.612   9.387   0.031  0.00  0.00    -0.186 NA
ATOM      3  C   UNL     1      -2.446   8.030   0.026  0.00  0.00    +0.232 A 
ATOM      4  N   UNL     1      -3.635   7.476   0.040  0.00  0.00    -0.245 N 
ATOM      5  N   UNL     1      -4.589   8.502   0.063  0.00  0.00    -0.144 NA
ATOM      6  N   UNL     1      -1.234   7.356   0.005  0.00  0.00    -0.205 N 
ATOM      7  H   UNL     1      -0.290   7.922  -0.011  0.00  0.00    +0.177 HD
ATOM      8  H   UNL     1      -3.732   6.381   0.034  0.00  0.00    +0.192 HD
ENDROOT
BRANCH   6   9
ATOM      9  N   UNL     1      -1.210   5.955   0.003  0.00  0.00    -0.188 NA
ATOM     10  C   UNL     1      -0.075   5.325  -0.017  0.00  0.00    +0.138 C 
BRANCH  10  11
ATOM     11  C   UNL     1      -0.050   3.851  -0.019  0.00  0.00    -0.002 A 
ATOM     12  C   UNL     1      -1.247   3.129  -0.000  0.00  0.00    +0.010 A 
ATOM     13  C   UNL     1      -1.219   1.750  -0.008  0.00  0.00    +0.004 A 
ATOM     14  C   UNL     1      -0.010   1.078  -0.025  0.00  0.00    +0.045 A 
ATOM     15  C   UNL     1       1.184   1.786  -0.043  0.00  0.00    +0.117 A 
ATOM     16  C   UNL     1       1.169   3.170  -0.041  0.00  0.00    +0.054 A 
BRANCH  15  17
ATOM     17  O   UNL     1       2.368   1.120  -0.064  0.00  0.00    -0.507 OA
ATOM     18  H   UNL     1       3.314   1.680  -0.079  0.00  0.00    +0.292 HD
ENDBRANCH  15  17
ENDBRANCH  10  11
ENDBRANCH   6   9
BRANCH   1  19
ATOM     19  S   UNL     1      -4.696  11.246   0.067  0.00  0.00    -0.084 S 
BRANCH  19  20
ATOM     20  C   UNL     1      -6.477  10.901   0.097  0.00  0.00    +0.086 C 
BRANCH  20  21
ATOM     21  C   UNL     1      -7.251  12.220   0.111  0.00  0.00    +0.107 C 
BRANCH  21  23
ATOM     22  N   UNL     1      -9.614  12.952   0.151  0.00  0.00    -0.285 N 
ATOM     23  C   UNL     1      -8.731  11.934   0.135  0.00  0.00    +0.218 C 
ATOM     24  O   UNL     1      -9.126  10.787   0.141  0.00  0.00    -0.275 OA
ATOM     25  H   UNL     1      -9.257  13.989   0.237  0.00  0.00    +0.155 HD
BRANCH  22  30
ATOM     26  C   UNL     1     -15.174  11.889  -0.229  0.00  0.00    +0.044 C 
ATOM     27  C   UNL     1     -13.697  12.171  -0.128  0.00  0.00    -0.050 A 
ATOM     28  C   UNL     1     -12.785  11.266  -0.640  0.00  0.00    +0.005 A 
ATOM     29  C   UNL     1     -11.431  11.522  -0.549  0.00  0.00    +0.024 A 
ATOM     30  C   UNL     1     -10.985  12.690   0.057  0.00  0.00    +0.036 A 
ATOM     31  C   UNL     1     -11.903  13.593   0.575  0.00  0.00    -0.029 A 
ATOM     32  C   UNL     1     -13.257  13.334   0.476  0.00  0.00    +0.008 A 
ATOM     33  C   UNL     1     -11.424  14.858   1.240  0.00  0.00    +0.045 C 
ENDBRANCH  22  30
ENDBRANCH  21  23
ENDBRANCH  20  21
ENDBRANCH  19  20
ENDBRANCH   1  19
TORSDOF 8
