REMARK  Name = ZINC20583712
REMARK  8 active torsions:
REMARK  status: ('A' for Active; 'I' for Inactive)
REMARK    1  A    between atoms: C_1  and  C_2
REMARK    2  A    between atoms: C_5  and  C_8
REMARK    3  A    between atoms: C_8  and  N_9
REMARK    4  A    between atoms: C_12  and  C_15
REMARK    5  A    between atoms: C_15  and  N_16
REMARK    6  A    between atoms: N_16  and  S_17
REMARK    7  A    between atoms: S_17  and  C_20
REMARK    8  A    between atoms: C_23  and  C_25
REMARK                            x       y       z     vdW  Elec       q    Type
REMARK                         _______ _______ _______ _____ _____    ______ ____
ROOT
ATOM      1  N   UNL     1      -5.606   7.445  -3.607  0.00  0.00    -0.189 NA
ATOM      2  H   UNL     1      -5.095   8.279  -3.104  0.00  0.00    +0.148 HD
ENDROOT
BRANCH   1   3
ATOM      3  S   UNL     1      -6.591   7.761  -4.899  0.00  0.00    +0.065 S 
ATOM      4  O   UNL     1      -6.404   9.130  -5.228  0.00  0.00    -0.153 OA
ATOM      5  O   UNL     1      -6.378   6.715  -5.838  0.00  0.00    -0.153 OA
BRANCH   3   6
ATOM      6  C   UNL     1      -8.254   7.601  -4.338  0.00  0.00    +0.143 A 
ATOM      7  C   UNL     1      -9.070   8.548  -3.807  0.00  0.00    +0.037 A 
ATOM      8  C   UNL     1     -10.348   8.198  -3.432  0.00  0.00    +0.020 A 
ATOM      9  C   UNL     1     -10.755   6.902  -3.607  0.00  0.00    +0.041 A 
ATOM     10  S   UNL     1      -9.301   6.155  -4.327  0.00  0.00    -0.067 S 
BRANCH   9  11
ATOM     11  C   UNL     1     -12.059   6.284  -3.290  0.00  0.00    +0.098 A 
ATOM     12  C   UNL     1     -12.271   4.909  -3.555  0.00  0.00    +0.036 A 
ATOM     13  C   UNL     1     -13.487   4.373  -3.249  0.00  0.00    +0.073 A 
ATOM     14  C   UNL     1     -14.462   5.226  -2.685  0.00  0.00    +0.265 A 
ATOM     15  O   UNL     1     -15.565   4.790  -2.395  0.00  0.00    -0.266 OA
ATOM     16  N   UNL     1     -14.168   6.521  -2.469  0.00  0.00    -0.243 N 
ATOM     17  H   UNL     1     -14.923   7.193  -2.035  0.00  0.00    +0.192 HD
ATOM     18  N   UNL     1     -13.016   7.010  -2.758  0.00  0.00    -0.170 NA
ENDBRANCH   9  11
ENDBRANCH   3   6
ENDBRANCH   1   3
BRANCH   1  19
ATOM     19  C   UNL     1      -5.588   6.108  -3.008  0.00  0.00    +0.107 C 
BRANCH  19  23
ATOM     20  N   UNL     1      -2.994   4.115  -1.333  0.00  0.00    +0.383 N 
ATOM     21  C   UNL     1      -2.120   5.104  -1.999  0.00  0.00    -0.078 C 
ATOM     22  C   UNL     1      -3.062   5.885  -2.950  0.00  0.00    -0.016 C 
ATOM     23  C   UNL     1      -4.361   5.968  -2.106  0.00  0.00    -0.014 C 
ATOM     24  C   UNL     1      -4.380   4.616  -1.363  0.00  0.00    -0.074 C 
ATOM     25  H   UNL     1      -2.938   3.151  -1.861  0.00  0.00    -0.081 HD
BRANCH  20  26
ATOM     26  C   UNL     1      -2.553   3.869   0.047  0.00  0.00    -0.043 C 
BRANCH  26  31
ATOM     27  C   UNL     1       2.490   1.048  -0.016  0.00  0.00    +0.044 C 
ATOM     28  C   UNL     1       1.175   1.783   0.000  0.00  0.00    -0.050 A 
ATOM     29  C   UNL     1      -0.013   1.076   0.008  0.00  0.00    +0.003 A 
ATOM     30  C   UNL     1      -1.219   1.751   0.017  0.00  0.00    +0.002 A 
ATOM     31  C   UNL     1      -1.238   3.133   0.030  0.00  0.00    -0.064 A 
ATOM     32  C   UNL     1      -0.050   3.840   0.022  0.00  0.00    +0.002 A 
ATOM     33  C   UNL     1       1.156   3.165   0.008  0.00  0.00    +0.003 A 
ENDBRANCH  26  31
ENDBRANCH  20  26
ENDBRANCH  19  23
ENDBRANCH   1  19
TORSDOF 7
