REMARK  Name = ZINC37245967
REMARK  13 active torsions:
REMARK  status: ('A' for Active; 'I' for Inactive)
REMARK    1  A    between atoms: C_1  and  C_2
REMARK    2  A    between atoms: C_2  and  C_4
REMARK    3  A    between atoms: C_2  and  C_9
REMARK    4  A    between atoms: C_4  and  C_5
REMARK    5  A    between atoms: C_5  and  O_7
REMARK    6  A    between atoms: O_7  and  C_8
REMARK    7  A    between atoms: C_15  and  C_42
REMARK    8  A    between atoms: C_27  and  C_41
REMARK    9  A    between atoms: C_30  and  O_33
REMARK   10  A    between atoms: O_33  and  C_34
REMARK   11  A    between atoms: C_34  and  C_36
REMARK   12  A    between atoms: C_36  and  C_37
REMARK   13  A    between atoms: C_37  and  C_38
REMARK                            x       y       z     vdW  Elec       q    Type
REMARK                         _______ _______ _______ _____ _____    ______ ____
ROOT
ATOM      1  C   UNL     1       0.705  -0.771  -1.388  0.00  0.00    +0.006 C 
ATOM      2  C   UNL     1       0.580  -2.267  -1.782  0.00  0.00    +0.005 C 
ATOM      3  C   UNL     1       0.022  -2.292  -3.238  0.00  0.00    +0.005 C 
ATOM      4  C   UNL     1       0.371  -0.882  -3.728  0.00  0.00    +0.006 C 
ATOM      5  C   UNL     1      -0.040  -0.026  -2.509  0.00  0.00    +0.032 C 
ATOM      6  C   UNL     1       0.385   1.383  -2.761  0.00  0.00    +0.140 C 
ATOM      7  O   UNL     1       0.950   2.047  -1.908  0.00  0.00    -0.297 OA
ATOM      8  C   UNL     1       0.082   1.961  -4.140  0.00  0.00    +0.079 C 
ATOM      9  C   UNL     1      -0.787   0.999  -4.935  0.00  0.00    +0.006 C 
ATOM     10  C   UNL     1      -0.190  -0.401  -5.020  0.00  0.00    -0.003 C 
ATOM     11  C   UNL     1      -1.211  -1.353  -5.640  0.00  0.00    +0.004 C 
ATOM     12  C   UNL     1      -1.570  -0.850  -7.044  0.00  0.00    +0.004 C 
ATOM     13  C   UNL     1      -0.781   0.415  -7.363  0.00  0.00    -0.001 C 
ATOM     14  C   UNL     1      -1.065   1.521  -6.349  0.00  0.00    -0.026 C 
ATOM     15  C   UNL     1      -0.176   2.724  -6.659  0.00  0.00    +0.011 C 
ATOM     16  C   UNL     1      -0.431   3.224  -8.081  0.00  0.00    +0.045 C 
ATOM     17  C   UNL     1      -0.198   2.107  -9.096  0.00  0.00    +0.177 C 
ATOM     18  C   UNL     1      -1.089   0.904  -8.778  0.00  0.00    +0.048 C 
ATOM     19  C   UNL     1      -2.536   1.944  -6.411  0.00  0.00    +0.012 C 
ATOM     20  C   UNL     1      -1.535  -0.109  -2.205  0.00  0.00    +0.019 C 
ENDROOT
BRANCH   1  22
ATOM     21  C   UNL     1       0.065   0.980   0.272  0.00  0.00    +0.008 C 
ATOM     22  C   UNL     1       0.021  -0.516  -0.046  0.00  0.00    +0.001 C 
BRANCH  22  23
ATOM     23  C   UNL     1       0.747  -1.293   1.053  0.00  0.00    +0.124 C 
BRANCH  23  24
ATOM     24  C   UNL     1       0.001  -1.140   2.353  0.00  0.00    +0.307 C 
ATOM     25  O   UNL     1      -1.009  -0.478   2.396  0.00  0.00    -0.251 OA
BRANCH  24  26
ATOM     26  O   UNL     1       0.458  -1.740   3.464  0.00  0.00    -0.468 OA
ATOM     27  C   UNL     1      -0.300  -1.552   4.661  0.00  0.00    +0.280 C 
ENDBRANCH  24  26
ENDBRANCH  23  24
ENDBRANCH  22  23
ENDBRANCH   1  22
BRANCH  17  28
ATOM     28  O   UNL     1      -0.505   2.587 -10.409  0.00  0.00    -0.461 OA
BRANCH  28  29
ATOM     29  C   UNL     1       0.497   3.149 -11.102  0.00  0.00    +0.308 C 
ATOM     30  O   UNL     1       1.599   3.231 -10.612  0.00  0.00    -0.251 OA
BRANCH  29  31
ATOM     31  C   UNL     1       0.249   3.677 -12.491  0.00  0.00    +0.132 C 
BRANCH  31  32
ATOM     32  C   UNL     1       1.546   4.261 -13.054  0.00  0.00    +0.136 C 
BRANCH  32  33
ATOM     33  C   UNL     1       1.298   4.790 -14.443  0.00  0.00    +0.357 C 
ATOM     34  O   UNL     1       0.187   4.707 -14.937  0.00  0.00    -0.246 OA
ATOM     35  O   UNL     1       2.209   5.301 -15.073  0.00  0.00    -0.246 OA
ENDBRANCH  32  33
ENDBRANCH  31  32
ENDBRANCH  29  31
ENDBRANCH  28  29
ENDBRANCH  17  28
TORSDOF 9
