REMARK  Name = ZINC10395563
REMARK  12 active torsions:
REMARK  status: ('A' for Active; 'I' for Inactive)
REMARK    1  A    between atoms: C_1  and  C_2
REMARK    2  A    between atoms: C_2  and  O_3
REMARK    3  A    between atoms: O_3  and  C_4
REMARK    4  A    between atoms: C_4  and  C_6
REMARK    5  A    between atoms: C_7  and  C_30
REMARK    6  A    between atoms: C_11  and  C_15
REMARK    7  A    between atoms: C_15  and  O_16
REMARK    8  A    between atoms: O_16  and  C_17
REMARK    9  A    between atoms: C_17  and  C_19
REMARK   10  A    between atoms: C_19  and  O_20
REMARK   11  A    between atoms: O_20  and  C_21
REMARK   12  A    between atoms: C_25  and  C_27
REMARK                            x       y       z     vdW  Elec       q    Type
REMARK                         _______ _______ _______ _____ _____    ______ ____
ROOT
ATOM      1  C   UNL     1       2.515   3.329   9.514  0.00  0.00    +0.102 A 
ATOM      2  C   UNL     1       1.977   2.089   9.683  0.00  0.00    -0.017 A 
ATOM      3  C   UNL     1       1.184   1.530   8.673  0.00  0.00    +0.051 A 
ATOM      4  C   UNL     1       0.528   0.263   8.637  0.00  0.00    +0.128 A 
ATOM      5  N   UNL     1      -0.183  -0.065   7.571  0.00  0.00    -0.214 NA
ATOM      6  C   UNL     1      -0.302   0.737   6.528  0.00  0.00    +0.170 A 
ATOM      7  N   UNL     1       0.280   1.921   6.500  0.00  0.00    -0.221 NA
ATOM      8  C   UNL     1       1.004   2.333   7.519  0.00  0.00    +0.115 A 
ATOM      9  S   UNL     1       1.932   3.799   7.894  0.00  0.00    -0.062 S 
ATOM     10  N   UNL     1       0.630  -0.607   9.703  0.00  0.00    -0.343 N 
ATOM     11  C   UNL     1       2.235   1.320  10.953  0.00  0.00    +0.046 C 
ATOM     12  H   UNL     1       1.356  -0.511  10.340  0.00  0.00    +0.144 HD
ATOM     13  H   UNL     1      -0.023  -1.315   9.816  0.00  0.00    +0.144 HD
ENDROOT
BRANCH   1  14
ATOM     14  C   UNL     1       3.365   4.090  10.435  0.00  0.00    +0.346 C 
ATOM     15  O   UNL     1       3.644   3.629  11.526  0.00  0.00    -0.244 OA
BRANCH  14  16
ATOM     16  O   UNL     1       3.837   5.300  10.073  0.00  0.00    -0.461 OA
BRANCH  16  18
ATOM     17  C   UNL     1       5.109   7.342  10.453  0.00  0.00    +0.048 C 
ATOM     18  C   UNL     1       4.672   5.997  11.036  0.00  0.00    +0.229 C 
ENDBRANCH  16  18
ENDBRANCH  14  16
ENDBRANCH   1  14
BRANCH   6  19
ATOM     19  C   UNL     1      -1.125   0.292   5.347  0.00  0.00    +0.308 C 
BRANCH  19  20
ATOM     20  O   UNL     1      -0.275  -0.412   4.403  0.00  0.00    -0.454 OA
BRANCH  20  21
ATOM     21  C   UNL     1      -0.859  -0.877   3.287  0.00  0.00    +0.346 C 
ATOM     22  O   UNL     1      -2.040  -0.702   3.105  0.00  0.00    -0.247 OA
BRANCH  21  23
ATOM     23  C   UNL     1      -0.040  -1.617   2.261  0.00  0.00    +0.349 C 
BRANCH  23  24
ATOM     24  O   UNL     1      -0.880  -2.008   1.173  0.00  0.00    -0.481 OA
BRANCH  24  25
ATOM     25  C   UNL     1      -0.294  -2.691   0.155  0.00  0.00    +0.122 A 
ATOM     26  C   UNL     1       1.064  -2.974   0.199  0.00  0.00    +0.047 A 
ATOM     27  C   UNL     1       1.657  -3.672  -0.834  0.00  0.00    +0.024 A 
ATOM     28  C   UNL     1       0.901  -4.080  -1.919  0.00  0.00    +0.044 A 
ATOM     29  C   UNL     1      -0.452  -3.795  -1.968  0.00  0.00    -0.029 A 
ATOM     30  C   UNL     1      -1.050  -3.101  -0.933  0.00  0.00    +0.050 A 
ATOM     31  C   UNL     1      -1.274  -4.241  -3.150  0.00  0.00    +0.045 C 
ATOM     32 CL   UNL     1       1.650  -4.952  -3.219  0.00  0.00    -0.083 Cl
ENDBRANCH  24  25
ENDBRANCH  23  24
ENDBRANCH  21  23
ENDBRANCH  20  21
ENDBRANCH  19  20
ENDBRANCH   6  19
TORSDOF 9
