REMARK  Name = ZINC13879022
REMARK  5 active torsions:
REMARK  status: ('A' for Active; 'I' for Inactive)
REMARK    1  A    between atoms: C_1  and  C_2
REMARK    2  A    between atoms: C_3  and  N_15
REMARK    3  A    between atoms: N_6  and  C_9
REMARK    4  A    between atoms: N_7  and  C_8
REMARK    5  A    between atoms: C_19  and  C_22
REMARK                            x       y       z     vdW  Elec       q    Type
REMARK                         _______ _______ _______ _____ _____    ______ ____
ROOT
ATOM      1  N   UNL     1       0.123  -0.304  -2.370  0.00  0.00    -0.218 NA
ATOM      2  C   UNL     1      -0.182  -1.126  -3.344  0.00  0.00    +0.175 C 
ATOM      3  N   UNL     1      -0.470  -2.471  -3.126  0.00  0.00    -0.215 N 
ATOM      4  N   UNL     1      -0.070  -3.418  -4.066  0.00  0.00    -0.184 NA
ATOM      5  C   UNL     1       0.431  -3.224  -5.218  0.00  0.00    +0.077 C 
ATOM      6  C   UNL     1       0.747  -1.896  -5.847  0.00  0.00    +0.134 C 
ATOM      7  S   UNL     1      -0.269  -0.608  -5.042  0.00  0.00    -0.083 S 
ATOM      8  H   UNL     1      -0.945  -2.746  -2.327  0.00  0.00    +0.176 HD
ENDROOT
BRANCH   1  11
ATOM      9  C   UNL     1      -1.216   0.889   0.108  0.00  0.00    +0.067 C 
ATOM     10  C   UNL     1      -0.280  -0.290   0.038  0.00  0.00    +0.064 A 
ATOM     11  C   UNL     1       0.291  -0.783  -1.092  0.00  0.00    +0.153 A 
ATOM     12  C   UNL     1       1.122  -1.926  -0.690  0.00  0.00    +0.298 A 
ATOM     13  O   UNL     1       1.792  -2.628  -1.424  0.00  0.00    -0.264 OA
ATOM     14  N   UNL     1       0.999  -2.049   0.648  0.00  0.00    -0.215 N 
ATOM     15  N   UNL     1       0.142  -1.041   1.104  0.00  0.00    -0.282 N 
ATOM     16  C   UNL     1      -0.245  -0.826   2.500  0.00  0.00    +0.171 C 
BRANCH  14  17
ATOM     17  C   UNL     1       1.625  -3.014   1.443  0.00  0.00    +0.067 A 
ATOM     18  C   UNL     1       0.889  -3.730   2.378  0.00  0.00    +0.028 A 
ATOM     19  C   UNL     1       1.510  -4.683   3.162  0.00  0.00    +0.002 A 
ATOM     20  C   UNL     1       2.864  -4.923   3.016  0.00  0.00    +0.000 A 
ATOM     21  C   UNL     1       3.600  -4.212   2.087  0.00  0.00    +0.002 A 
ATOM     22  C   UNL     1       2.984  -3.262   1.296  0.00  0.00    +0.028 A 
ENDBRANCH  14  17
ENDBRANCH   1  11
BRANCH   5  23
ATOM     23  C   UNL     1       0.733  -4.425  -6.019  0.00  0.00    -0.001 A 
ATOM     24  C   UNL     1       1.291  -4.296  -7.294  0.00  0.00    +0.011 A 
ATOM     25  C   UNL     1       1.571  -5.423  -8.037  0.00  0.00    +0.020 A 
ATOM     26  C   UNL     1       1.302  -6.680  -7.524  0.00  0.00    +0.041 A 
ATOM     27  C   UNL     1       0.749  -6.815  -6.261  0.00  0.00    +0.020 A 
ATOM     28  C   UNL     1       0.469  -5.696  -5.504  0.00  0.00    +0.011 A 
ATOM     29 CL   UNL     1       1.657  -8.094  -8.467  0.00  0.00    -0.084 Cl
ENDBRANCH   5  23
TORSDOF 3
