REMARK  Name = ZINC15692128
REMARK  8 active torsions:
REMARK  status: ('A' for Active; 'I' for Inactive)
REMARK    1  A    between atoms: C_1  and  C_2
REMARK    2  A    between atoms: C_7  and  C_9
REMARK    3  A    between atoms: C_7  and  C_28
REMARK    4  A    between atoms: C_7  and  N_65
REMARK    5  A    between atoms: C_9  and  N_10
REMARK    6  A    between atoms: C_11  and  C_13
REMARK    7  A    between atoms: C_16  and  S_19
REMARK    8  A    between atoms: S_19  and  N_22
REMARK                            x       y       z     vdW  Elec       q    Type
REMARK                         _______ _______ _______ _____ _____    ______ ____
ROOT
ATOM      1  N   UNL     1      -2.490   1.124  -3.094  0.00  0.00    -0.313 N 
ATOM      2  C   UNL     1      -3.536   1.528  -3.841  0.00  0.00    +0.244 C 
ATOM      3  O   UNL     1      -3.362   2.296  -4.767  0.00  0.00    -0.270 OA
ATOM      4  H   UNL     1      -2.629   0.512  -2.355  0.00  0.00    +0.149 HD
ENDROOT
BRANCH   2   5
ATOM      5  C   UNL     1      -4.897   1.037  -3.534  0.00  0.00    +0.037 A 
ATOM      6  C   UNL     1      -5.100   0.151  -2.475  0.00  0.00    +0.015 A 
ATOM      7  C   UNL     1      -6.372  -0.299  -2.191  0.00  0.00    +0.029 A 
ATOM      8  C   UNL     1      -7.445   0.117  -2.960  0.00  0.00    +0.106 A 
ATOM      9  C   UNL     1      -7.250   0.991  -4.014  0.00  0.00    +0.029 A 
ATOM     10  C   UNL     1      -5.983   1.454  -4.306  0.00  0.00    +0.015 A 
BRANCH   8  11
ATOM     11  S   UNL     1      -9.066  -0.468  -2.594  0.00  0.00    +0.061 S 
ATOM     12  O   UNL     1      -9.062  -0.845  -1.224  0.00  0.00    -0.153 OA
ATOM     13  O   UNL     1      -9.972   0.494  -3.116  0.00  0.00    -0.153 OA
BRANCH  11  14
ATOM     14  N   UNL     1      -9.294  -1.856  -3.467  0.00  0.00    -0.177 NA
ATOM     15  C   UNL     1      -9.866  -1.804  -4.820  0.00  0.00    +0.109 C 
ATOM     16  C   UNL     1      -8.918  -2.540  -5.779  0.00  0.00    +0.017 C 
ATOM     17  C   UNL     1      -8.671  -3.957  -5.255  0.00  0.00    +0.003 C 
ATOM     18  C   UNL     1      -8.003  -3.885  -3.880  0.00  0.00    +0.017 C 
ATOM     19  C   UNL     1      -8.936  -3.164  -2.901  0.00  0.00    +0.109 C 
ENDBRANCH  11  14
ENDBRANCH   8  11
ENDBRANCH   2   5
BRANCH   1  20
ATOM     20  C   UNL     1      -1.142   1.611  -3.398  0.00  0.00    +0.094 C 
BRANCH  20  21
ATOM     21  C   UNL     1      -0.145   1.005  -2.408  0.00  0.00    -0.013 C 
BRANCH  21  28
ATOM     22  C   UNL     1      -1.033   2.669   2.988  0.00  0.00    +0.007 C 
ATOM     23  C   UNL     1      -0.425   2.477   1.597  0.00  0.00    -0.018 C 
ATOM     24  C   UNL     1      -0.156   0.988   1.357  0.00  0.00    -0.015 C 
ATOM     25  C   UNL     1       0.395   0.796  -0.057  0.00  0.00    -0.078 C 
ATOM     26  C   UNL     1      -0.818   2.736  -0.855  0.00  0.00    -0.078 C 
ATOM     27  C   UNL     1      -1.404   2.987   0.536  0.00  0.00    -0.015 C 
ATOM     28  N   UNL     1      -0.604   1.284  -1.031  0.00  0.00    +0.386 N 
ATOM     29  H   UNL     1      -1.493   0.795  -0.871  0.00  0.00    -0.081 HD
ENDBRANCH  21  28
BRANCH  21  30
ATOM     30  C   UNL     1       1.220   1.598  -2.642  0.00  0.00    -0.022 A 
ATOM     31  C   UNL     1       2.325   1.016  -3.167  0.00  0.00    +0.009 A 
ATOM     32  C   UNL     1       3.482   1.762  -3.289  0.00  0.00    +0.008 A 
ATOM     33  C   UNL     1       3.477   3.055  -2.881  0.00  0.00    +0.045 A 
ATOM     34  S   UNL     1       1.798   3.254  -2.306  0.00  0.00    -0.103 S 
ENDBRANCH  21  30
ENDBRANCH  20  21
ENDBRANCH   1  20
TORSDOF 7
