REMARK  Name = ZINC49588273
REMARK  15 active torsions:
REMARK  status: ('A' for Active; 'I' for Inactive)
REMARK    1  A    between atoms: C_1  and  C_2
REMARK    2  A    between atoms: C_2  and  C_3
REMARK    3  A    between atoms: C_3  and  C_4
REMARK    4  A    between atoms: C_4  and  C_6
REMARK    5  A    between atoms: C_4  and  N_11
REMARK    6  A    between atoms: C_6  and  O_8
REMARK    7  A    between atoms: O_8  and  C_9
REMARK    8  A    between atoms: C_9  and  C_10
REMARK    9  A    between atoms: N_11  and  C_12
REMARK   10  A    between atoms: C_12  and  C_14
REMARK   11  A    between atoms: C_12  and  C_15
REMARK   12  A    between atoms: C_27  and  C_29
REMARK   13  A    between atoms: C_29  and  O_31
REMARK   14  A    between atoms: O_31  and  C_32
REMARK   15  A    between atoms: C_32  and  C_33
REMARK                            x       y       z     vdW  Elec       q    Type
REMARK                         _______ _______ _______ _____ _____    ______ ____
ROOT
ATOM      1  C   UNL     1       1.493  -2.589   2.090  0.00  0.00    +0.202 C 
ATOM      2  O   UNL     1       1.211  -2.123   1.006  0.00  0.00    -0.277 OA
ATOM      3  N   UNL     1       2.770  -2.915   2.373  0.00  0.00    -0.286 N 
ATOM      4  C   UNL     1       3.237  -3.601   3.580  0.00  0.00    +0.080 C 
ATOM      5  C   UNL     1       2.213  -4.556   4.151  0.00  0.00    +0.023 C 
ATOM      6  C   UNL     1       1.964  -5.731   3.205  0.00  0.00    +0.002 C 
ATOM      7  C   UNL     1       3.291  -6.465   2.984  0.00  0.00    +0.000 C 
ATOM      8  C   UNL     1       4.267  -5.514   2.296  0.00  0.00    +0.005 C 
ATOM      9  C   UNL     1       4.543  -4.311   3.175  0.00  0.00    +0.012 C 
ATOM     10  C   UNL     1       5.175  -3.233   2.242  0.00  0.00    +0.039 C 
ATOM     11  C   UNL     1       3.941  -2.649   1.518  0.00  0.00    +0.185 C 
ENDROOT
BRANCH   1  12
ATOM     12  C   UNL     1       0.415  -2.803   3.121  0.00  0.00    +0.014 C 
ATOM     13  C   UNL     1       0.782  -2.058   4.406  0.00  0.00    -0.004 C 
BRANCH  12  14
ATOM     14  N   UNL     1      -0.863  -2.292   2.607  0.00  0.00    +0.395 N 
ATOM     15  H   UNL     1      -1.062  -2.721   1.716  0.00  0.00    -0.084 HD
ATOM     16  H   UNL     1      -0.804  -1.292   2.494  0.00  0.00    -0.084 HD
BRANCH  14  17
ATOM     17  C   UNL     1      -1.937  -2.615   3.557  0.00  0.00    +0.040 C 
BRANCH  17  18
ATOM     18  C   UNL     1      -3.220  -1.967   3.103  0.00  0.00    +0.293 C 
ATOM     19  O   UNL     1      -3.238  -1.305   2.092  0.00  0.00    -0.253 OA
BRANCH  18  20
ATOM     20  O   UNL     1      -4.342  -2.126   3.821  0.00  0.00    -0.466 OA
BRANCH  20  21
ATOM     21  C   UNL     1      -5.522  -1.484   3.332  0.00  0.00    +0.228 C 
ATOM     22  C   UNL     1      -6.690  -1.777   4.276  0.00  0.00    +0.048 C 
ENDBRANCH  20  21
ENDBRANCH  18  20
ENDBRANCH  17  18
BRANCH  17  23
ATOM     23  C   UNL     1      -2.125  -4.132   3.618  0.00  0.00    -0.005 C 
BRANCH  23  25
ATOM     24  C   UNL     1      -2.633  -6.179   2.277  0.00  0.00    +0.004 C 
ATOM     25  C   UNL     1      -2.513  -4.654   2.232  0.00  0.00    -0.004 C 
ENDBRANCH  23  25
ENDBRANCH  17  23
ENDBRANCH  14  17
ENDBRANCH  12  14
ENDBRANCH   1  12
BRANCH  11  26
ATOM     26  C   UNL     1       3.763  -3.320   0.181  0.00  0.00    +0.328 C 
ATOM     27  O   UNL     1       2.826  -4.059  -0.005  0.00  0.00    -0.249 OA
BRANCH  26  28
ATOM     28  O   UNL     1       4.646  -3.095  -0.805  0.00  0.00    -0.459 OA
BRANCH  28  29
ATOM     29  C   UNL     1       4.416  -3.764  -2.047  0.00  0.00    +0.267 C 
BRANCH  29  30
ATOM     30  C   UNL     1       5.501  -3.394  -3.025  0.00  0.00    -0.010 A 
ATOM     31  C   UNL     1       5.344  -2.294  -3.848  0.00  0.00    +0.007 A 
ATOM     32  C   UNL     1       6.340  -1.955  -4.745  0.00  0.00    +0.000 A 
ATOM     33  C   UNL     1       7.491  -2.715  -4.820  0.00  0.00    +0.000 A 
ATOM     34  C   UNL     1       7.648  -3.815  -3.997  0.00  0.00    +0.000 A 
ATOM     35  C   UNL     1       6.655  -4.152  -3.097  0.00  0.00    +0.007 A 
ENDBRANCH  29  30
ENDBRANCH  28  29
ENDBRANCH  26  28
ENDBRANCH  11  26
TORSDOF 12
