REMARK  Name = ZINC38595865
REMARK  9 active torsions:
REMARK  status: ('A' for Active; 'I' for Inactive)
REMARK    1  A    between atoms: C_1  and  C_2
REMARK    2  A    between atoms: C_2  and  C_4
REMARK    3  A    between atoms: C_2  and  N_24
REMARK    4  A    between atoms: C_4  and  C_6
REMARK    5  A    between atoms: C_4  and  N_11
REMARK    6  A    between atoms: N_14  and  C_17
REMARK    7  A    between atoms: C_17  and  C_18
REMARK    8  A    between atoms: C_25  and  C_27
REMARK    9  A    between atoms: C_27  and  C_28
REMARK                            x       y       z     vdW  Elec       q    Type
REMARK                         _______ _______ _______ _____ _____    ______ ____
ROOT
ATOM      1  C   UNL     1       0.718  -0.497  -1.257  0.00  0.00    +0.113 C 
ENDROOT
BRANCH   1   2
ATOM      2  N   UNL     1       0.080   0.086  -2.444  0.00  0.00    -0.297 NA
ATOM      3  C   UNL     1      -1.356  -0.228  -2.478  0.00  0.00    +0.066 C 
ATOM      4  C   UNL     1      -1.994   0.446  -3.695  0.00  0.00    -0.063 C 
ATOM      5  N   UNL     1      -1.340  -0.034  -4.920  0.00  0.00    +0.384 N 
ATOM      6  C   UNL     1       0.088   0.309  -4.882  0.00  0.00    -0.063 C 
ATOM      7  C   UNL     1       0.743  -0.367  -3.675  0.00  0.00    +0.066 C 
ATOM      8  H   UNL     1      -1.444  -1.036  -4.985  0.00  0.00    -0.081 HD
BRANCH   5   9
ATOM      9  C   UNL     1      -1.965   0.600  -6.088  0.00  0.00    -0.043 C 
BRANCH   9  10
ATOM     10  C   UNL     1      -1.379   0.017  -7.349  0.00  0.00    -0.064 A 
ATOM     11  C   UNL     1      -0.259   0.590  -7.920  0.00  0.00    +0.002 A 
ATOM     12  C   UNL     1       0.278   0.055  -9.076  0.00  0.00    +0.000 A 
ATOM     13  C   UNL     1      -0.305  -1.053  -9.661  0.00  0.00    +0.000 A 
ATOM     14  C   UNL     1      -1.425  -1.627  -9.089  0.00  0.00    +0.000 A 
ATOM     15  C   UNL     1      -1.960  -1.095  -7.931  0.00  0.00    +0.002 A 
ENDBRANCH   9  10
ENDBRANCH   5   9
ENDBRANCH   1   2
BRANCH   1  16
ATOM     16  C   UNL     1       2.165  -0.079  -1.208  0.00  0.00    +0.009 A 
ATOM     17  C   UNL     1       3.254  -0.810  -0.864  0.00  0.00    +0.013 A 
ATOM     18  C   UNL     1       4.499  -0.212  -0.893  0.00  0.00    +0.008 A 
ATOM     19  C   UNL     1       4.596   1.088  -1.264  0.00  0.00    +0.045 A 
ATOM     20  S   UNL     1       2.892   1.505  -1.596  0.00  0.00    -0.100 S 
ENDBRANCH   1  16
BRANCH   1  22
ATOM     21  C   UNL     1      -0.019   1.526   0.010  0.00  0.00    +0.030 C 
ATOM     22  C   UNL     1       0.002  -0.004   0.002  0.00  0.00    +0.092 C 
BRANCH  22  23
ATOM     23  N   UNL     1       0.711  -0.489   1.189  0.00  0.00    -0.311 N 
ATOM     24  C   UNL     1       0.051  -0.633   2.355  0.00  0.00    +0.218 C 
ATOM     25  O   UNL     1      -1.129  -0.361   2.423  0.00  0.00    -0.275 OA
ATOM     26  H   UNL     1       1.654  -0.707   1.135  0.00  0.00    +0.149 HD
BRANCH  24  27
ATOM     27  C   UNL     1       0.780  -1.133   3.576  0.00  0.00    +0.131 C 
BRANCH  27  28
ATOM     28  C   UNL     1      -0.176  -1.203   4.739  0.00  0.00    -0.031 A 
ATOM     29  C   UNL     1      -0.268  -0.163   5.613  0.00  0.00    +0.005 A 
ATOM     30  C   UNL     1      -1.147  -0.210   6.693  0.00  0.00    +0.001 A 
ATOM     31  C   UNL     1      -1.938  -1.297   6.907  0.00  0.00    +0.008 A 
ATOM     32  C   UNL     1      -1.871  -2.389   6.025  0.00  0.00    -0.018 A 
ATOM     33  C   UNL     1      -0.982  -2.339   4.923  0.00  0.00    -0.014 A 
ATOM     34  C   UNL     1      -0.920  -3.429   4.038  0.00  0.00    +0.009 A 
ATOM     35  C   UNL     1      -1.716  -4.513   4.248  0.00  0.00    +0.001 A 
ATOM     36  C   UNL     1      -2.595  -4.560   5.329  0.00  0.00    +0.001 A 
ATOM     37  C   UNL     1      -2.673  -3.528   6.213  0.00  0.00    +0.008 A 
ENDBRANCH  27  28
ENDBRANCH  24  27
ENDBRANCH  22  23
ENDBRANCH   1  22
TORSDOF 8
