REMARK  Name = ZINC62825250
REMARK  4 active torsions:
REMARK  status: ('A' for Active; 'I' for Inactive)
REMARK    1  A    between atoms: C_5  and  N_17
REMARK    2  A    between atoms: C_6  and  C_7
REMARK    3  A    between atoms: C_9  and  C_12
REMARK    4  A    between atoms: C_12  and  C_13
REMARK                            x       y       z     vdW  Elec       q    Type
REMARK                         _______ _______ _______ _____ _____    ______ ____
ROOT
ATOM      1  C   UNL     1      -0.005   1.394  -0.167  0.00  0.00    +0.030 A 
ATOM      2  C   UNL     1       1.185   2.091  -0.139  0.00  0.00    +0.020 A 
ATOM      3  C   UNL     1       2.386   1.417   0.021  0.00  0.00    +0.032 A 
ATOM      4  C   UNL     1       2.404   0.043   0.155  0.00  0.00    +0.040 A 
ATOM      5  C   UNL     1       1.214  -0.675   0.129  0.00  0.00    +0.051 A 
ATOM      6  C   UNL     1      -0.003   0.004  -0.033  0.00  0.00    +0.062 A 
ATOM      7 BR   UNL     1       4.049  -0.864   0.373  0.00  0.00    -0.048 Br
ATOM      8 BR   UNL     1       1.179   3.973  -0.320  0.00  0.00    -0.050 Br
ENDROOT
BRANCH   6   9
ATOM      9  C   UNL     1      -1.272  -0.746  -0.062  0.00  0.00    +0.260 A 
ATOM     10  N   UNL     1      -2.365  -0.443   0.604  0.00  0.00    -0.191 NA
ATOM     11  C   UNL     1      -3.321  -1.337   0.343  0.00  0.00    +0.181 A 
ATOM     12  N   UNL     1      -2.859  -2.224  -0.492  0.00  0.00    -0.061 NA
ATOM     13  O   UNL     1      -1.518  -1.857  -0.779  0.00  0.00    -0.333 OA
BRANCH  11  14
ATOM     14  C   UNL     1      -4.713  -1.322   0.921  0.00  0.00    +0.192 C 
BRANCH  14  15
ATOM     15  C   UNL     1      -5.635  -0.511   0.010  0.00  0.00    +0.397 C 
ATOM     16  F   UNL     1      -5.665  -1.093  -1.262  0.00  0.00    -0.170 F 
ATOM     17  F   UNL     1      -6.927  -0.497   0.547  0.00  0.00    -0.170 F 
ATOM     18  F   UNL     1      -5.158   0.801  -0.089  0.00  0.00    -0.170 F 
ENDBRANCH  14  15
ENDBRANCH  11  14
ENDBRANCH   6   9
BRANCH   5  19
ATOM     19  N   UNL     1       1.230  -2.060   0.263  0.00  0.00    -0.357 N 
ATOM     20  H   UNL     1       2.075  -2.536   0.280  0.00  0.00    +0.142 HD
ATOM     21  H   UNL     1       0.396  -2.549   0.339  0.00  0.00    +0.142 HD
ENDBRANCH   5  19
TORSDOF 4
