REMARK  Name = ZINC28352427
REMARK  8 active torsions:
REMARK  status: ('A' for Active; 'I' for Inactive)
REMARK    1  A    between atoms: C_1  and  C_2
REMARK    2  A    between atoms: C_2  and  C_3
REMARK    3  A    between atoms: C_2  and  C_4
REMARK    4  A    between atoms: C_9  and  S_10
REMARK    5  A    between atoms: S_10  and  C_11
REMARK    6  A    between atoms: C_14  and  C_21
REMARK    7  A    between atoms: C_16  and  C_17
REMARK    8  A    between atoms: C_33  and  C_35
REMARK                            x       y       z     vdW  Elec       q    Type
REMARK                         _______ _______ _______ _____ _____    ______ ____
ROOT
ATOM      1  C   UNL     1      -1.087   3.926   0.218  0.00  0.00    +0.024 A 
ATOM      2  C   UNL     1       0.257   4.287   0.188  0.00  0.00    +0.016 A 
ATOM      3  C   UNL     1       0.617   5.612   0.305  0.00  0.00    +0.009 A 
ATOM      4  C   UNL     1      -0.365   6.589   0.466  0.00  0.00    -0.017 A 
ATOM      5  C   UNL     1      -1.710   6.224   0.502  0.00  0.00    +0.022 A 
ATOM      6  C   UNL     1      -2.067   4.899   0.378  0.00  0.00    +0.069 A 
ENDROOT
BRANCH   4   7
ATOM      7  C   UNL     1       0.021   8.015   0.598  0.00  0.00    -0.013 A 
ATOM      8  C   UNL     1      -0.950   9.011   0.753  0.00  0.00    +0.026 A 
ATOM      9  C   UNL     1      -0.552  10.324   0.878  0.00  0.00    +0.085 A 
ATOM     10  N   UNL     1       0.726  10.653   0.842  0.00  0.00    -0.350 N 
ATOM     11  C   UNL     1       1.679   9.746   0.691  0.00  0.00    +0.099 A 
ATOM     12  C   UNL     1       1.362   8.399   0.565  0.00  0.00    +0.050 A 
ATOM     13  N   UNL     1       3.010  10.145   0.660  0.00  0.00    -0.314 N 
ATOM     14  C   UNL     1       3.796   9.440   1.682  0.00  0.00    +0.125 C 
ATOM     15  C   UNL     1       5.281   9.769   1.497  0.00  0.00    +0.126 C 
ATOM     16  N   UNL     1       5.438  11.231   1.492  0.00  0.00    -0.299 N 
ATOM     17  C   UNL     1       4.585  12.019   0.590  0.00  0.00    +0.126 C 
ATOM     18  C   UNL     1       3.127  11.601   0.810  0.00  0.00    +0.125 C 
ATOM     19  C   UNL     1       6.340  11.833   2.293  0.00  0.00    +0.213 C 
ATOM     20  O   UNL     1       7.094  11.164   2.967  0.00  0.00    -0.276 OA
ATOM     21  C   UNL     1       6.410  13.337   2.351  0.00  0.00    +0.109 C 
ATOM     22  H   UNL     1       1.025  11.707   0.939  0.00  0.00    +0.166 HD
ENDBRANCH   4   7
BRANCH   6  23
ATOM     23  C   UNL     1      -3.521   4.504   0.416  0.00  0.00    +0.418 C 
ATOM     24  F   UNL     1      -4.310   5.647   0.584  0.00  0.00    -0.166 F 
ATOM     25  F   UNL     1      -3.864   3.872  -0.784  0.00  0.00    -0.166 F 
ATOM     26  F   UNL     1      -3.738   3.627   1.484  0.00  0.00    -0.166 F 
ENDBRANCH   6  23
BRANCH   1  27
ATOM     27  S   UNL     1      -1.545   2.232   0.061  0.00  0.00    -0.089 S 
BRANCH  27  33
ATOM     28  C   UNL     1       0.673   1.166   1.258  0.00  0.00    -0.031 A 
ATOM     29  C   UNL     1       1.875   0.486   1.257  0.00  0.00    +0.005 A 
ATOM     30  C   UNL     1       2.401   0.010   0.070  0.00  0.00    +0.000 A 
ATOM     31  C   UNL     1       1.726   0.212  -1.120  0.00  0.00    +0.001 A 
ATOM     32  C   UNL     1       0.524   0.892  -1.127  0.00  0.00    +0.015 A 
ATOM     33  C   UNL     1      -0.008   1.372   0.064  0.00  0.00    +0.016 A 
BRANCH  28  35
ATOM     34  C   UNL     1      -0.137   0.516   3.510  0.00  0.00    +0.012 C 
ATOM     35  C   UNL     1       0.100   1.685   2.552  0.00  0.00    +0.014 C 
ATOM     36  C   UNL     1       1.083   2.672   3.185  0.00  0.00    +0.012 C 
ENDBRANCH  28  35
ENDBRANCH  27  33
ENDBRANCH   1  27
TORSDOF 5
