REMARK  Name = ZINC10033329
REMARK  7 active torsions:
REMARK  status: ('A' for Active; 'I' for Inactive)
REMARK    1  A    between atoms: C_1  and  C_2
REMARK    2  A    between atoms: C_5  and  N_9
REMARK    3  A    between atoms: C_6  and  C_8
REMARK    4  A    between atoms: C_19  and  S_20
REMARK    5  A    between atoms: S_20  and  C_21
REMARK    6  A    between atoms: C_21  and  C_22
REMARK    7  A    between atoms: C_35  and  C_37
REMARK                            x       y       z     vdW  Elec       q    Type
REMARK                         _______ _______ _______ _____ _____    ______ ____
ROOT
ATOM      1  N   UNL     1       5.498   6.418   2.413  0.00  0.00    -0.255 N 
ATOM      2  C   UNL     1       6.800   6.758   2.274  0.00  0.00    +0.267 A 
ATOM      3  O   UNL     1       7.284   7.677   2.910  0.00  0.00    -0.267 OA
ATOM      4  C   UNL     1       7.609   5.979   1.328  0.00  0.00    +0.065 A 
ATOM      5  C   UNL     1       8.960   6.251   1.114  0.00  0.00    +0.015 A 
ATOM      6  C   UNL     1       9.667   5.494   0.222  0.00  0.00    +0.001 A 
ATOM      7  C   UNL     1       9.055   4.458  -0.472  0.00  0.00    +0.002 A 
ATOM      8  C   UNL     1       7.733   4.169  -0.282  0.00  0.00    +0.028 A 
ATOM      9  C   UNL     1       6.983   4.925   0.623  0.00  0.00    +0.079 A 
ATOM     10  N   UNL     1       5.673   4.670   0.846  0.00  0.00    -0.223 NA
ATOM     11  C   UNL     1       4.970   5.383   1.692  0.00  0.00    +0.177 A 
ENDROOT
BRANCH   1  16
ATOM     12  C   UNL     1       2.203   9.306   6.020  0.00  0.00    +0.044 C 
ATOM     13  C   UNL     1       3.078   8.539   5.062  0.00  0.00    -0.050 A 
ATOM     14  C   UNL     1       3.772   7.426   5.501  0.00  0.00    +0.005 A 
ATOM     15  C   UNL     1       4.575   6.721   4.626  0.00  0.00    +0.027 A 
ATOM     16  C   UNL     1       4.685   7.130   3.303  0.00  0.00    +0.055 A 
ATOM     17  C   UNL     1       3.991   8.251   2.867  0.00  0.00    -0.026 A 
ATOM     18  C   UNL     1       3.185   8.949   3.746  0.00  0.00    +0.008 A 
ATOM     19  C   UNL     1       4.112   8.703   1.434  0.00  0.00    +0.046 C 
ENDBRANCH   1  16
BRANCH  11  20
ATOM     20  S   UNL     1       3.268   4.985   1.915  0.00  0.00    -0.078 S 
BRANCH  20  21
ATOM     21  C   UNL     1       3.115   3.598   0.762  0.00  0.00    +0.173 C 
BRANCH  21  22
ATOM     22  C   UNL     1       1.701   3.079   0.784  0.00  0.00    +0.230 C 
ATOM     23  O   UNL     1       0.876   3.597   1.508  0.00  0.00    -0.274 OA
ATOM     24  N   UNL     1       1.351   2.041   0.000  0.00  0.00    -0.266 N 
ATOM     25  C   UNL     1       2.292   1.433  -0.842  0.00  0.00    +0.058 A 
ATOM     26  C   UNL     1       2.730   2.074  -1.989  0.00  0.00    +0.025 A 
ATOM     27  C   UNL     1       3.628   1.443  -2.830  0.00  0.00    +0.002 A 
ATOM     28  C   UNL     1       4.092   0.175  -2.529  0.00  0.00    +0.002 A 
ATOM     29  C   UNL     1       3.669  -0.467  -1.379  0.00  0.00    +0.025 A 
ATOM     30  C   UNL     1       2.777   0.163  -0.528  0.00  0.00    +0.055 A 
ATOM     31  N   UNL     1       2.354  -0.453   0.655  0.00  0.00    -0.284 N 
ATOM     32  C   UNL     1       1.040  -0.514   0.967  0.00  0.00    +0.219 C 
ATOM     33  O   UNL     1       0.694  -0.981   2.031  0.00  0.00    -0.275 OA
ATOM     34  C   UNL     1       0.002  -0.004   0.002  0.00  0.00    +0.118 C 
ATOM     35  C   UNL     1      -0.019   1.526   0.010  0.00  0.00    +0.087 C 
ATOM     36  C   UNL     1      -0.761   2.031  -1.228  0.00  0.00    +0.029 C 
ATOM     37  H   UNL     1       3.009  -0.840   1.257  0.00  0.00    +0.155 HD
ENDBRANCH  21  22
ENDBRANCH  20  21
ENDBRANCH  11  20
TORSDOF 4
