REMARK  Name = ZINC19534946
REMARK  7 active torsions:
REMARK  status: ('A' for Active; 'I' for Inactive)
REMARK    1  A    between atoms: C_1  and  C_2
REMARK    2  A    between atoms: C_2  and  C_3
REMARK    3  A    between atoms: C_4  and  C_21
REMARK    4  A    between atoms: C_5  and  N_20
REMARK    5  A    between atoms: C_9  and  N_19
REMARK    6  A    between atoms: C_10  and  C_12
REMARK    7  A    between atoms: C_12  and  C_14
REMARK                            x       y       z     vdW  Elec       q    Type
REMARK                         _______ _______ _______ _____ _____    ______ ____
ROOT
ATOM      1  C   UNL     1      -1.345   2.379   0.970  0.00  0.00    -0.015 A 
ATOM      2  C   UNL     1      -0.201   1.858   1.561  0.00  0.00    +0.095 A 
ATOM      3  C   UNL     1       1.023   2.553   1.458  0.00  0.00    +0.135 A 
ATOM      4  N   UNL     1       1.079   3.702   0.805  0.00  0.00    -0.224 NA
ATOM      5  C   UNL     1       0.013   4.226   0.237  0.00  0.00    +0.113 A 
ATOM      6  C   UNL     1      -1.261   3.611   0.281  0.00  0.00    +0.034 A 
ATOM      7  C   UNL     1      -2.321   4.338  -0.402  0.00  0.00    +0.052 A 
ATOM      8  C   UNL     1      -2.005   5.531  -1.018  0.00  0.00    +0.083 A 
ATOM      9  S   UNL     1      -0.262   5.714  -0.695  0.00  0.00    -0.063 S 
ENDROOT
BRANCH   7  10
ATOM     10  N   UNL     1      -3.616   3.843  -0.434  0.00  0.00    -0.356 N 
ATOM     11  H   UNL     1      -4.407   4.403  -0.954  0.00  0.00    +0.142 HD
ATOM     12  H   UNL     1      -3.853   2.890   0.062  0.00  0.00    +0.142 HD
ENDBRANCH   7  10
BRANCH   3  13
ATOM     13  N   UNL     1       2.163   2.033   2.041  0.00  0.00    -0.342 N 
ATOM     14  H   UNL     1       3.117   2.574   1.962  0.00  0.00    +0.144 HD
ATOM     15  H   UNL     1       2.116   1.077   2.585  0.00  0.00    +0.144 HD
ENDBRANCH   3  13
BRANCH   1  17
ATOM     16  C   UNL     1      -2.853   0.785  -0.184  0.00  0.00    +0.009 C 
ATOM     17  C   UNL     1      -2.657   1.644   1.066  0.00  0.00    +0.034 C 
ENDBRANCH   1  17
BRANCH   8  18
ATOM     18  C   UNL     1      -2.860   6.403  -1.735  0.00  0.00    +0.208 C 
ATOM     19  O   UNL     1      -4.041   6.127  -1.866  0.00  0.00    -0.285 OA
BRANCH  18  20
ATOM     20  C   UNL     1      -2.326   7.638  -2.320  0.00  0.00    +0.060 A 
ATOM     21  C   UNL     1      -2.983   8.613  -3.055  0.00  0.00    +0.019 A 
ATOM     22  C   UNL     1      -2.237   9.682  -3.485  0.00  0.00    +0.008 A 
ATOM     23  C   UNL     1      -0.912   9.729  -3.186  0.00  0.00    +0.046 A 
ATOM     24  S   UNL     1      -0.659   8.274  -2.279  0.00  0.00    -0.093 S 
ENDBRANCH  18  20
ENDBRANCH   8  18
BRANCH   2  25
ATOM     25  C   UNL     1      -0.262   0.615   2.268  0.00  0.00    +0.103 C 
ATOM     26  N   UNL     1      -0.311  -0.371   2.830  0.00  0.00    -0.191 NA
ENDBRANCH   2  25
TORSDOF 6
