REMARK  Name = ZINC11967655
REMARK  6 active torsions:
REMARK  status: ('A' for Active; 'I' for Inactive)
REMARK    1  A    between atoms: C_4  and  C_7
REMARK    2  A    between atoms: C_10  and  C_12
REMARK    3  A    between atoms: C_12  and  N_58
REMARK    4  A    between atoms: C_15  and  C_18
REMARK    5  A    between atoms: C_18  and  C_25
REMARK    6  A    between atoms: C_25  and  C_26
REMARK                            x       y       z     vdW  Elec       q    Type
REMARK                         _______ _______ _______ _____ _____    ______ ____
ROOT
ATOM      1  C   UNL     1      -2.207   1.109  -1.184  0.00  0.00    -0.078 C 
ATOM      2  C   UNL     1      -0.756   1.594  -1.230  0.00  0.00    -0.013 C 
ATOM      3  C   UNL     1      -0.013   1.086   0.008  0.00  0.00    +0.018 C 
ATOM      4  C   UNL     1      -0.732   1.581   1.266  0.00  0.00    -0.013 C 
ATOM      5  C   UNL     1      -2.185   1.096   1.239  0.00  0.00    -0.078 C 
ATOM      6  N   UNL     1      -2.851   1.640   0.036  0.00  0.00    +0.384 N 
ATOM      7  H   UNL     1      -2.764   2.663   0.041  0.00  0.00    -0.081 HD
ENDROOT
BRANCH   3   8
ATOM      8  C   UNL     1       1.422   1.617  -0.003  0.00  0.00    +0.119 C 
ATOM      9  C   UNL     1       2.151   1.157  -1.250  0.00  0.00    +0.245 C 
ATOM     10  O   UNL     1       2.385   0.015  -1.582  0.00  0.00    -0.273 OA
ATOM     11  N   UNL     1       2.485   2.282  -1.912  0.00  0.00    -0.238 N 
ATOM     12  C   UNL     1       2.073   3.377  -1.264  0.00  0.00    +0.307 C 
ATOM     13  O   UNL     1       2.257   4.510  -1.665  0.00  0.00    -0.252 OA
ATOM     14  N   UNL     1       1.431   3.085  -0.118  0.00  0.00    -0.284 N 
ATOM     15  H   UNL     1       2.965   2.296  -2.755  0.00  0.00    +0.159 HD
ATOM     16  H   UNL     1       1.048   3.718   0.509  0.00  0.00    +0.151 HD
BRANCH   8  17
ATOM     17  C   UNL     1       2.170   1.168   1.254  0.00  0.00    +0.073 C 
BRANCH  17  18
ATOM     18  C   UNL     1       3.537   1.803   1.280  0.00  0.00    -0.010 A 
ATOM     19  C   UNL     1       4.629   1.112   0.790  0.00  0.00    +0.006 A 
ATOM     20  C   UNL     1       5.881   1.696   0.807  0.00  0.00    +0.000 A 
ATOM     21  C   UNL     1       6.045   2.968   1.325  0.00  0.00    +0.003 A 
ATOM     22  C   UNL     1       4.955   3.658   1.821  0.00  0.00    +0.038 A 
ATOM     23  C   UNL     1       3.699   3.076   1.798  0.00  0.00    +0.127 A 
ATOM     24  F   UNL     1       2.633   3.750   2.282  0.00  0.00    -0.205 F 
ENDBRANCH  17  18
ENDBRANCH   8  17
ENDBRANCH   3   8
BRANCH   6  25
ATOM     25  C   UNL     1      -4.284   1.280   0.048  0.00  0.00    -0.015 C 
BRANCH  25  29
ATOM     26  C   UNL     1      -6.070   3.707   2.261  0.00  0.00    +0.078 A 
ATOM     27  C   UNL     1      -6.052   2.952   3.403  0.00  0.00    +0.075 A 
ATOM     28  S   UNL     1      -5.199   1.494   2.819  0.00  0.00    -0.082 S 
ATOM     29  C   UNL     1      -4.959   2.012   1.179  0.00  0.00    +0.062 A 
ATOM     30  N   UNL     1      -5.509   3.202   1.175  0.00  0.00    -0.246 NA
BRANCH  26  34
ATOM     31  C   UNL     1      -7.858   7.565   2.214  0.00  0.00    +0.000 A 
ATOM     32  C   UNL     1      -7.761   6.865   3.403  0.00  0.00    +0.001 A 
ATOM     33  C   UNL     1      -7.182   5.612   3.424  0.00  0.00    +0.010 A 
ATOM     34  C   UNL     1      -6.694   5.053   2.245  0.00  0.00    +0.001 A 
ATOM     35  C   UNL     1      -6.789   5.765   1.051  0.00  0.00    +0.010 A 
ATOM     36  C   UNL     1      -7.375   7.015   1.040  0.00  0.00    +0.001 A 
ENDBRANCH  26  34
ENDBRANCH  25  29
ENDBRANCH   6  25
TORSDOF 6
