REMARK  Name = ZINC18276033
REMARK  10 active torsions:
REMARK  status: ('A' for Active; 'I' for Inactive)
REMARK    1  A    between atoms: C_1  and  C_2
REMARK    2  A    between atoms: C_2  and  C_3
REMARK    3  A    between atoms: C_2  and  O_4
REMARK    4  A    between atoms: O_4  and  C_5
REMARK    5  A    between atoms: C_8  and  C_11
REMARK    6  A    between atoms: C_11  and  C_12
REMARK    7  A    between atoms: C_11  and  C_26
REMARK    8  A    between atoms: C_16  and  C_20
REMARK    9  A    between atoms: C_30  and  C_34
REMARK   10  A    between atoms: C_32  and  O_33
REMARK                            x       y       z     vdW  Elec       q    Type
REMARK                         _______ _______ _______ _____ _____    ______ ____
ROOT
ATOM      1  C   UNL     1      -2.616   0.923  -0.053  0.00  0.00    +0.073 C 
ENDROOT
BRANCH   1   2
ATOM      2  C   UNL     1      -3.574   1.358   1.058  0.00  0.00    +0.133 C 
ATOM      3  C   UNL     1      -3.721   2.866   1.050  0.00  0.00    +0.145 C 
ATOM      4  O   UNL     1      -3.343   3.522   0.110  0.00  0.00    -0.297 OA
ATOM      5  C   UNL     1      -4.356   3.526   2.254  0.00  0.00    +0.083 C 
ATOM      6  C   UNL     1      -3.597   3.103   3.514  0.00  0.00    +0.033 C 
ATOM      7  C   UNL     1      -3.627   1.578   3.645  0.00  0.00    +0.083 C 
ATOM      8  C   UNL     1      -3.009   0.965   2.408  0.00  0.00    +0.145 C 
ATOM      9  O   UNL     1      -2.092   0.183   2.494  0.00  0.00    -0.297 OA
BRANCH   6  10
ATOM     10  C   UNL     1      -4.247   3.724   4.723  0.00  0.00    -0.043 A 
ATOM     11  C   UNL     1      -5.568   3.444   5.018  0.00  0.00    +0.004 A 
ATOM     12  C   UNL     1      -6.163   4.010   6.130  0.00  0.00    +0.000 A 
ATOM     13  C   UNL     1      -5.440   4.862   6.943  0.00  0.00    +0.000 A 
ATOM     14  C   UNL     1      -4.120   5.146   6.645  0.00  0.00    +0.000 A 
ATOM     15  C   UNL     1      -3.523   4.577   5.536  0.00  0.00    +0.004 A 
ENDBRANCH   6  10
ENDBRANCH   1   2
BRANCH   1  16
ATOM     16  C   UNL     1      -3.013   1.605  -1.364  0.00  0.00    +0.041 C 
ATOM     17  C   UNL     1      -3.948   2.645  -1.947  0.00  0.00    +0.164 C 
ATOM     18  O   UNL     1      -5.120   2.658  -1.658  0.00  0.00    -0.292 OA
ATOM     19  C   UNL     1      -3.371   3.666  -2.902  0.00  0.00    +0.088 C 
ATOM     20  C   UNL     1      -2.659   2.935  -4.044  0.00  0.00    +0.034 C 
ATOM     21  C   UNL     1      -2.625   1.348  -3.918  0.00  0.00    +0.082 C 
ATOM     22  C   UNL     1      -2.180   1.054  -2.503  0.00  0.00    +0.102 C 
BRANCH  20  23
ATOM     23  C   UNL     1      -2.046   3.943  -4.980  0.00  0.00    -0.043 A 
ATOM     24  C   UNL     1      -1.100   4.836  -4.511  0.00  0.00    +0.004 A 
ATOM     25  C   UNL     1      -0.534   5.759  -5.371  0.00  0.00    +0.000 A 
ATOM     26  C   UNL     1      -0.920   5.795  -6.698  0.00  0.00    +0.000 A 
ATOM     27  C   UNL     1      -1.869   4.905  -7.166  0.00  0.00    +0.000 A 
ATOM     28  C   UNL     1      -2.432   3.980  -6.307  0.00  0.00    +0.004 A 
ENDBRANCH  20  23
BRANCH  22  29
ATOM     29  O   UNL     1      -1.189   0.398  -2.288  0.00  0.00    -0.511 OA
ATOM     30  H   UNL     1      -1.056   0.310  -1.301  0.00  0.00    +0.292 HD
ENDBRANCH  22  29
ENDBRANCH   1  16
BRANCH   1  34
ATOM     31  C   UNL     1       1.375   2.046   0.980  0.00  0.00    +0.121 A 
ATOM     32  C   UNL     1       1.066   0.713   0.752  0.00  0.00    +0.046 A 
ATOM     33  C   UNL     1      -0.226   0.352   0.422  0.00  0.00    +0.008 A 
ATOM     34  C   UNL     1      -1.209   1.319   0.314  0.00  0.00    -0.038 A 
ATOM     35  C   UNL     1      -0.904   2.647   0.546  0.00  0.00    +0.008 A 
ATOM     36  C   UNL     1       0.386   3.013   0.876  0.00  0.00    +0.046 A 
BRANCH  31  37
ATOM     37  O   UNL     1       2.646   2.404   1.304  0.00  0.00    -0.489 OA
BRANCH  37  39
ATOM     38  C   UNL     1       4.345   1.076   0.214  0.00  0.00    +0.051 C 
ATOM     39  C   UNL     1       3.584   1.347   1.513  0.00  0.00    +0.167 C 
ATOM     40  C   UNL     1       4.573   1.752   2.608  0.00  0.00    +0.051 C 
ENDBRANCH  37  39
ENDBRANCH  31  37
ENDBRANCH   1  34
TORSDOF 8
