REMARK  Name = ZINC40548227
REMARK  7 active torsions:
REMARK  status: ('A' for Active; 'I' for Inactive)
REMARK    1  A    between atoms: C_1  and  C_2
REMARK    2  A    between atoms: C_2  and  C_3
REMARK    3  A    between atoms: C_3  and  O_4
REMARK    4  A    between atoms: O_4  and  C_5
REMARK    5  A    between atoms: C_8  and  C_11
REMARK    6  A    between atoms: C_14  and  C_30
REMARK    7  A    between atoms: N_21  and  C_22
REMARK                            x       y       z     vdW  Elec       q    Type
REMARK                         _______ _______ _______ _____ _____    ______ ____
ROOT
ATOM      1  C   UNL     1      -6.397  -4.588   0.038  0.00  0.00    +0.142 C 
ATOM      2  C   UNL     1      -6.725  -5.091  -1.341  0.00  0.00    +0.035 A 
ATOM      3  C   UNL     1      -6.959  -4.795  -2.646  0.00  0.00    +0.075 A 
ATOM      4  N   UNL     1      -7.204  -5.979  -3.279  0.00  0.00    -0.276 N 
ATOM      5  N   UNL     1      -7.129  -6.949  -2.438  0.00  0.00    -0.168 NA
ATOM      6  H   UNL     1      -7.404  -6.075  -4.223  0.00  0.00    +0.189 HD
ATOM      7  C   UNL     1      -6.841  -6.496  -1.235  0.00  0.00    +0.153 A 
ATOM      8  C   UNL     1      -6.594  -6.865   0.171  0.00  0.00    +0.268 C 
ATOM      9  O   UNL     1      -6.619  -8.001   0.604  0.00  0.00    -0.268 OA
ATOM     10  N   UNL     1      -6.339  -5.769   0.907  0.00  0.00    -0.280 N 
ENDROOT
BRANCH   3  11
ATOM     11  C   UNL     1      -6.952  -3.449  -3.261  0.00  0.00    +0.048 A 
ATOM     12  C   UNL     1      -8.127  -2.911  -3.784  0.00  0.00    +0.033 A 
ATOM     13  C   UNL     1      -8.114  -1.655  -4.357  0.00  0.00    +0.042 A 
ATOM     14  C   UNL     1      -6.937  -0.927  -4.414  0.00  0.00    +0.024 A 
ATOM     15  C   UNL     1      -5.767  -1.451  -3.898  0.00  0.00    +0.053 A 
ATOM     16  C   UNL     1      -5.766  -2.708  -3.315  0.00  0.00    +0.188 A 
ATOM     17  O   UNL     1      -4.617  -3.221  -2.803  0.00  0.00    -0.287 OA
ATOM     18 CL   UNL     1      -9.577  -0.986  -5.008  0.00  0.00    -0.084 Cl
ENDBRANCH   3  11
BRANCH  10  19
ATOM     19  C   UNL     1      -6.048  -5.755   2.343  0.00  0.00    +0.100 C 
ATOM     20  C   UNL     1      -7.234  -6.362   3.110  0.00  0.00    +0.047 C 
ATOM     21  C   UNL     1      -6.781  -6.624   4.575  0.00  0.00    +0.168 C 
ATOM     22  S   UNL     1      -5.079  -7.270   4.290  0.00  0.00    -0.029 S 
ATOM     23  O   UNL     1      -5.132  -8.688   4.203  0.00  0.00    -0.174 OA
ATOM     24  O   UNL     1      -4.192  -6.660   5.217  0.00  0.00    -0.174 OA
ATOM     25  C   UNL     1      -4.767  -6.580   2.616  0.00  0.00    +0.188 C 
ENDBRANCH  10  19
BRANCH   1  29
ATOM     26  C   UNL     1      -2.616  -2.596   0.013  0.00  0.00    +0.121 A 
ATOM     27  C   UNL     1      -3.791  -1.857   0.022  0.00  0.00    +0.046 A 
ATOM     28  C   UNL     1      -5.012  -2.504   0.030  0.00  0.00    +0.009 A 
ATOM     29  C   UNL     1      -5.064  -3.885   0.029  0.00  0.00    -0.022 A 
ATOM     30  C   UNL     1      -3.895  -4.624   0.020  0.00  0.00    +0.009 A 
ATOM     31  C   UNL     1      -2.671  -3.982   0.006  0.00  0.00    +0.046 A 
BRANCH  26  32
ATOM     32  O   UNL     1      -1.414  -1.962   0.005  0.00  0.00    -0.492 OA
BRANCH  32  33
ATOM     33  C   UNL     1      -1.433  -0.534   0.013  0.00  0.00    +0.229 C 
BRANCH  33  35
ATOM     34  C   UNL     1      -0.019   1.526   0.010  0.00  0.00    +0.007 C 
ATOM     35  C   UNL     1       0.002  -0.004   0.002  0.00  0.00    +0.038 C 
ENDBRANCH  33  35
ENDBRANCH  32  33
ENDBRANCH  26  32
ENDBRANCH   1  29
TORSDOF 6
