REMARK  Name = ZINC38141316
REMARK  16 active torsions:
REMARK  status: ('A' for Active; 'I' for Inactive)
REMARK    1  A    between atoms: C_1  and  C_2
REMARK    2  A    between atoms: C_2  and  C_4
REMARK    3  A    between atoms: C_2  and  N_12
REMARK    4  A    between atoms: C_7  and  O_10
REMARK    5  A    between atoms: O_10  and  C_11
REMARK    6  A    between atoms: N_12  and  C_13
REMARK    7  A    between atoms: C_13  and  C_14
REMARK    8  A    between atoms: C_14  and  C_15
REMARK    9  A    between atoms: C_15  and  C_17
REMARK   10  A    between atoms: C_15  and  C_27
REMARK   11  A    between atoms: C_20  and  O_23
REMARK   12  A    between atoms: O_23  and  C_24
REMARK   13  A    between atoms: C_24  and  C_25
REMARK   14  A    between atoms: C_24  and  C_26
REMARK   15  A    between atoms: C_32  and  O_33
REMARK   16  A    between atoms: O_33  and  C_34
REMARK                            x       y       z     vdW  Elec       q    Type
REMARK                         _______ _______ _______ _____ _____    ______ ____
ROOT
ATOM      1  C   UNL     1      -0.695  -0.594   5.197  0.00  0.00    +0.051 C 
ENDROOT
BRANCH   1   2
ATOM      2  C   UNL     1      -0.076  -0.841   6.549  0.00  0.00    -0.040 A 
ATOM      3  C   UNL     1       0.536  -2.051   6.817  0.00  0.00    +0.008 A 
ATOM      4  C   UNL     1       1.104  -2.280   8.055  0.00  0.00    +0.046 A 
ATOM      5  C   UNL     1       1.059  -1.294   9.030  0.00  0.00    +0.121 A 
ATOM      6  C   UNL     1       0.445  -0.081   8.759  0.00  0.00    +0.046 A 
ATOM      7  C   UNL     1      -0.117   0.145   7.517  0.00  0.00    +0.008 A 
BRANCH   5   8
ATOM      8  O   UNL     1       1.617  -1.518  10.249  0.00  0.00    -0.489 OA
BRANCH   8   9
ATOM      9  C   UNL     1       2.334  -2.741  10.421  0.00  0.00    +0.167 C 
ATOM     10  C   UNL     1       3.392  -2.564  11.512  0.00  0.00    +0.051 C 
ATOM     11  C   UNL     1       1.362  -3.850  10.829  0.00  0.00    +0.051 C 
ENDBRANCH   8   9
ENDBRANCH   5   8
ENDBRANCH   1   2
BRANCH   1  12
ATOM     12  C   UNL     1      -1.914  -1.465   5.036  0.00  0.00    +0.002 A 
ATOM     13  C   UNL     1      -1.780  -2.838   4.976  0.00  0.00    +0.008 A 
ATOM     14  C   UNL     1      -2.898  -3.638   4.828  0.00  0.00    +0.001 A 
ATOM     15  C   UNL     1      -4.153  -3.065   4.740  0.00  0.00    +0.004 A 
ATOM     16  C   UNL     1      -4.293  -1.692   4.800  0.00  0.00    +0.046 A 
ATOM     17  C   UNL     1      -3.173  -0.888   4.954  0.00  0.00    +0.124 A 
BRANCH  17  18
ATOM     18  O   UNL     1      -3.308   0.463   5.019  0.00  0.00    -0.495 OA
ATOM     19  C   UNL     1      -4.635   0.987   4.927  0.00  0.00    +0.277 C 
ENDBRANCH  17  18
ENDBRANCH   1  12
BRANCH   1  20
ATOM     20  C   UNL     1       0.320  -0.930   4.102  0.00  0.00    -0.006 C 
BRANCH  20  21
ATOM     21  C   UNL     1      -0.263  -0.562   2.736  0.00  0.00    -0.081 C 
BRANCH  21  22
ATOM     22  N   UNL     1       0.712  -0.885   1.685  0.00  0.00    +0.383 N 
ATOM     23  H   UNL     1       0.917  -1.872   1.709  0.00  0.00    -0.085 HD
ATOM     24  H   UNL     1       1.560  -0.361   1.841  0.00  0.00    -0.085 HD
BRANCH  22  26
ATOM     25  C   UNL     1      -0.042   0.984   0.294  0.00  0.00    -0.009 C 
ATOM     26  C   UNL     1       0.152  -0.532   0.374  0.00  0.00    -0.044 C 
BRANCH  26  27
ATOM     27  C   UNL     1       1.099  -0.974  -0.712  0.00  0.00    -0.061 A 
ATOM     28  C   UNL     1       2.463  -0.830  -0.539  0.00  0.00    +0.005 A 
ATOM     29  C   UNL     1       3.333  -1.234  -1.533  0.00  0.00    +0.046 A 
ATOM     30  C   UNL     1       2.837  -1.787  -2.705  0.00  0.00    +0.120 A 
ATOM     31  C   UNL     1       1.468  -1.932  -2.875  0.00  0.00    +0.046 A 
ATOM     32  C   UNL     1       0.603  -1.530  -1.876  0.00  0.00    +0.005 A 
BRANCH  30  33
ATOM     33  O   UNL     1       3.691  -2.186  -3.684  0.00  0.00    -0.495 OA
ATOM     34  C   UNL     1       3.110  -2.746  -4.863  0.00  0.00    +0.277 C 
ENDBRANCH  30  33
ENDBRANCH  26  27
ENDBRANCH  22  26
ENDBRANCH  21  22
ENDBRANCH  20  21
ENDBRANCH   1  20
TORSDOF 11
