REMARK  Name = ZINC00940720
REMARK  9 active torsions:
REMARK  status: ('A' for Active; 'I' for Inactive)
REMARK    1  A    between atoms: C_1  and  C_2
REMARK    2  A    between atoms: C_2  and  O_3
REMARK    3  A    between atoms: O_3  and  C_4
REMARK    4  A    between atoms: C_7  and  C_12
REMARK    5  A    between atoms: C_9  and  O_10
REMARK    6  A    between atoms: O_10  and  C_11
REMARK    7  A    between atoms: C_14  and  C_30
REMARK    8  A    between atoms: C_15  and  C_29
REMARK    9  A    between atoms: C_20  and  C_22
REMARK                            x       y       z     vdW  Elec       q    Type
REMARK                         _______ _______ _______ _____ _____    ______ ____
ROOT
ATOM      1  C   UNL     1      -2.037  -6.128   0.155  0.00  0.00    +0.164 C 
ATOM      2  C   UNL     1      -1.632  -6.716   1.496  0.00  0.00    +0.061 C 
ATOM      3  C   UNL     1      -0.557  -7.561   1.507  0.00  0.00    +0.052 C 
ATOM      4  N   UNL     1       0.110  -7.861   0.404  0.00  0.00    -0.218 NA
ATOM      5  C   UNL     1      -0.174  -7.395  -0.803  0.00  0.00    +0.237 C 
ATOM      6  N   UNL     1      -1.222  -6.532  -0.996  0.00  0.00    -0.207 N 
ATOM      7  N   UNL     1      -1.252  -6.230  -2.360  0.00  0.00    -0.244 N 
ATOM      8  C   UNL     1      -0.217  -6.924  -2.929  0.00  0.00    +0.147 C 
ATOM      9  N   UNL     1       0.401  -7.605  -1.997  0.00  0.00    -0.196 NA
ATOM     10  C   UNL     1      -0.119  -8.167   2.815  0.00  0.00    +0.066 C 
ATOM     11  H   UNL     1      -1.879  -5.646  -2.813  0.00  0.00    +0.172 HD
ENDROOT
BRANCH   8  12
ATOM     12  C   UNL     1       0.139  -6.912  -4.360  0.00  0.00    +0.035 A 
ATOM     13  C   UNL     1      -0.601  -6.142  -5.262  0.00  0.00    +0.013 A 
ATOM     14  C   UNL     1      -0.262  -6.136  -6.598  0.00  0.00    +0.001 A 
ATOM     15  C   UNL     1       0.808  -6.890  -7.049  0.00  0.00    +0.001 A 
ATOM     16  C   UNL     1       1.546  -7.655  -6.164  0.00  0.00    +0.021 A 
ATOM     17  C   UNL     1       1.222  -7.667  -4.821  0.00  0.00    +0.051 A 
ATOM     18 CL   UNL     1       2.153  -8.622  -3.710  0.00  0.00    -0.083 Cl
ENDBRANCH   8  12
BRANCH   1  22
ATOM     19  C   UNL     1      -1.876  -1.866   0.467  0.00  0.00    +0.162 A 
ATOM     20  C   UNL     1      -0.717  -2.591   0.242  0.00  0.00    +0.050 A 
ATOM     21  C   UNL     1      -0.772  -3.969   0.142  0.00  0.00    +0.009 A 
ATOM     22  C   UNL     1      -1.982  -4.626   0.266  0.00  0.00    -0.017 A 
ATOM     23  C   UNL     1      -3.143  -3.908   0.490  0.00  0.00    +0.055 A 
ATOM     24  C   UNL     1      -3.093  -2.527   0.597  0.00  0.00    +0.162 A 
BRANCH  24  25
ATOM     25  O   UNL     1      -4.232  -1.820   0.823  0.00  0.00    -0.491 OA
ATOM     26  C   UNL     1      -5.445  -2.566   0.946  0.00  0.00    +0.277 C 
ENDBRANCH  24  25
BRANCH  19  27
ATOM     27  O   UNL     1      -1.823  -0.510   0.567  0.00  0.00    -0.489 OA
BRANCH  27  29
ATOM     28  C   UNL     1      -0.678   1.618   0.564  0.00  0.00    +0.048 C 
ATOM     29  C   UNL     1      -0.539   0.101   0.423  0.00  0.00    +0.226 C 
ENDBRANCH  27  29
ENDBRANCH  19  27
ENDBRANCH   1  22
BRANCH   2  30
ATOM     30  C   UNL     1      -2.332  -6.404   2.675  0.00  0.00    +0.241 C 
ATOM     31  O   UNL     1      -3.383  -6.968   2.927  0.00  0.00    -0.271 OA
ATOM     32  N   UNL     1      -1.841  -5.482   3.527  0.00  0.00    -0.325 N 
ATOM     33  H   UNL     1      -0.972  -5.084   3.362  0.00  0.00    +0.145 HD
ATOM     34  H   UNL     1      -2.356  -5.217   4.304  0.00  0.00    +0.145 HD
ENDBRANCH   2  30
TORSDOF 6
