REMARK  Name = ZINC39211153
REMARK  14 active torsions:
REMARK  status: ('A' for Active; 'I' for Inactive)
REMARK    1  A    between atoms: C_1  and  C_2
REMARK    2  A    between atoms: C_2  and  O_3
REMARK    3  A    between atoms: O_3  and  C_4
REMARK    4  A    between atoms: C_4  and  C_6
REMARK    5  A    between atoms: C_8  and  C_34
REMARK    6  A    between atoms: C_9  and  C_13
REMARK    7  A    between atoms: C_10  and  C_12
REMARK    8  A    between atoms: C_13  and  N_14
REMARK    9  A    between atoms: N_14  and  C_15
REMARK   10  A    between atoms: C_22  and  C_24
REMARK   11  A    between atoms: C_27  and  C_30
REMARK   12  A    between atoms: C_30  and  C_31
REMARK   13  A    between atoms: C_30  and  C_32
REMARK   14  A    between atoms: C_30  and  C_33
REMARK                            x       y       z     vdW  Elec       q    Type
REMARK                         _______ _______ _______ _____ _____    ______ ____
ROOT
ATOM      1  N   UNL     1      -6.106  -5.666  -1.857  0.00  0.00    -0.263 N 
ATOM      2  C   UNL     1      -6.578  -4.832  -2.805  0.00  0.00    +0.251 C 
ATOM      3  O   UNL     1      -6.371  -5.067  -3.979  0.00  0.00    -0.270 OA
ENDROOT
BRANCH   1   4
ATOM      4  C   UNL     1      -5.211  -6.684  -2.203  0.00  0.00    +0.037 A 
ATOM      5  C   UNL     1      -4.608  -7.447  -1.212  0.00  0.00    +0.026 A 
ATOM      6  C   UNL     1      -3.724  -8.451  -1.556  0.00  0.00    +0.040 A 
ATOM      7  C   UNL     1      -3.439  -8.697  -2.889  0.00  0.00    +0.124 A 
ATOM      8  C   UNL     1      -4.039  -7.938  -3.879  0.00  0.00    +0.040 A 
ATOM      9  C   UNL     1      -4.928  -6.937  -3.539  0.00  0.00    +0.026 A 
ATOM     10  F   UNL     1      -2.575  -9.680  -3.223  0.00  0.00    -0.205 F 
ENDBRANCH   1   4
BRANCH   2  11
ATOM     11  C   UNL     1      -7.346  -3.630  -2.416  0.00  0.00    +0.037 A 
ATOM     12  C   UNL     1      -7.261  -3.135  -1.113  0.00  0.00    +0.013 A 
ATOM     13  C   UNL     1      -7.981  -2.013  -0.757  0.00  0.00    +0.005 A 
ATOM     14  C   UNL     1      -8.785  -1.379  -1.687  0.00  0.00    -0.042 A 
ATOM     15  C   UNL     1      -8.873  -1.864  -2.980  0.00  0.00    +0.005 A 
ATOM     16  C   UNL     1      -8.154  -2.982  -3.351  0.00  0.00    +0.013 A 
BRANCH  14  17
ATOM     17  C   UNL     1      -9.568  -0.154  -1.291  0.00  0.00    -0.013 C 
ATOM     18  C   UNL     1      -8.604   0.939  -0.826  0.00  0.00    +0.015 C 
ATOM     19  C   UNL     1     -10.369   0.350  -2.493  0.00  0.00    +0.015 C 
ATOM     20  C   UNL     1     -10.526  -0.508  -0.152  0.00  0.00    +0.015 C 
ENDBRANCH  14  17
ENDBRANCH   2  11
BRANCH   1  21
ATOM     21  C   UNL     1      -6.532  -5.508  -0.464  0.00  0.00    +0.147 C 
BRANCH  21  25
ATOM     22  C   UNL     1      -3.332  -4.902   1.590  0.00  0.00    +0.108 C 
ATOM     23  N   UNL     1      -4.019  -3.798   1.614  0.00  0.00    -0.356 N 
ATOM     24  C   UNL     1      -5.167  -3.867   0.933  0.00  0.00    +0.015 C 
ATOM     25  C   UNL     1      -5.359  -5.064   0.372  0.00  0.00    -0.024 C 
ATOM     26  C   UNL     1      -4.138  -5.880   0.755  0.00  0.00    +0.069 C 
ATOM     27  C   UNL     1      -4.541  -7.100   1.586  0.00  0.00    +0.019 C 
ATOM     28  C   UNL     1      -6.138  -2.720   0.811  0.00  0.00    +0.063 C 
ATOM     29  H   UNL     1      -3.727  -3.001   2.083  0.00  0.00    +0.165 HD
BRANCH  22  30
ATOM     30  C   UNL     1      -2.034  -5.151   2.236  0.00  0.00    +0.352 C 
ATOM     31  O   UNL     1      -1.499  -6.236   2.126  0.00  0.00    -0.244 OA
BRANCH  30  32
ATOM     32  O   UNL     1      -1.439  -4.175   2.951  0.00  0.00    -0.461 OA
BRANCH  32  34
ATOM     33  C   UNL     1       0.337  -3.265   4.314  0.00  0.00    +0.048 C 
ATOM     34  C   UNL     1      -0.180  -4.486   3.551  0.00  0.00    +0.229 C 
ENDBRANCH  32  34
ENDBRANCH  30  32
ENDBRANCH  22  30
ENDBRANCH  21  25
ENDBRANCH   1  21
TORSDOF 8
