REMARK  Name = ZINC39659889
REMARK  6 active torsions:
REMARK  status: ('A' for Active; 'I' for Inactive)
REMARK    1  A    between atoms: C_1  and  C_2
REMARK    2  A    between atoms: C_2  and  N_3
REMARK    3  A    between atoms: C_4  and  C_10
REMARK    4  A    between atoms: C_6  and  C_8
REMARK    5  A    between atoms: C_14  and  C_23
REMARK    6  A    between atoms: N_25  and  C_26
REMARK                            x       y       z     vdW  Elec       q    Type
REMARK                         _______ _______ _______ _____ _____    ______ ____
ROOT
ATOM      1  C   UNL     1       3.245  -0.406   0.204  0.00  0.00    +0.266 C 
ATOM      2  O   UNL     1       4.394  -0.718   0.454  0.00  0.00    -0.268 OA
ATOM      3  N   UNL     1       2.943   0.159  -0.982  0.00  0.00    -0.295 N 
ATOM      4  C   UNL     1       1.601   0.511  -1.504  0.00  0.00    +0.121 C 
ATOM      5  C   UNL     1       1.805   1.863  -2.223  0.00  0.00    +0.100 C 
ATOM      6  C   UNL     1       3.299   1.895  -2.584  0.00  0.00    -0.004 C 
ATOM      7  C   UNL     1       3.877   0.575  -2.055  0.00  0.00    +0.115 C 
ATOM      8  C   UNL     1       3.983   3.076  -1.902  0.00  0.00    -0.010 C 
ATOM      9  C   UNL     1       5.455   3.119  -2.322  0.00  0.00    -0.082 C 
ATOM     10  N   UNL     1       5.545   3.253  -3.781  0.00  0.00    +0.379 N 
ATOM     11  C   UNL     1       4.967   2.069  -4.429  0.00  0.00    -0.082 C 
ATOM     12  C   UNL     1       3.475   1.981  -4.098  0.00  0.00    -0.010 C 
ATOM     13  H   UNL     1       5.040   4.075  -4.074  0.00  0.00    -0.086 HD
ATOM     14  H   UNL     1       6.513   3.343  -4.050  0.00  0.00    -0.086 HD
ENDROOT
BRANCH   1  16
ATOM     15  N   UNL     1       1.657   0.267   2.067  0.00  0.00    -0.258 N 
ATOM     16  C   UNL     1       2.187  -0.645   1.196  0.00  0.00    +0.138 A 
ATOM     17  C   UNL     1       1.526  -1.838   1.436  0.00  0.00    +0.071 A 
ATOM     18  C   UNL     1       0.618  -1.558   2.462  0.00  0.00    +0.075 A 
ATOM     19  N   UNL     1       0.755  -0.298   2.787  0.00  0.00    -0.175 NA
ATOM     20  C   UNL     1      -0.344  -2.536   3.086  0.00  0.00    +0.069 C 
ATOM     21 BR   UNL     1       1.794  -3.493   0.561  0.00  0.00    -0.046 Br
BRANCH  15  23
ATOM     22  C   UNL     1       3.274   1.789   3.091  0.00  0.00    +0.029 C 
ATOM     23  C   UNL     1       2.060   1.671   2.167  0.00  0.00    +0.141 C 
ENDBRANCH  15  23
ENDBRANCH   1  16
BRANCH   5  24
ATOM     24  C   UNL     1       0.959   1.928  -3.469  0.00  0.00    +0.218 C 
ATOM     25  O   UNL     1       0.639   0.906  -4.038  0.00  0.00    -0.275 OA
ATOM     26  N   UNL     1       0.559   3.122  -3.950  0.00  0.00    -0.312 N 
ATOM     27  H   UNL     1       0.877   3.942  -3.540  0.00  0.00    +0.149 HD
BRANCH  26  28
ATOM     28  C   UNL     1      -0.356   3.181  -5.093  0.00  0.00    +0.073 C 
ATOM     29  C   UNL     1      -1.798   3.061  -4.598  0.00  0.00    +0.022 C 
ATOM     30  C   UNL     1      -2.756   3.514  -5.702  0.00  0.00    +0.002 C 
ATOM     31  C   UNL     1      -2.860   2.420  -6.767  0.00  0.00    +0.000 C 
ATOM     32  C   UNL     1      -1.599   2.430  -7.633  0.00  0.00    +0.000 C 
ATOM     33  C   UNL     1      -1.236   3.873  -7.990  0.00  0.00    +0.000 C 
ATOM     34  C   UNL     1       0.079   4.252  -7.308  0.00  0.00    +0.002 C 
ATOM     35  C   UNL     1      -0.175   4.514  -5.822  0.00  0.00    +0.022 C 
ENDBRANCH  26  28
ENDBRANCH   5  24
TORSDOF 4
