REMARK  Name = ZINC39686727
REMARK  13 active torsions:
REMARK  status: ('A' for Active; 'I' for Inactive)
REMARK    1  A    between atoms: C_1  and  C_2
REMARK    2  A    between atoms: C_2  and  C_4
REMARK    3  A    between atoms: C_2  and  N_13
REMARK    4  A    between atoms: C_4  and  C_5
REMARK    5  A    between atoms: C_10  and  O_11
REMARK    6  A    between atoms: O_11  and  C_12
REMARK    7  A    between atoms: C_14  and  C_16
REMARK    8  A    between atoms: C_27  and  C_29
REMARK    9  A    between atoms: C_29  and  C_31
REMARK   10  A    between atoms: C_29  and  O_34
REMARK   11  A    between atoms: C_31  and  C_32
REMARK   12  A    between atoms: C_31  and  C_33
REMARK   13  A    between atoms: O_34  and  C_35
REMARK                            x       y       z     vdW  Elec       q    Type
REMARK                         _______ _______ _______ _____ _____    ______ ____
ROOT
ATOM      1  C   UNL     1      -3.730  -1.344  -1.863  0.00  0.00    +0.100 C 
ATOM      2  C   UNL     1      -4.430  -0.481  -0.789  0.00  0.00    +0.121 C 
ATOM      3  N   UNL     1      -5.123   0.581  -1.556  0.00  0.00    -0.297 N 
ATOM      4  C   UNL     1      -5.651  -0.114  -2.754  0.00  0.00    +0.115 C 
ATOM      5  C   UNL     1      -4.537  -1.103  -3.150  0.00  0.00    -0.004 C 
ATOM      6  C   UNL     1      -5.144  -2.412  -3.646  0.00  0.00    -0.010 C 
ATOM      7  C   UNL     1      -5.892  -2.158  -4.957  0.00  0.00    -0.082 C 
ATOM      8  N   UNL     1      -4.963  -1.618  -5.957  0.00  0.00    +0.379 N 
ATOM      9  C   UNL     1      -4.454  -0.314  -5.514  0.00  0.00    -0.082 C 
ATOM     10  C   UNL     1      -3.645  -0.490  -4.226  0.00  0.00    -0.010 C 
ATOM     11  C   UNL     1      -5.246   1.884  -1.235  0.00  0.00    +0.257 C 
ATOM     12  O   UNL     1      -4.680   2.325  -0.257  0.00  0.00    -0.272 OA
ATOM     13  H   UNL     1      -4.190  -2.256  -6.075  0.00  0.00    -0.086 HD
ATOM     14  H   UNL     1      -5.443  -1.509  -6.837  0.00  0.00    -0.086 HD
ENDROOT
BRANCH   1  16
ATOM     15  N   UNL     1      -1.359  -1.789  -2.409  0.00  0.00    -0.312 N 
ATOM     16  C   UNL     1      -2.303  -0.897  -2.047  0.00  0.00    +0.218 C 
ATOM     17  O   UNL     1      -2.003   0.265  -1.871  0.00  0.00    -0.275 OA
ATOM     18  H   UNL     1      -1.598  -2.718  -2.550  0.00  0.00    +0.149 HD
BRANCH  15  20
ATOM     19  C   UNL     1       0.745  -1.365  -1.236  0.00  0.00    +0.028 C 
ATOM     20  C   UNL     1       0.029  -1.355  -2.588  0.00  0.00    +0.074 C 
BRANCH  20  21
ATOM     21  C   UNL     1       0.741  -2.307  -3.550  0.00  0.00    +0.060 C 
BRANCH  21  22
ATOM     22  C   UNL     1       0.112  -2.205  -4.916  0.00  0.00    -0.004 A 
ATOM     23  C   UNL     1      -0.880  -3.091  -5.287  0.00  0.00    +0.007 A 
ATOM     24  C   UNL     1      -1.458  -2.999  -6.540  0.00  0.00    +0.000 A 
ATOM     25  C   UNL     1      -1.043  -2.019  -7.424  0.00  0.00    +0.004 A 
ATOM     26  C   UNL     1      -0.052  -1.131  -7.057  0.00  0.00    +0.046 A 
ATOM     27  C   UNL     1       0.525  -1.218  -5.798  0.00  0.00    +0.123 A 
BRANCH  27  28
ATOM     28  O   UNL     1       1.497  -0.342  -5.433  0.00  0.00    -0.495 OA
ATOM     29  C   UNL     1       1.873   0.648  -6.392  0.00  0.00    +0.277 C 
ENDBRANCH  27  28
ENDBRANCH  21  22
ENDBRANCH  20  21
ENDBRANCH  15  20
ENDBRANCH   1  16
BRANCH  11  30
ATOM     30  C   UNL     1      -6.088   2.795  -2.093  0.00  0.00    +0.261 C 
BRANCH  30  31
ATOM     31  C   UNL     1      -7.553   2.363  -2.009  0.00  0.00    +0.033 C 
ATOM     32  C   UNL     1      -8.057   2.545  -0.575  0.00  0.00    +0.011 C 
ATOM     33  C   UNL     1      -8.393   3.222  -2.957  0.00  0.00    +0.011 C 
ENDBRANCH  30  31
BRANCH  30  34
ATOM     34  O   UNL     1      -5.960   4.140  -1.627  0.00  0.00    -0.479 OA
BRANCH  34  35
ATOM     35  C   UNL     1      -5.965   5.121  -2.568  0.00  0.00    +0.122 A 
ATOM     36  C   UNL     1      -5.835   6.449  -2.188  0.00  0.00    +0.045 A 
ATOM     37  C   UNL     1      -5.840   7.444  -3.145  0.00  0.00    +0.004 A 
ATOM     38  C   UNL     1      -5.975   7.118  -4.482  0.00  0.00    +0.000 A 
ATOM     39  C   UNL     1      -6.106   5.795  -4.864  0.00  0.00    +0.004 A 
ATOM     40  C   UNL     1      -6.095   4.796  -3.910  0.00  0.00    +0.045 A 
ENDBRANCH  34  35
ENDBRANCH  30  34
ENDBRANCH  11  30
TORSDOF 9
