REMARK  Name = ZINC15729781
REMARK  9 active torsions:
REMARK  status: ('A' for Active; 'I' for Inactive)
REMARK    1  A    between atoms: C_1  and  C_2
REMARK    2  A    between atoms: C_3  and  C_14
REMARK    3  A    between atoms: N_5  and  C_7
REMARK    4  A    between atoms: C_16  and  C_19
REMARK    5  A    between atoms: N_21  and  C_22
REMARK    6  A    between atoms: C_22  and  C_23
REMARK    7  A    between atoms: C_23  and  C_24
REMARK    8  A    between atoms: C_24  and  C_26
REMARK    9  A    between atoms: C_24  and  N_61
REMARK                            x       y       z     vdW  Elec       q    Type
REMARK                         _______ _______ _______ _____ _____    ______ ____
ROOT
ATOM      1  C   UNL     1       2.191  -1.645   0.182  0.00  0.00    +0.206 A 
ATOM      2  N   UNL     1       3.453  -2.117   0.234  0.00  0.00    -0.183 NA
ATOM      3  C   UNL     1       3.346  -3.425   0.134  0.00  0.00    +0.314 A 
ATOM      4  O   UNL     1       2.038  -3.703   0.025  0.00  0.00    -0.328 OA
ATOM      5  N   UNL     1       1.393  -2.677   0.059  0.00  0.00    -0.055 NA
ENDROOT
BRANCH   1   8
ATOM      6  C   UNL     1      -0.787  -0.562   0.055  0.00  0.00    +0.068 C 
ATOM      7  C   UNL     1       0.461   0.270   0.201  0.00  0.00    +0.071 A 
ATOM      8  C   UNL     1       1.781  -0.221   0.256  0.00  0.00    +0.063 A 
ATOM      9  C   UNL     1       2.614   0.852   0.390  0.00  0.00    +0.126 A 
ATOM     10  N   UNL     1       1.847   1.962   0.417  0.00  0.00    -0.239 N 
ATOM     11  N   UNL     1       0.508   1.572   0.298  0.00  0.00    -0.171 NA
BRANCH  10  12
ATOM     12  C   UNL     1       2.311   3.279   0.543  0.00  0.00    +0.065 A 
ATOM     13  C   UNL     1       3.672   3.528   0.659  0.00  0.00    +0.029 A 
ATOM     14  C   UNL     1       4.128   4.827   0.777  0.00  0.00    +0.022 A 
ATOM     15  C   UNL     1       3.228   5.878   0.791  0.00  0.00    +0.041 A 
ATOM     16  C   UNL     1       1.871   5.632   0.681  0.00  0.00    +0.022 A 
ATOM     17  C   UNL     1       1.411   4.336   0.557  0.00  0.00    +0.029 A 
ATOM     18 CL   UNL     1       3.803   7.509   0.946  0.00  0.00    -0.084 Cl
ENDBRANCH  10  12
ENDBRANCH   1   8
BRANCH   3  19
ATOM     19  C   UNL     1       4.459  -4.405   0.140  0.00  0.00    +0.302 C 
ATOM     20  O   UNL     1       5.606  -4.020   0.246  0.00  0.00    -0.265 OA
ATOM     21  N   UNL     1       4.198  -5.723   0.029  0.00  0.00    -0.307 N 
ATOM     22  H   UNL     1       3.281  -6.030  -0.056  0.00  0.00    +0.149 HD
BRANCH  21  23
ATOM     23  C   UNL     1       5.297  -6.691   0.035  0.00  0.00    +0.103 C 
BRANCH  23  24
ATOM     24  C   UNL     1       4.732  -8.106  -0.104  0.00  0.00    +0.003 C 
BRANCH  24  25
ATOM     25  C   UNL     1       5.884  -9.106  -0.223  0.00  0.00    -0.070 C 
ATOM     26  C   UNL     1       5.319 -10.510  -0.446  0.00  0.00    -0.013 C 
BRANCH  25  33
ATOM     27  C   UNL     1       7.996  -9.726   0.806  0.00  0.00    -0.078 C 
ATOM     28  C   UNL     1       8.732  -9.976   2.094  0.00  0.00    -0.019 C 
ATOM     29  C   UNL     1       8.422 -11.413   2.564  0.00  0.00    -0.002 C 
ATOM     30  C   UNL     1       7.113 -11.514   3.200  0.00  0.00    -0.002 C 
ATOM     31  C   UNL     1       5.968 -11.132   2.239  0.00  0.00    -0.019 C 
ATOM     32  C   UNL     1       5.901  -9.631   2.150  0.00  0.00    -0.078 C 
ATOM     33  N   UNL     1       6.679  -9.032   1.013  0.00  0.00    +0.381 N 
ATOM     34  H   UNL     1       6.864  -8.046   1.230  0.00  0.00    -0.081 HD
ENDBRANCH  25  33
ENDBRANCH  24  25
ENDBRANCH  23  24
ENDBRANCH  21  23
ENDBRANCH   3  19
TORSDOF 7
