REMARK  Name = ZINC12496735
REMARK  13 active torsions:
REMARK  status: ('A' for Active; 'I' for Inactive)
REMARK    1  A    between atoms: C_1  and  C_2
REMARK    2  A    between atoms: C_2  and  C_3
REMARK    3  A    between atoms: C_3  and  C_4
REMARK    4  A    between atoms: C_4  and  C_33
REMARK    5  A    between atoms: C_9  and  C_11
REMARK    6  A    between atoms: C_14  and  O_19
REMARK    7  A    between atoms: C_16  and  O_17
REMARK    8  A    between atoms: O_17  and  C_18
REMARK    9  A    between atoms: O_19  and  C_20
REMARK   10  A    between atoms: N_23  and  C_26
REMARK   11  A    between atoms: C_33  and  O_35
REMARK   12  A    between atoms: O_35  and  C_36
REMARK   13  A    between atoms: C_36  and  C_37
REMARK                            x       y       z     vdW  Elec       q    Type
REMARK                         _______ _______ _______ _____ _____    ______ ____
ROOT
ATOM      1  C   UNL     1      -0.931   1.762  -3.627  0.00  0.00    +0.044 C 
ATOM      2  C   UNL     1      -0.640   0.752  -4.677  0.00  0.00    +0.086 C 
ATOM      3  C   UNL     1      -1.758  -0.325  -4.380  0.00  0.00    +0.077 C 
ATOM      4  C   UNL     1      -2.941   0.613  -4.333  0.00  0.00    -0.023 C 
ATOM      5  C   UNL     1      -1.421  -1.262  -5.475  0.00  0.00    +0.229 C 
ATOM      6  O   UNL     1      -2.190  -1.925  -6.138  0.00  0.00    -0.275 OA
ATOM      7  N   UNL     1      -0.056  -1.221  -5.579  0.00  0.00    -0.210 N 
ATOM      8  C   UNL     1       0.489  -0.138  -4.934  0.00  0.00    +0.229 C 
ATOM      9  O   UNL     1       1.652   0.041  -4.644  0.00  0.00    -0.275 OA
ATOM     10  N   UNL     1      -2.416   1.734  -3.496  0.00  0.00    +0.395 N 
ATOM     11  H   UNL     1      -2.810   2.624  -3.822  0.00  0.00    -0.083 HD
ATOM     12  H   UNL     1      -2.675   1.584  -2.514  0.00  0.00    -0.083 HD
ENDROOT
BRANCH   7  13
ATOM     13  C   UNL     1       0.702  -2.180  -6.267  0.00  0.00    +0.044 A 
ATOM     14  C   UNL     1       2.084  -2.060  -6.328  0.00  0.00    +0.027 A 
ATOM     15  C   UNL     1       2.829  -3.009  -7.002  0.00  0.00    +0.040 A 
ATOM     16  C   UNL     1       2.197  -4.072  -7.625  0.00  0.00    +0.124 A 
ATOM     17  C   UNL     1       0.819  -4.189  -7.570  0.00  0.00    +0.040 A 
ATOM     18  C   UNL     1       0.071  -3.246  -6.892  0.00  0.00    +0.027 A 
ATOM     19  F   UNL     1       2.927  -4.995  -8.288  0.00  0.00    -0.205 F 
ENDBRANCH   7  13
BRANCH   4  20
ATOM     20  C   UNL     1      -4.124  -0.050  -3.675  0.00  0.00    -0.019 A 
ATOM     21  C   UNL     1      -4.244  -0.039  -2.299  0.00  0.00    +0.009 A 
ATOM     22  C   UNL     1      -5.328  -0.645  -1.693  0.00  0.00    +0.046 A 
ATOM     23  C   UNL     1      -6.299  -1.266  -2.466  0.00  0.00    +0.124 A 
ATOM     24  C   UNL     1      -6.180  -1.279  -3.847  0.00  0.00    +0.091 A 
ATOM     25  C   UNL     1      -5.094  -0.665  -4.453  0.00  0.00    +0.125 A 
BRANCH  25  26
ATOM     26  O   UNL     1      -4.978  -0.671  -5.807  0.00  0.00    -0.495 OA
ATOM     27  C   UNL     1      -6.014  -1.323  -6.544  0.00  0.00    +0.277 C 
ENDBRANCH  25  26
BRANCH  23  28
ATOM     28  O   UNL     1      -7.364  -1.863  -1.870  0.00  0.00    -0.495 OA
ATOM     29  C   UNL     1      -7.421  -1.812  -0.443  0.00  0.00    +0.277 C 
ENDBRANCH  23  28
ENDBRANCH   4  20
BRANCH   1  30
ATOM     30  C   UNL     1      -0.276   1.371  -2.327  0.00  0.00    +0.297 C 
ATOM     31  O   UNL     1       0.735   0.711  -2.334  0.00  0.00    -0.252 OA
BRANCH  30  32
ATOM     32  O   UNL     1      -0.818   1.757  -1.161  0.00  0.00    -0.466 OA
BRANCH  32  33
ATOM     33  C   UNL     1      -0.134   1.345   0.052  0.00  0.00    +0.228 C 
ATOM     34  C   UNL     1      -0.892   1.875   1.270  0.00  0.00    +0.048 C 
ENDBRANCH  32  33
ENDBRANCH  30  32
ENDBRANCH   1  30
BRANCH   1  35
ATOM     35  C   UNL     1      -0.454   3.147  -4.069  0.00  0.00    -0.001 C 
BRANCH  35  37
ATOM     36  C   UNL     1      -0.326   5.559  -3.432  0.00  0.00    +0.004 C 
ATOM     37  C   UNL     1      -0.803   4.174  -2.990  0.00  0.00    -0.004 C 
ENDBRANCH  35  37
ENDBRANCH   1  35
TORSDOF 9
