REMARK  Name = ZINC13216292
REMARK  11 active torsions:
REMARK  status: ('A' for Active; 'I' for Inactive)
REMARK    1  A    between atoms: C_1  and  C_2
REMARK    2  A    between atoms: C_5  and  C_34
REMARK    3  A    between atoms: C_7  and  N_8
REMARK    4  A    between atoms: C_9  and  C_28
REMARK    5  A    between atoms: C_11  and  C_16
REMARK    6  A    between atoms: C_16  and  C_18
REMARK    7  A    between atoms: C_20  and  O_26
REMARK    8  A    between atoms: C_23  and  O_24
REMARK    9  A    between atoms: O_24  and  C_25
REMARK   10  A    between atoms: O_26  and  C_27
REMARK   11  A    between atoms: C_29  and  C_33
REMARK                            x       y       z     vdW  Elec       q    Type
REMARK                         _______ _______ _______ _____ _____    ______ ____
ROOT
ATOM      1  N   UNL     1      -0.622  -0.419   2.533  0.00  0.00    -0.252 N 
ATOM      2  C   UNL     1      -1.497   0.043   3.617  0.00  0.00    +0.157 C 
ATOM      3  C   UNL     1      -0.676   1.009   4.438  0.00  0.00    +0.077 C 
ATOM      4  C   UNL     1       0.546   1.074   3.859  0.00  0.00    +0.250 C 
ATOM      5  C   UNL     1       0.573   0.182   2.681  0.00  0.00    +0.292 C 
ATOM      6  O   UNL     1       1.531   0.017   1.953  0.00  0.00    -0.266 OA
ATOM      7  O   UNL     1       1.579   1.832   4.291  0.00  0.00    -0.282 OA
ENDROOT
BRANCH   1  14
ATOM      8  C   UNL     1      -1.727   0.607   0.125  0.00  0.00    +0.045 C 
ATOM      9  C   UNL     1      -1.510  -0.870   0.333  0.00  0.00    -0.029 A 
ATOM     10  C   UNL     1      -1.847  -1.763  -0.667  0.00  0.00    +0.006 A 
ATOM     11  C   UNL     1      -1.651  -3.116  -0.484  0.00  0.00    +0.015 A 
ATOM     12  C   UNL     1      -1.111  -3.589   0.715  0.00  0.00    +0.065 A 
ATOM     13  C   UNL     1      -0.771  -2.686   1.725  0.00  0.00    +0.039 A 
ATOM     14  C   UNL     1      -0.966  -1.328   1.528  0.00  0.00    +0.041 A 
BRANCH  12  15
ATOM     15  C   UNL     1      -0.901  -5.036   0.914  0.00  0.00    +0.387 C 
ATOM     16  O   UNL     1      -1.200  -5.824   0.029  0.00  0.00    -0.241 OA
ATOM     17  O   UNL     1      -0.428  -5.446   1.964  0.00  0.00    -0.241 OA
ENDBRANCH  12  15
ENDBRANCH   1  14
BRANCH   2  18
ATOM     18  C   UNL     1      -1.930  -1.125   4.466  0.00  0.00    +0.018 A 
ATOM     19  C   UNL     1      -3.174  -1.458   4.888  0.00  0.00    -0.038 A 
ATOM     20  C   UNL     1      -3.337  -2.588   5.668  0.00  0.00    +0.011 A 
ATOM     21  C   UNL     1      -2.248  -3.328   5.989  0.00  0.00    +0.046 A 
ATOM     22  S   UNL     1      -0.938  -2.430   5.172  0.00  0.00    -0.099 S 
ATOM     23  C   UNL     1      -4.362  -0.611   4.512  0.00  0.00    +0.044 C 
ENDBRANCH   2  18
BRANCH   3  24
ATOM     24  C   UNL     1      -1.117   1.735   5.633  0.00  0.00    +0.199 C 
ATOM     25  O   UNL     1      -0.591   1.515   6.708  0.00  0.00    -0.287 OA
BRANCH  24  26
ATOM     26  C   UNL     1      -2.198   2.734   5.532  0.00  0.00    +0.067 A 
ATOM     27  C   UNL     1      -2.748   3.050   4.286  0.00  0.00    +0.061 A 
ATOM     28  C   UNL     1      -3.761   3.986   4.199  0.00  0.00    +0.121 A 
ATOM     29  C   UNL     1      -4.234   4.614   5.346  0.00  0.00    +0.049 A 
ATOM     30  C   UNL     1      -3.696   4.308   6.580  0.00  0.00    +0.050 A 
ATOM     31  C   UNL     1      -2.684   3.366   6.685  0.00  0.00    +0.131 A 
BRANCH  31  32
ATOM     32  O   UNL     1      -2.161   3.062   7.900  0.00  0.00    -0.494 OA
ATOM     33  C   UNL     1      -2.705   3.745   9.030  0.00  0.00    +0.277 C 
ENDBRANCH  31  32
BRANCH  28  34
ATOM     34  O   UNL     1      -4.296   4.295   2.987  0.00  0.00    -0.495 OA
ATOM     35  C   UNL     1      -5.419   5.179   2.981  0.00  0.00    +0.277 C 
ENDBRANCH  28  34
ENDBRANCH  24  26
ENDBRANCH   3  24
TORSDOF 7
