REMARK  Name = ZINC35337041
REMARK  11 active torsions:
REMARK  status: ('A' for Active; 'I' for Inactive)
REMARK    1  A    between atoms: C_1  and  C_2
REMARK    2  A    between atoms: C_2  and  C_3
REMARK    3  A    between atoms: C_3  and  C_5
REMARK    4  A    between atoms: C_3  and  N_6
REMARK    5  A    between atoms: N_6  and  C_7
REMARK    6  A    between atoms: C_7  and  C_8
REMARK    7  A    between atoms: N_10  and  C_11
REMARK    8  A    between atoms: N_10  and  C_18
REMARK    9  A    between atoms: C_11  and  C_12
REMARK   10  A    between atoms: N_16  and  C_17
REMARK   11  A    between atoms: N_23  and  C_24
REMARK                            x       y       z     vdW  Elec       q    Type
REMARK                         _______ _______ _______ _____ _____    ______ ____
ROOT
ATOM      1  N   UNL     1       0.356  -0.835   2.084  0.00  0.00    -0.274 N 
ATOM      2  C   UNL     1      -0.791  -1.481   2.372  0.00  0.00    +0.307 C 
ATOM      3  O   UNL     1      -1.307  -1.346   3.465  0.00  0.00    -0.252 OA
ATOM      4  N   UNL     1      -1.365  -2.278   1.449  0.00  0.00    -0.268 N 
ATOM      5  H   UNL     1      -0.907  -2.462   0.615  0.00  0.00    +0.156 HD
ENDROOT
BRANCH   4   6
ATOM      6  C   UNL     1      -2.625  -2.839   1.695  0.00  0.00    +0.053 A 
ATOM      7  C   UNL     1      -3.431  -2.323   2.701  0.00  0.00    +0.026 A 
ATOM      8  C   UNL     1      -4.673  -2.878   2.941  0.00  0.00    +0.022 A 
ATOM      9  C   UNL     1      -5.114  -3.947   2.181  0.00  0.00    +0.042 A 
ATOM     10  C   UNL     1      -4.313  -4.464   1.178  0.00  0.00    +0.041 A 
ATOM     11  C   UNL     1      -3.072  -3.908   0.929  0.00  0.00    +0.064 A 
ATOM     12 CL   UNL     1      -2.070  -4.551  -0.335  0.00  0.00    -0.082 Cl
ATOM     13 CL   UNL     1      -6.675  -4.642   2.487  0.00  0.00    -0.083 Cl
ENDBRANCH   4   6
BRANCH   1  14
ATOM     14  C   UNL     1       0.920  -0.910   0.734  0.00  0.00    +0.075 C 
ATOM     15  C   UNL     1       0.951   0.489   0.116  0.00  0.00    +0.028 C 
BRANCH  14  17
ATOM     16  C   UNL     1       2.297  -2.930   1.250  0.00  0.00    +0.006 C 
ATOM     17  C   UNL     1       2.344  -1.466   0.806  0.00  0.00    +0.019 C 
ENDBRANCH  14  17
ENDBRANCH   1  14
BRANCH   1  18
ATOM     18  C   UNL     1       1.040  -0.058   3.121  0.00  0.00    +0.205 C 
BRANCH  18  19
ATOM     19  C   UNL     1       0.433   1.320   3.198  0.00  0.00    +0.234 C 
ATOM     20  O   UNL     1      -0.542   1.591   2.530  0.00  0.00    -0.274 OA
ATOM     21  N   UNL     1       0.975   2.251   4.008  0.00  0.00    -0.291 N 
BRANCH  21  22
ATOM     22  C   UNL     1       2.216   1.960   4.730  0.00  0.00    +0.077 C 
ATOM     23  C   UNL     1       2.670   2.968   5.788  0.00  0.00    +0.024 C 
ATOM     24  C   UNL     1       3.420   2.864   4.458  0.00  0.00    +0.024 C 
ENDBRANCH  21  22
BRANCH  21  25
ATOM     25  C   UNL     1       0.323   3.553   4.167  0.00  0.00    +0.161 C 
BRANCH  25  26
ATOM     26  C   UNL     1      -0.655   3.489   5.311  0.00  0.00    +0.036 A 
ATOM     27  C   UNL     1      -0.408   3.862   6.584  0.00  0.00    +0.024 A 
ATOM     28  C   UNL     1      -1.585   3.639   7.325  0.00  0.00    +0.019 A 
ATOM     29  C   UNL     1      -2.507   3.139   6.477  0.00  0.00    +0.085 A 
ATOM     30  N   UNL     1      -1.944   3.050   5.239  0.00  0.00    -0.352 N 
ATOM     31  C   UNL     1      -2.611   2.561   4.030  0.00  0.00    +0.148 C 
ENDBRANCH  25  26
ENDBRANCH  21  25
ENDBRANCH  18  19
ENDBRANCH   1  18
TORSDOF 8
