REMARK  Name = ZINC13500155
REMARK  10 active torsions:
REMARK  status: ('A' for Active; 'I' for Inactive)
REMARK    1  A    between atoms: C_1  and  C_2
REMARK    2  A    between atoms: C_2  and  C_3
REMARK    3  A    between atoms: C_3  and  C_4
REMARK    4  A    between atoms: C_4  and  C_6
REMARK    5  A    between atoms: C_4  and  N_72
REMARK    6  A    between atoms: N_10  and  C_11
REMARK    7  A    between atoms: C_16  and  C_17
REMARK    8  A    between atoms: C_16  and  N_72
REMARK    9  A    between atoms: C_21  and  C_29
REMARK   10  A    between atoms: C_30  and  N_72
REMARK                            x       y       z     vdW  Elec       q    Type
REMARK                         _______ _______ _______ _____ _____    ______ ____
ROOT
ATOM      1  N   UNL     1       0.680  -2.165  -1.247  0.00  0.00    +0.391 N 
ATOM      2  H   UNL     1      -0.338  -2.218  -1.128  0.00  0.00    -0.080 HD
ENDROOT
BRANCH   1   3
ATOM      3  C   UNL     1       1.116  -0.767  -1.043  0.00  0.00    -0.067 C 
ATOM      4  C   UNL     1       2.607  -0.619  -1.353  0.00  0.00    -0.015 C 
ATOM      5  C   UNL     1       3.031   0.835  -1.137  0.00  0.00    -0.002 C 
ATOM      6  C   UNL     1       2.224   1.745  -2.065  0.00  0.00    -0.000 C 
ATOM      7  C   UNL     1       0.733   1.597  -1.754  0.00  0.00    -0.002 C 
ATOM      8  C   UNL     1       0.309   0.143  -1.971  0.00  0.00    -0.015 C 
ENDBRANCH   1   3
BRANCH   1   9
ATOM      9  C   UNL     1       1.027  -2.607  -2.614  0.00  0.00    +0.003 C 
BRANCH   9  10
ATOM     10  C   UNL     1       2.502  -2.896  -2.717  0.00  0.00    +0.138 A 
ATOM     11  N   UNL     1       3.227  -3.578  -1.864  0.00  0.00    -0.115 NA
ATOM     12  N   UNL     1       4.438  -3.606  -2.304  0.00  0.00    -0.023 NA
ATOM     13  N   UNL     1       4.506  -2.952  -3.411  0.00  0.00    -0.044 NA
ATOM     14  N   UNL     1       3.333  -2.499  -3.699  0.00  0.00    -0.228 N 
BRANCH  14  15
ATOM     15  C   UNL     1       2.972  -1.703  -4.875  0.00  0.00    +0.111 C 
ATOM     16  C   UNL     1       3.328  -2.472  -6.163  0.00  0.00    +0.027 C 
ATOM     17  C   UNL     1       3.826  -1.373  -7.136  0.00  0.00    +0.002 C 
ATOM     18  C   UNL     1       4.614  -0.421  -6.202  0.00  0.00    +0.002 C 
ATOM     19  C   UNL     1       3.789  -0.400  -4.899  0.00  0.00    +0.027 C 
ENDBRANCH  14  15
ENDBRANCH   9  10
BRANCH   9  20
ATOM     20  C   UNL     1       0.235  -3.876  -2.935  0.00  0.00    -0.008 C 
BRANCH  20  22
ATOM     21  C   UNL     1      -2.058  -4.850  -3.130  0.00  0.00    +0.004 C 
ATOM     22  C   UNL     1      -1.262  -3.559  -2.927  0.00  0.00    -0.005 C 
ENDBRANCH  20  22
ENDBRANCH   9  20
ENDBRANCH   1   9
BRANCH   1  23
ATOM     23  C   UNL     1       1.326  -3.046  -0.252  0.00  0.00    -0.036 C 
BRANCH  23  24
ATOM     24  C   UNL     1       0.607  -2.896   1.064  0.00  0.00    +0.001 A 
ATOM     25  C   UNL     1      -0.400  -3.746   1.384  0.00  0.00    +0.017 A 
ATOM     26  C   UNL     1      -1.078  -3.573   2.670  0.00  0.00    -0.001 A 
ATOM     27  C   UNL     1      -2.124  -4.419   3.056  0.00  0.00    +0.013 A 
ATOM     28  C   UNL     1      -2.736  -4.232   4.263  0.00  0.00    -0.050 A 
ATOM     29  C   UNL     1      -2.329  -3.210   5.110  0.00  0.00    +0.005 A 
ATOM     30  C   UNL     1      -1.301  -2.365   4.751  0.00  0.00    +0.026 A 
ATOM     31  C   UNL     1      -0.663  -2.536   3.527  0.00  0.00    +0.049 A 
ATOM     32  N   UNL     1       0.369  -1.707   3.142  0.00  0.00    -0.322 N 
ATOM     33  H   UNL     1       0.653  -0.993   3.734  0.00  0.00    +0.169 HD
ATOM     34  C   UNL     1       0.989  -1.876   1.962  0.00  0.00    +0.251 A 
ATOM     35  O   UNL     1       1.900  -1.127   1.656  0.00  0.00    -0.268 OA
ATOM     36  C   UNL     1      -3.862  -5.142   4.678  0.00  0.00    +0.044 C 
ENDBRANCH  23  24
ENDBRANCH   1  23
TORSDOF 8
