REMARK  Name = ZINC12607026
REMARK  10 active torsions:
REMARK  status: ('A' for Active; 'I' for Inactive)
REMARK    1  A    between atoms: C_1  and  C_2
REMARK    2  A    between atoms: C_3  and  C_33
REMARK    3  A    between atoms: N_4  and  C_26
REMARK    4  A    between atoms: C_5  and  N_9
REMARK    5  A    between atoms: C_6  and  C_7
REMARK    6  A    between atoms: C_10  and  C_12
REMARK    7  A    between atoms: C_12  and  N_58
REMARK    8  A    between atoms: C_13  and  N_58
REMARK    9  A    between atoms: C_14  and  C_15
REMARK   10  A    between atoms: C_14  and  N_58
REMARK                            x       y       z     vdW  Elec       q    Type
REMARK                         _______ _______ _______ _____ _____    ______ ____
ROOT
ATOM      1  N   UNL     1       2.269   1.365  -0.580  0.00  0.00    -0.272 N 
ATOM      2  C   UNL     1       3.320   2.204  -0.496  0.00  0.00    +0.202 C 
ATOM      3  O   UNL     1       3.136   3.402  -0.442  0.00  0.00    -0.278 OA
ATOM      4  H   UNL     1       2.416   0.406  -0.612  0.00  0.00    +0.156 HD
ENDROOT
BRANCH   1   9
ATOM      5  C   UNL     1      -2.693   2.031   0.105  0.00  0.00    +0.047 C 
ATOM      6  C   UNL     1      -1.261   2.201  -0.330  0.00  0.00    -0.010 A 
ATOM      7  C   UNL     1      -0.767   3.189  -1.094  0.00  0.00    +0.027 A 
ATOM      8  N   UNL     1       0.578   2.993  -1.274  0.00  0.00    -0.300 N 
ATOM      9  C   UNL     1       0.979   1.870  -0.619  0.00  0.00    +0.128 A 
ATOM     10  C   UNL     1      -0.134   1.321   0.004  0.00  0.00    +0.095 A 
ATOM     11  C   UNL     1      -1.567   4.329  -1.669  0.00  0.00    +0.064 C 
BRANCH   8  12
ATOM     12  C   UNL     1       1.418   3.829  -2.025  0.00  0.00    +0.048 A 
ATOM     13  C   UNL     1       1.636   5.139  -1.621  0.00  0.00    +0.029 A 
ATOM     14  C   UNL     1       2.468   5.958  -2.358  0.00  0.00    +0.040 A 
ATOM     15  C   UNL     1       3.077   5.477  -3.505  0.00  0.00    +0.124 A 
ATOM     16  C   UNL     1       2.856   4.172  -3.912  0.00  0.00    +0.040 A 
ATOM     17  C   UNL     1       2.029   3.348  -3.175  0.00  0.00    +0.029 A 
ATOM     18  F   UNL     1       3.887   6.282  -4.227  0.00  0.00    -0.205 F 
ENDBRANCH   8  12
BRANCH  10  19
ATOM     19  C   UNL     1      -0.175   0.134   0.804  0.00  0.00    +0.103 C 
ATOM     20  N   UNL     1      -0.207  -0.807   1.439  0.00  0.00    -0.191 NA
ENDBRANCH  10  19
ENDBRANCH   1   9
BRANCH   2  21
ATOM     21  C   UNL     1       4.723   1.656  -0.469  0.00  0.00    +0.019 C 
BRANCH  21  23
ATOM     22  C   UNL     1       5.652   3.591  -1.590  0.00  0.00    -0.095 C 
ATOM     23  N   UNL     1       5.674   2.782  -0.353  0.00  0.00    +0.386 N 
ATOM     24  H   UNL     1       5.394   3.374   0.437  0.00  0.00    -0.081 HD
BRANCH  23  25
ATOM     25  C   UNL     1       7.038   2.268  -0.110  0.00  0.00    -0.030 C 
BRANCH  25  26
ATOM     26  C   UNL     1       7.155   1.866   1.362  0.00  0.00    +0.194 C 
ATOM     27  C   UNL     1       8.585   1.397   1.658  0.00  0.00    +0.271 C 
ATOM     28  O   UNL     1       8.662   1.042   3.043  0.00  0.00    -0.485 OA
ATOM     29  C   UNL     1       8.114   1.917   3.930  0.00  0.00    +0.162 A 
ATOM     30  C   UNL     1       8.455   1.829   5.272  0.00  0.00    +0.049 A 
ATOM     31  C   UNL     1       7.902   2.706   6.186  0.00  0.00    +0.004 A 
ATOM     32  C   UNL     1       7.008   3.673   5.765  0.00  0.00    +0.004 A 
ATOM     33  C   UNL     1       6.664   3.766   4.430  0.00  0.00    +0.049 A 
ATOM     34  C   UNL     1       7.217   2.890   3.507  0.00  0.00    +0.162 A 
ATOM     35  O   UNL     1       6.871   2.995   2.195  0.00  0.00    -0.484 OA
ENDBRANCH  25  26
ENDBRANCH  23  25
ENDBRANCH  21  23
ENDBRANCH   2  21
TORSDOF 7
