REMARK  Name = ZINC01765092
REMARK  8 active torsions:
REMARK  status: ('A' for Active; 'I' for Inactive)
REMARK    1  A    between atoms: C_1  and  C_2
REMARK    2  A    between atoms: C_2  and  O_3
REMARK    3  A    between atoms: O_3  and  C_4
REMARK    4  A    between atoms: C_4  and  C_6
REMARK    5  A    between atoms: C_10  and  N_11
REMARK    6  A    between atoms: C_12  and  C_14
REMARK    7  A    between atoms: C_19  and  C_32
REMARK    8  A    between atoms: C_22  and  C_25
REMARK                            x       y       z     vdW  Elec       q    Type
REMARK                         _______ _______ _______ _____ _____    ______ ____
ROOT
ATOM      1  C   UNL     1      -4.321   1.063   1.482  0.00  0.00    +0.168 A 
ATOM      2  C   UNL     1      -4.080   0.866   0.104  0.00  0.00    +0.112 A 
ATOM      3  C   UNL     1      -2.754   1.036  -0.111  0.00  0.00    +0.137 A 
ATOM      4  N   UNL     1      -2.173   1.330   1.087  0.00  0.00    -0.237 N 
ATOM      5  N   UNL     1      -3.168   1.341   2.065  0.00  0.00    -0.163 NA
ATOM      6  C   UNL     1      -0.736   1.583   1.268  0.00  0.00    +0.215 C 
ATOM      7  C   UNL     1      -0.013   1.086   0.008  0.00  0.00    +0.063 C 
ATOM      8  C   UNL     1      -0.758   1.595  -1.230  0.00  0.00    +0.104 C 
ATOM      9  N   UNL     1      -2.070   0.938  -1.322  0.00  0.00    -0.321 N 
ATOM     10 CL   UNL     1      -5.271   0.475  -1.097  0.00  0.00    -0.078 Cl
ATOM     11  H   UNL     1      -2.616   1.324  -2.078  0.00  0.00    +0.148 HD
ENDROOT
BRANCH   8  12
ATOM     12  C   UNL     1       0.048   1.283  -2.464  0.00  0.00    -0.027 A 
ATOM     13  C   UNL     1       0.018   0.011  -3.005  0.00  0.00    +0.007 A 
ATOM     14  C   UNL     1       0.752  -0.274  -4.141  0.00  0.00    +0.020 A 
ATOM     15  C   UNL     1       1.526   0.710  -4.730  0.00  0.00    +0.041 A 
ATOM     16  C   UNL     1       1.560   1.981  -4.184  0.00  0.00    +0.020 A 
ATOM     17  C   UNL     1       0.821   2.267  -3.052  0.00  0.00    +0.007 A 
ATOM     18 CL   UNL     1       2.455   0.350  -6.152  0.00  0.00    -0.084 Cl
ENDBRANCH   8  12
BRANCH   1  20
ATOM     19  N   UNL     1      -5.725   1.185   3.482  0.00  0.00    -0.274 N 
ATOM     20  C   UNL     1      -5.632   0.973   2.154  0.00  0.00    +0.270 C 
ATOM     21  O   UNL     1      -6.629   0.708   1.510  0.00  0.00    -0.268 OA
ATOM     22  H   UNL     1      -4.930   1.396   3.996  0.00  0.00    +0.156 HD
BRANCH  19  27
ATOM     23  C   UNL     1      -7.250   1.283   5.457  0.00  0.00    +0.091 A 
ATOM     24  C   UNL     1      -8.638   1.137   5.866  0.00  0.00    -0.021 A 
ATOM     25  C   UNL     1      -9.501   0.834   4.872  0.00  0.00    -0.004 A 
ATOM     26  S   UNL     1      -8.501   0.749   3.413  0.00  0.00    -0.077 S 
ATOM     27  C   UNL     1      -6.955   1.100   4.112  0.00  0.00    +0.087 A 
ATOM     28  C   UNL     1     -10.979   0.624   4.993  0.00  0.00    +0.043 C 
ATOM     29  C   UNL     1     -11.321   0.435   6.478  0.00  0.00    +0.005 C 
ATOM     30  C   UNL     1     -10.633   1.538   7.287  0.00  0.00    +0.005 C 
ATOM     31  C   UNL     1      -9.121   1.307   7.301  0.00  0.00    +0.037 C 
BRANCH  23  32
ATOM     32  C   UNL     1      -6.203   1.611   6.427  0.00  0.00    +0.342 C 
ATOM     33  O   UNL     1      -5.928   2.773   6.656  0.00  0.00    -0.245 OA
BRANCH  32  34
ATOM     34  O   UNL     1      -5.544   0.623   7.067  0.00  0.00    -0.461 OA
BRANCH  34  36
ATOM     35  C   UNL     1      -3.886  -0.226   8.636  0.00  0.00    +0.048 C 
ATOM     36  C   UNL     1      -4.519   1.021   8.015  0.00  0.00    +0.229 C 
ENDBRANCH  34  36
ENDBRANCH  32  34
ENDBRANCH  23  32
ENDBRANCH  19  27
ENDBRANCH   1  20
BRANCH   6  37
ATOM     37  C   UNL     1      -0.223   0.824   2.493  0.00  0.00    +0.412 C 
ATOM     38  F   UNL     1       1.152   1.040   2.634  0.00  0.00    -0.168 F 
ATOM     39  F   UNL     1      -0.886   1.282   3.637  0.00  0.00    -0.168 F 
ATOM     40  F   UNL     1      -0.466  -0.544   2.330  0.00  0.00    -0.168 F 
ENDBRANCH   6  37
TORSDOF 7
