REMARK  Name = ZINC21253642
REMARK  3 active torsions:
REMARK  status: ('A' for Active; 'I' for Inactive)
REMARK    1  A    between atoms: C_8  and  C_26
REMARK    2  A    between atoms: C_14  and  C_19
REMARK    3  A    between atoms: C_30  and  O_32
REMARK                            x       y       z     vdW  Elec       q    Type
REMARK                         _______ _______ _______ _____ _____    ______ ____
ROOT
ATOM      1  C   UNL     1       2.431  -4.832  -2.629  0.00  0.00    +0.002 A 
ATOM      2  C   UNL     1       1.643  -4.880  -1.493  0.00  0.00    +0.002 A 
ATOM      3  C   UNL     1       0.908  -3.773  -1.106  0.00  0.00    +0.025 A 
ATOM      4  C   UNL     1       0.972  -2.617  -1.864  0.00  0.00    +0.052 A 
ATOM      5  C   UNL     1       1.792  -2.554  -2.981  0.00  0.00    +0.049 A 
ATOM      6  C   UNL     1       2.510  -3.671  -3.378  0.00  0.00    +0.025 A 
ATOM      7  N   UNL     1       1.923  -1.333  -3.641  0.00  0.00    -0.331 N 
ATOM      8  C   UNL     1       2.535  -0.194  -2.991  0.00  0.00    +0.136 C 
ATOM      9  C   UNL     1       1.774   0.327  -1.795  0.00  0.00    +0.036 C 
ATOM     10  C   UNL     1       0.751  -0.291  -1.181  0.00  0.00    +0.017 C 
ATOM     11  N   UNL     1       0.226  -1.484  -1.557  0.00  0.00    -0.316 N 
ATOM     12  C   UNL     1       0.090   0.340   0.033  0.00  0.00    +0.059 C 
ATOM     13  C   UNL     1       0.112   1.862  -0.096  0.00  0.00    +0.032 C 
ATOM     14  C   UNL     1       1.579   2.301  -0.186  0.00  0.00    +0.088 C 
ATOM     15  C   UNL     1       2.222   1.589  -1.337  0.00  0.00    +0.163 C 
ATOM     16  O   UNL     1       3.163   2.115  -1.899  0.00  0.00    -0.292 OA
ATOM     17  H   UNL     1       1.551  -1.244  -4.672  0.00  0.00    +0.147 HD
ATOM     18  H   UNL     1      -0.872  -1.518  -1.611  0.00  0.00    +0.152 HD
ENDROOT
BRANCH  13  19
ATOM     19  C   UNL     1      -0.534   2.486   1.114  0.00  0.00    -0.043 A 
ATOM     20  C   UNL     1      -0.016   2.250   2.374  0.00  0.00    +0.007 A 
ATOM     21  C   UNL     1      -0.605   2.826   3.483  0.00  0.00    +0.038 A 
ATOM     22  C   UNL     1      -1.721   3.632   3.334  0.00  0.00    +0.123 A 
ATOM     23  C   UNL     1      -2.243   3.864   2.072  0.00  0.00    +0.038 A 
ATOM     24  C   UNL     1      -1.649   3.291   0.964  0.00  0.00    +0.007 A 
ATOM     25  F   UNL     1      -2.301   4.192   4.418  0.00  0.00    -0.205 F 
ENDBRANCH  13  19
BRANCH   8  26
ATOM     26  C   UNL     1       3.918  -0.588  -2.539  0.00  0.00    -0.019 A 
ATOM     27  C   UNL     1       5.021   0.101  -3.010  0.00  0.00    +0.006 A 
ATOM     28  C   UNL     1       6.291  -0.258  -2.598  0.00  0.00    +0.004 A 
ATOM     29  C   UNL     1       6.461  -1.306  -1.714  0.00  0.00    +0.045 A 
ATOM     30  C   UNL     1       5.356  -1.998  -1.240  0.00  0.00    +0.117 A 
ATOM     31  C   UNL     1       4.082  -1.633  -1.651  0.00  0.00    +0.051 A 
BRANCH  30  32
ATOM     32  O   UNL     1       5.521  -3.029  -0.370  0.00  0.00    -0.507 OA
ATOM     33  H   UNL     1       4.644  -3.578   0.005  0.00  0.00    +0.292 HD
ENDBRANCH  30  32
ENDBRANCH   8  26
TORSDOF 3
