REMARK  Name = ZINC27500293
REMARK  2 active torsions:
REMARK  status: ('A' for Active; 'I' for Inactive)
REMARK    1  A    between atoms: C_5  and  C_7
REMARK    2  A    between atoms: C_12  and  C_14
REMARK                            x       y       z     vdW  Elec       q    Type
REMARK                         _______ _______ _______ _____ _____    ______ ____
ROOT
ATOM      1  C   UNL     1       5.984   0.921  -0.047  0.00  0.00    +0.044 C 
ATOM      2  C   UNL     1       4.646   0.686  -0.277  0.00  0.00    +0.152 C 
ATOM      3  C   UNL     1       3.968  -0.623  -0.353  0.00  0.00    +0.364 C 
ATOM      4  O   UNL     1       4.471  -1.724  -0.228  0.00  0.00    -0.243 OA
ATOM      5  O   UNL     1       2.670  -0.336  -0.587  0.00  0.00    -0.402 OA
ATOM      6  C   UNL     1       2.530   1.002  -0.662  0.00  0.00    +0.232 C 
ATOM      7  N   UNL     1       3.667   1.614  -0.481  0.00  0.00    -0.205 NA
ENDROOT
BRANCH   1  12
ATOM      8  C   UNL     1       6.163   4.658  -0.247  0.00  0.00    +0.001 A 
ATOM      9  C   UNL     1       7.529   4.854  -0.361  0.00  0.00    +0.001 A 
ATOM     10  C   UNL     1       8.394   3.773  -0.374  0.00  0.00    +0.015 A 
ATOM     11  C   UNL     1       7.900   2.489  -0.268  0.00  0.00    +0.021 A 
ATOM     12  C   UNL     1       6.519   2.282  -0.157  0.00  0.00    -0.010 A 
ATOM     13  C   UNL     1       5.652   3.383  -0.144  0.00  0.00    +0.009 A 
ATOM     14  I   UNL     1       9.211   0.855  -0.279  0.00  0.00    -0.043 I 
ENDBRANCH   1  12
BRANCH   6  15
ATOM     15  C   UNL     1       1.247   1.689  -0.913  0.00  0.00    +0.038 A 
ATOM     16  C   UNL     1       0.077   0.948  -1.095  0.00  0.00    +0.013 A 
ATOM     17  C   UNL     1      -1.116   1.597  -1.333  0.00  0.00    +0.002 A 
ATOM     18  C   UNL     1      -1.159   2.979  -1.381  0.00  0.00    +0.014 A 
ATOM     19  C   UNL     1      -0.004   3.720  -1.201  0.00  0.00    +0.014 A 
ATOM     20  C   UNL     1       1.198   3.084  -0.967  0.00  0.00    +0.027 A 
ATOM     21  I   UNL     1      -0.081   5.812  -1.284  0.00  0.00    -0.044 I 
ENDBRANCH   6  15
TORSDOF 2
