REMARK  Name = ZINC19213513
REMARK  8 active torsions:
REMARK  status: ('A' for Active; 'I' for Inactive)
REMARK    1  A    between atoms: C_1  and  C_2
REMARK    2  A    between atoms: C_5  and  C_9
REMARK    3  A    between atoms: C_7  and  C_8
REMARK    4  A    between atoms: C_9  and  C_11
REMARK    5  A    between atoms: C_9  and  N_17
REMARK    6  A    between atoms: C_18  and  C_20
REMARK    7  A    between atoms: C_20  and  C_21
REMARK    8  A    between atoms: N_28  and  C_29
REMARK                            x       y       z     vdW  Elec       q    Type
REMARK                         _______ _______ _______ _____ _____    ______ ____
ROOT
ATOM      1  N   UNL     1       2.436   0.454   1.046  0.00  0.00    -0.305 N 
ATOM      2  C   UNL     1       3.531  -0.135   1.566  0.00  0.00    +0.213 C 
ATOM      3  O   UNL     1       4.520   0.526   1.803  0.00  0.00    -0.276 OA
ATOM      4  H   UNL     1       1.511  -0.126   0.913  0.00  0.00    +0.150 HD
ENDROOT
BRANCH   1   5
ATOM      5  C   UNL     1       2.477   1.866   0.660  0.00  0.00    +0.134 C 
BRANCH   5  10
ATOM      6  C   UNL     1      -2.831   4.120   1.027  0.00  0.00    +0.044 C 
ATOM      7  C   UNL     1      -1.447   3.532   0.931  0.00  0.00    -0.048 A 
ATOM      8  C   UNL     1      -1.271   2.257   0.427  0.00  0.00    +0.004 A 
ATOM      9  C   UNL     1      -0.002   1.716   0.345  0.00  0.00    +0.006 A 
ATOM     10  C   UNL     1       1.093   2.454   0.756  0.00  0.00    -0.023 A 
ATOM     11  C   UNL     1       0.917   3.731   1.254  0.00  0.00    +0.009 A 
ATOM     12  C   UNL     1      -0.353   4.270   1.342  0.00  0.00    -0.047 A 
ATOM     13  C   UNL     1      -0.544   5.663   1.886  0.00  0.00    +0.044 C 
ENDBRANCH   5  10
BRANCH   5  14
ATOM     14  C   UNL     1       2.976   1.985  -0.757  0.00  0.00    -0.020 A 
ATOM     15  C   UNL     1       2.612   1.054  -1.718  0.00  0.00    +0.025 A 
ATOM     16  C   UNL     1       3.085   1.199  -3.009  0.00  0.00    +0.111 A 
ATOM     17  N   UNL     1       3.882   2.200  -3.327  0.00  0.00    -0.263 NA
ATOM     18  C   UNL     1       4.254   3.100  -2.438  0.00  0.00    +0.111 A 
ATOM     19  C   UNL     1       3.816   3.024  -1.129  0.00  0.00    +0.025 A 
ENDBRANCH   5  14
ENDBRANCH   1   5
BRANCH   2  20
ATOM     20  C   UNL     1       3.527  -1.615   1.851  0.00  0.00    +0.089 C 
BRANCH  20  21
ATOM     21  C   UNL     1       4.923  -2.051   2.302  0.00  0.00    +0.028 C 
ATOM     22  C   UNL     1       5.902  -1.822   1.185  0.00  0.00    +0.200 C 
ATOM     23  O   UNL     1       5.575  -2.120   0.056  0.00  0.00    -0.278 OA
ATOM     24  N   UNL     1       7.119  -1.304   1.385  0.00  0.00    -0.318 N 
ATOM     25  C   UNL     1       7.595  -0.879   2.698  0.00  0.00    +0.085 C 
ATOM     26  C   UNL     1       6.737  -1.511   3.796  0.00  0.00    -0.058 C 
ATOM     27  N   UNL     1       5.319  -1.273   3.484  0.00  0.00    +0.390 N 
ATOM     28  H   UNL     1       7.770  -1.203   0.504  0.00  0.00    +0.149 HD
ATOM     29  H   UNL     1       5.184  -0.205   3.258  0.00  0.00    -0.080 HD
BRANCH  27  30
ATOM     30  C   UNL     1       4.465  -1.595   4.635  0.00  0.00    -0.067 C 
ATOM     31  C   UNL     1       4.767  -0.631   5.802  0.00  0.00    -0.015 C 
ATOM     32  C   UNL     1       4.646  -1.517   7.067  0.00  0.00    -0.002 C 
ATOM     33  C   UNL     1       5.259  -2.861   6.602  0.00  0.00    -0.002 C 
ATOM     34  C   UNL     1       4.778  -3.013   5.144  0.00  0.00    -0.015 C 
ENDBRANCH  27  30
ENDBRANCH  20  21
ENDBRANCH   2  20
TORSDOF 6
