REMARK  Name = ZINC01374586
REMARK  13 active torsions:
REMARK  status: ('A' for Active; 'I' for Inactive)
REMARK    1  A    between atoms: C_1  and  C_2
REMARK    2  A    between atoms: C_2  and  C_3
REMARK    3  A    between atoms: C_3  and  C_5
REMARK    4  A    between atoms: C_3  and  N_18
REMARK    5  A    between atoms: N_9  and  C_10
REMARK    6  A    between atoms: C_10  and  C_11
REMARK    7  A    between atoms: C_11  and  C_12
REMARK    8  A    between atoms: N_18  and  C_19
REMARK    9  A    between atoms: N_18  and  C_29
REMARK   10  A    between atoms: C_19  and  C_20
REMARK   11  A    between atoms: C_29  and  C_30
REMARK   12  A    between atoms: C_34  and  O_42
REMARK   13  A    between atoms: O_42  and  C_43
REMARK                            x       y       z     vdW  Elec       q    Type
REMARK                         _______ _______ _______ _____ _____    ______ ____
ROOT
ATOM      1  N   UNL     1      -2.233  -0.408   1.638  0.00  0.00    -0.284 NA
ENDROOT
BRANCH   1   2
ATOM      2  C   UNL     1      -1.807  -1.310   0.559  0.00  0.00    +0.127 C 
BRANCH   2   3
ATOM      3  C   UNL     1      -2.078  -2.737   0.961  0.00  0.00    +0.168 A 
ATOM      4  N   UNL     1      -1.823  -3.284   2.124  0.00  0.00    -0.112 NA
ATOM      5  N   UNL     1      -2.198  -4.516   2.075  0.00  0.00    -0.023 NA
ATOM      6  N   UNL     1      -2.686  -4.768   0.911  0.00  0.00    -0.044 NA
ATOM      7  N   UNL     1      -2.635  -3.695   0.197  0.00  0.00    -0.227 N 
BRANCH   7   8
ATOM      8  C   UNL     1      -3.093  -3.548  -1.187  0.00  0.00    +0.152 C 
BRANCH   8   9
ATOM      9  C   UNL     1      -1.944  -3.879  -2.142  0.00  0.00    +0.058 C 
BRANCH   9  10
ATOM     10  C   UNL     1      -2.415  -3.727  -3.566  0.00  0.00    -0.046 A 
ATOM     11  C   UNL     1      -2.976  -4.804  -4.226  0.00  0.00    +0.004 A 
ATOM     12  C   UNL     1      -3.408  -4.666  -5.532  0.00  0.00    +0.000 A 
ATOM     13  C   UNL     1      -3.280  -3.450  -6.177  0.00  0.00    +0.000 A 
ATOM     14  C   UNL     1      -2.721  -2.372  -5.516  0.00  0.00    +0.000 A 
ATOM     15  C   UNL     1      -2.293  -2.510  -4.209  0.00  0.00    +0.004 A 
ENDBRANCH   9  10
ENDBRANCH   8   9
ENDBRANCH   7   8
ENDBRANCH   2   3
BRANCH   2  17
ATOM     16  C   UNL     1      -0.043   0.306  -0.161  0.00  0.00    +0.006 C 
ATOM     17  C   UNL     1      -0.310  -1.127   0.304  0.00  0.00    +0.023 C 
ENDBRANCH   2  17
ENDBRANCH   1   2
BRANCH   1  18
ATOM     18  C   UNL     1      -1.227  -0.354   2.707  0.00  0.00    +0.120 C 
BRANCH  18  19
ATOM     19  C   UNL     1      -1.849   0.224   3.952  0.00  0.00    -0.030 A 
ATOM     20  C   UNL     1      -1.708   1.570   4.233  0.00  0.00    +0.009 A 
ATOM     21  C   UNL     1      -2.276   2.104   5.374  0.00  0.00    +0.050 A 
ATOM     22  C   UNL     1      -2.989   1.291   6.240  0.00  0.00    +0.166 A 
ATOM     23  C   UNL     1      -3.131  -0.065   5.957  0.00  0.00    +0.167 A 
ATOM     24  C   UNL     1      -2.563  -0.593   4.809  0.00  0.00    +0.054 A 
ATOM     25  O   UNL     1      -3.866  -0.643   6.951  0.00  0.00    -0.453 OA
ATOM     26  C   UNL     1      -3.826   0.287   8.050  0.00  0.00    +0.466 C 
ATOM     27  O   UNL     1      -3.636   1.563   7.411  0.00  0.00    -0.453 OA
ENDBRANCH  18  19
ENDBRANCH   1  18
BRANCH   1  28
ATOM     28  C   UNL     1      -2.522   0.935   1.118  0.00  0.00    +0.126 C 
BRANCH  28  29
ATOM     29  C   UNL     1      -3.865   0.932   0.435  0.00  0.00    +0.031 A 
ATOM     30  C   UNL     1      -4.979   1.267   1.133  0.00  0.00    +0.020 A 
ATOM     31  C   UNL     1      -6.269   1.254   0.441  0.00  0.00    +0.002 A 
ATOM     32  C   UNL     1      -7.450   1.591   1.110  0.00  0.00    +0.055 A 
ATOM     33  C   UNL     1      -8.650   1.569   0.427  0.00  0.00    +0.121 A 
ATOM     34  C   UNL     1      -8.686   1.213  -0.920  0.00  0.00    +0.047 A 
ATOM     35  C   UNL     1      -7.529   0.879  -1.589  0.00  0.00    +0.030 A 
ATOM     36  C   UNL     1      -6.310   0.895  -0.920  0.00  0.00    +0.049 A 
ATOM     37  N   UNL     1      -5.140   0.565  -1.573  0.00  0.00    -0.322 N 
ATOM     38  H   UNL     1      -5.169   0.318  -2.510  0.00  0.00    +0.169 HD
ATOM     39  C   UNL     1      -3.959   0.585  -0.930  0.00  0.00    +0.254 A 
ATOM     40  O   UNL     1      -2.946   0.292  -1.540  0.00  0.00    -0.268 OA
BRANCH  33  41
ATOM     41  O   UNL     1      -9.801   1.895   1.072  0.00  0.00    -0.495 OA
ATOM     42  C   UNL     1     -11.008   1.851   0.307  0.00  0.00    +0.277 C 
ENDBRANCH  33  41
ENDBRANCH  28  29
ENDBRANCH   1  28
TORSDOF 11
