REMARK  Name = ZINC63110562
REMARK  8 active torsions:
REMARK  status: ('A' for Active; 'I' for Inactive)
REMARK    1  A    between atoms: C_1  and  C_2
REMARK    2  A    between atoms: N_6  and  C_19
REMARK    3  A    between atoms: C_19  and  C_20
REMARK    4  A    between atoms: C_20  and  O_22
REMARK    5  A    between atoms: O_22  and  C_23
REMARK    6  A    between atoms: N_27  and  C_28
REMARK    7  A    between atoms: C_28  and  C_29
REMARK    8  A    between atoms: C_29  and  C_30
REMARK                            x       y       z     vdW  Elec       q    Type
REMARK                         _______ _______ _______ _____ _____    ______ ____
ROOT
ATOM      1  C   UNL     1      -0.019   1.526   0.010  0.00  0.00    +0.033 C 
ATOM      2  C   UNL     1       0.002  -0.004   0.002  0.00  0.00    +0.110 C 
ATOM      3  C   UNL     1       0.701  -0.487  -1.240  0.00  0.00    +0.060 A 
ATOM      4  C   UNL     1       1.956  -0.997  -1.250  0.00  0.00    +0.056 A 
ATOM      5  N   UNL     1       2.276  -1.331  -2.529  0.00  0.00    -0.267 N 
ATOM      6  N   UNL     1       1.180  -1.018  -3.348  0.00  0.00    -0.191 N 
ATOM      7  C   UNL     1       0.212  -0.500  -2.561  0.00  0.00    +0.279 A 
ATOM      8  O   UNL     1      -0.883  -0.115  -2.927  0.00  0.00    -0.265 OA
ATOM      9  C   UNL     1       1.105  -1.207  -4.717  0.00  0.00    +0.196 A 
ATOM     10  N   UNL     1       2.006  -1.708  -5.530  0.00  0.00    -0.221 NA
ATOM     11  C   UNL     1       1.794  -1.835  -6.858  0.00  0.00    +0.081 A 
ATOM     12  C   UNL     1       2.674  -2.353  -7.836  0.00  0.00    +0.029 A 
ATOM     13  C   UNL     1       2.300  -2.410  -9.154  0.00  0.00    +0.002 A 
ATOM     14  C   UNL     1       1.056  -1.965  -9.574  0.00  0.00    +0.001 A 
ATOM     15  C   UNL     1       0.170  -1.452  -8.645  0.00  0.00    +0.017 A 
ATOM     16  C   UNL     1       0.535  -1.391  -7.323  0.00  0.00    +0.041 A 
ATOM     17  S   UNL     1      -0.247  -0.838  -5.827  0.00  0.00    -0.048 S 
ATOM     18  C   UNL     1       2.801  -1.142  -0.011  0.00  0.00    +0.151 C 
ATOM     19  C   UNL     1       1.932  -0.985   1.204  0.00  0.00    +0.222 C 
ATOM     20  O   UNL     1       2.385  -1.339   2.272  0.00  0.00    -0.275 OA
ATOM     21  N   UNL     1       0.702  -0.484   1.187  0.00  0.00    -0.294 N 
ENDROOT
BRANCH   5  22
ATOM     22  C   UNL     1       3.543  -1.915  -2.974  0.00  0.00    +0.262 C 
BRANCH  22  23
ATOM     23  C   UNL     1       3.451  -3.418  -2.918  0.00  0.00    +0.328 C 
ATOM     24  O   UNL     1       2.430  -3.947  -2.545  0.00  0.00    -0.249 OA
BRANCH  23  25
ATOM     25  O   UNL     1       4.502  -4.169  -3.283  0.00  0.00    -0.467 OA
ATOM     26  C   UNL     1       4.343  -5.588  -3.205  0.00  0.00    +0.280 C 
ENDBRANCH  23  25
ENDBRANCH  22  23
ENDBRANCH   5  22
BRANCH  21  27
ATOM     27  C   UNL     1      -0.009  -0.409   2.466  0.00  0.00    +0.113 C 
BRANCH  27  28
ATOM     28  C   UNL     1      -0.791  -1.705   2.692  0.00  0.00    +0.052 C 
BRANCH  28  29
ATOM     29  C   UNL     1      -1.522  -1.627   4.007  0.00  0.00    -0.040 C 
ATOM     30  C   UNL     1      -2.805  -1.249   4.203  0.00  0.00    -0.001 A 
ATOM     31  C   UNL     1      -3.865  -0.812   3.286  0.00  0.00    +0.010 A 
ATOM     32  C   UNL     1      -5.078  -0.490   3.790  0.00  0.00    +0.001 A 
ATOM     33  C   UNL     1      -5.348  -0.564   5.163  0.00  0.00    +0.002 A 
ATOM     34  C   UNL     1      -4.427  -0.956   6.068  0.00  0.00    +0.026 A 
ATOM     35  C   UNL     1      -3.117  -1.318   5.649  0.00  0.00    +0.043 A 
ATOM     36  N   UNL     1      -2.066  -1.724   6.320  0.00  0.00    -0.380 N 
ATOM     37  C   UNL     1      -0.970  -1.964   5.375  0.00  0.00    +0.144 C 
ATOM     38  H   UNL     1      -2.022  -1.848   7.281  0.00  0.00    +0.160 HD
ENDBRANCH  28  29
ENDBRANCH  27  28
ENDBRANCH  21  27
TORSDOF 6
