REMARK  Name = ZINC02701874
REMARK  8 active torsions:
REMARK  status: ('A' for Active; 'I' for Inactive)
REMARK    1  A    between atoms: C_1  and  C_2
REMARK    2  A    between atoms: C_4  and  C_35
REMARK    3  A    between atoms: C_10  and  C_14
REMARK    4  A    between atoms: C_11  and  C_13
REMARK    5  A    between atoms: C_16  and  C_28
REMARK    6  A    between atoms: C_18  and  C_23
REMARK    7  A    between atoms: C_18  and  O_27
REMARK    8  A    between atoms: C_28  and  C_30
REMARK                            x       y       z     vdW  Elec       q    Type
REMARK                         _______ _______ _______ _____ _____    ______ ____
ROOT
ATOM      1  C   UNL     1       0.009  -2.903   5.885  0.00  0.00    +0.123 C 
ATOM      2  C   UNL     1      -1.374  -3.042   6.531  0.00  0.00    +0.145 C 
ATOM      3  C   UNL     1      -1.234  -2.805   8.038  0.00  0.00    +0.243 C 
ATOM      4  N   UNL     1      -0.606  -1.503   8.264  0.00  0.00    -0.264 N 
ATOM      5  C   UNL     1       0.248  -0.977   7.373  0.00  0.00    +0.302 C 
ATOM      6  O   UNL     1       0.750   0.104   7.614  0.00  0.00    -0.253 OA
ATOM      7  N   UNL     1       0.571  -1.596   6.227  0.00  0.00    -0.292 N 
ATOM      8  H   UNL     1      -0.811  -1.010   9.074  0.00  0.00    +0.153 HD
ATOM      9  H   UNL     1       1.188  -1.169   5.613  0.00  0.00    +0.151 HD
ENDROOT
BRANCH   1  19
ATOM     10  C   UNL     1      -5.463  -2.499   0.826  0.00  0.00    +0.066 C 
ATOM     11  C   UNL     1      -4.005  -2.758   0.544  0.00  0.00    +0.044 A 
ATOM     12  C   UNL     1      -3.565  -2.951  -0.756  0.00  0.00    +0.046 A 
ATOM     13  C   UNL     1      -2.216  -3.186  -0.970  0.00  0.00    +0.044 A 
ATOM     14  N   UNL     1      -1.395  -3.219   0.067  0.00  0.00    -0.216 NA
ATOM     15  C   UNL     1      -1.849  -3.031   1.296  0.00  0.00    +0.252 A 
ATOM     16  N   UNL     1      -3.129  -2.799   1.534  0.00  0.00    -0.216 NA
ATOM     17  N   UNL     1      -0.954  -3.073   2.365  0.00  0.00    -0.205 N 
ATOM     18  C   UNL     1      -1.266  -2.905   3.677  0.00  0.00    +0.123 A 
ATOM     19  C   UNL     1      -0.121  -3.019   4.388  0.00  0.00    +0.015 A 
ATOM     20  C   UNL     1       0.923  -3.264   3.488  0.00  0.00    +0.065 A 
ATOM     21  N   UNL     1       0.425  -3.302   2.279  0.00  0.00    -0.169 NA
ATOM     22  C   UNL     1       2.373  -3.457   3.851  0.00  0.00    +0.068 C 
ATOM     23  C   UNL     1      -1.691  -3.402  -2.366  0.00  0.00    +0.066 C 
ENDBRANCH   1  19
BRANCH   3  24
ATOM     24  C   UNL     1      -2.619  -2.825   8.689  0.00  0.00    +0.436 C 
ATOM     25  F   UNL     1      -3.221  -4.068   8.467  0.00  0.00    -0.166 F 
ATOM     26  F   UNL     1      -2.490  -2.609  10.066  0.00  0.00    -0.166 F 
ATOM     27  F   UNL     1      -3.411  -1.816   8.131  0.00  0.00    -0.166 F 
ENDBRANCH   3  24
BRANCH   3  28
ATOM     28  O   UNL     1      -0.422  -3.833   8.609  0.00  0.00    -0.364 OA
ATOM     29  H   UNL     1      -0.291  -3.746   9.563  0.00  0.00    +0.212 HD
ENDBRANCH   3  28
BRANCH   2  30
ATOM     30  C   UNL     1      -1.913  -4.427   6.279  0.00  0.00    +0.179 C 
ATOM     31  O   UNL     1      -1.175  -5.388   6.350  0.00  0.00    -0.291 OA
BRANCH  30  32
ATOM     32  C   UNL     1      -3.278  -4.606   5.963  0.00  0.00    +0.055 A 
ATOM     33  C   UNL     1      -3.971  -5.785   5.703  0.00  0.00    +0.019 A 
ATOM     34  C   UNL     1      -5.305  -5.641   5.422  0.00  0.00    +0.008 A 
ATOM     35  C   UNL     1      -5.848  -4.396   5.415  0.00  0.00    +0.046 A 
ATOM     36  S   UNL     1      -4.564  -3.383   5.798  0.00  0.00    -0.094 S 
ENDBRANCH  30  32
ENDBRANCH   2  30
TORSDOF 5
