REMARK  Name = ZINC39325514
REMARK  6 active torsions:
REMARK  status: ('A' for Active; 'I' for Inactive)
REMARK    1  A    between atoms: C_4  and  C_7
REMARK    2  A    between atoms: C_7  and  N_8
REMARK    3  A    between atoms: N_8  and  C_9
REMARK    4  A    between atoms: N_8  and  S_26
REMARK    5  A    between atoms: C_9  and  C_10
REMARK    6  A    between atoms: S_26  and  C_29
REMARK                            x       y       z     vdW  Elec       q    Type
REMARK                         _______ _______ _______ _____ _____    ______ ____
ROOT
ATOM      1  N   UNL     1       4.338  -0.770   1.204  0.00  0.00    -0.171 NA
ENDROOT
BRANCH   1   2
ATOM      2  S   UNL     1       4.943   0.159   2.434  0.00  0.00    +0.063 S 
ATOM      3  O   UNL     1       5.461   1.339   1.835  0.00  0.00    -0.153 OA
ATOM      4  O   UNL     1       3.945   0.192   3.446  0.00  0.00    -0.153 OA
BRANCH   2   5
ATOM      5  C   UNL     1       6.319  -0.708   3.112  0.00  0.00    +0.124 A 
ATOM      6  C   UNL     1       7.605  -0.262   2.869  0.00  0.00    +0.030 A 
ATOM      7  C   UNL     1       8.685  -0.941   3.401  0.00  0.00    +0.002 A 
ATOM      8  C   UNL     1       8.479  -2.067   4.177  0.00  0.00    +0.002 A 
ATOM      9  C   UNL     1       7.195  -2.513   4.422  0.00  0.00    +0.022 A 
ATOM     10  C   UNL     1       6.113  -1.830   3.894  0.00  0.00    +0.067 A 
ATOM     11 CL   UNL     1       4.498  -2.387   4.206  0.00  0.00    -0.082 Cl
ENDBRANCH   2   5
ENDBRANCH   1   2
BRANCH   1  12
ATOM     12  C   UNL     1       4.584  -0.390  -0.190  0.00  0.00    +0.144 C 
BRANCH  12  16
ATOM     13  C   UNL     1       1.468   2.206  -1.532  0.00  0.00    +0.000 A 
ATOM     14  C   UNL     1       2.605   2.734  -0.949  0.00  0.00    +0.000 A 
ATOM     15  C   UNL     1       3.613   1.894  -0.514  0.00  0.00    +0.005 A 
ATOM     16  C   UNL     1       3.485   0.526  -0.662  0.00  0.00    -0.032 A 
ATOM     17  C   UNL     1       2.348  -0.003  -1.244  0.00  0.00    +0.005 A 
ATOM     18  C   UNL     1       1.340   0.838  -1.680  0.00  0.00    +0.000 A 
ENDBRANCH  12  16
ENDBRANCH   1  12
BRANCH   1  19
ATOM     19  C   UNL     1       3.557  -1.972   1.508  0.00  0.00    +0.126 C 
BRANCH  19  20
ATOM     20  C   UNL     1       4.496  -3.174   1.627  0.00  0.00    +0.114 C 
ATOM     21  C   UNL     1       3.727  -4.301   2.286  0.00  0.00    -0.003 C 
ATOM     22  C   UNL     1       3.621  -5.471   1.600  0.00  0.00    -0.003 A 
ATOM     23  C   UNL     1       2.896  -6.609   2.167  0.00  0.00    +0.059 A 
ATOM     24  C   UNL     1       2.807  -7.765   1.456  0.00  0.00    +0.163 A 
ATOM     25  C   UNL     1       3.398  -7.884   0.182  0.00  0.00    +0.164 A 
ATOM     26  C   UNL     1       4.095  -6.840  -0.395  0.00  0.00    +0.073 A 
ATOM     27  C   UNL     1       4.236  -5.615   0.268  0.00  0.00    +0.044 A 
ATOM     28  N   UNL     1       4.914  -4.620  -0.309  0.00  0.00    -0.284 N 
ATOM     29  C   UNL     1       5.083  -3.440   0.259  0.00  0.00    +0.225 C 
ATOM     30  O   UNL     1       5.711  -2.570  -0.316  0.00  0.00    -0.275 OA
ATOM     31  O   UNL     1       3.289  -9.045  -0.518  0.00  0.00    -0.485 OA
ATOM     32  C   UNL     1       2.918 -10.213   0.221  0.00  0.00    +0.270 C 
ATOM     33  C   UNL     1       1.724  -9.857   1.117  0.00  0.00    +0.270 C 
ATOM     34  O   UNL     1       2.130  -8.812   2.007  0.00  0.00    -0.485 OA
ATOM     35  H   UNL     1       5.299  -4.770  -1.187  0.00  0.00    +0.155 HD
ENDBRANCH  19  20
ENDBRANCH   1  19
TORSDOF 6
