REMARK  Name = ZINC12577406
REMARK  7 active torsions:
REMARK  status: ('A' for Active; 'I' for Inactive)
REMARK    1  A    between atoms: C_1  and  C_2
REMARK    2  A    between atoms: C_2  and  C_4
REMARK    3  A    between atoms: C_2  and  N_13
REMARK    4  A    between atoms: C_8  and  N_10
REMARK    5  A    between atoms: N_16  and  C_19
REMARK    6  A    between atoms: C_19  and  C_20
REMARK    7  A    between atoms: C_19  and  C_27
REMARK                            x       y       z     vdW  Elec       q    Type
REMARK                         _______ _______ _______ _____ _____    ______ ____
ROOT
ATOM      1  N   UNL     1      -0.912   5.329   2.213  0.00  0.00    -0.299 NA
ATOM      2  C   UNL     1      -2.115   4.715   1.633  0.00  0.00    +0.066 C 
ATOM      3  C   UNL     1      -3.356   5.273   2.333  0.00  0.00    -0.062 C 
ATOM      4  N   UNL     1      -3.388   6.734   2.179  0.00  0.00    +0.389 N 
ATOM      5  C   UNL     1      -2.185   7.348   2.759  0.00  0.00    -0.062 C 
ATOM      6  C   UNL     1      -0.943   6.790   2.059  0.00  0.00    +0.066 C 
ATOM      7  H   UNL     1      -3.400   6.962   1.103  0.00  0.00    -0.080 HD
ENDROOT
BRANCH   1   9
ATOM      8  C   UNL     1       0.308   3.245   1.807  0.00  0.00    +0.029 C 
ATOM      9  C   UNL     1       0.307   4.763   1.619  0.00  0.00    +0.084 C 
BRANCH   9  10
ATOM     10  C   UNL     1       1.517   5.355   2.295  0.00  0.00    -0.028 A 
ATOM     11  C   UNL     1       1.564   5.444   3.674  0.00  0.00    +0.005 A 
ATOM     12  C   UNL     1       2.675   5.982   4.294  0.00  0.00    +0.003 A 
ATOM     13  C   UNL     1       3.736   6.440   3.535  0.00  0.00    +0.033 A 
ATOM     14  C   UNL     1       3.690   6.350   2.157  0.00  0.00    +0.127 A 
ATOM     15  C   UNL     1       2.580   5.807   1.536  0.00  0.00    +0.038 A 
BRANCH  14  16
ATOM     16  N   UNL     1       4.828   6.835   1.345  0.00  0.00    +0.056 N 
ATOM     17  O   UNL     1       5.806   7.313   1.891  0.00  0.00    -0.126 OA
ATOM     18  O   UNL     1       4.787   6.756   0.130  0.00  0.00    -0.126 OA
ENDBRANCH  14  16
ENDBRANCH   9  10
ENDBRANCH   1   9
BRANCH   4  19
ATOM     19  C   UNL     1      -4.606   7.300   2.773  0.00  0.00    -0.007 C 
BRANCH  19  20
ATOM     20  C   UNL     1      -4.632   8.789   2.543  0.00  0.00    -0.057 A 
ATOM     21  C   UNL     1      -4.333   9.301   1.294  0.00  0.00    +0.005 A 
ATOM     22  C   UNL     1      -4.361  10.666   1.081  0.00  0.00    +0.038 A 
ATOM     23  C   UNL     1      -4.679  11.522   2.121  0.00  0.00    +0.123 A 
ATOM     24  C   UNL     1      -4.974  11.009   3.373  0.00  0.00    +0.038 A 
ATOM     25  C   UNL     1      -4.950   9.643   3.583  0.00  0.00    +0.005 A 
ATOM     26  F   UNL     1      -4.703  12.857   1.915  0.00  0.00    -0.205 F 
ENDBRANCH  19  20
BRANCH  19  27
ATOM     27  C   UNL     1      -5.816   6.671   2.132  0.00  0.00    -0.057 A 
ATOM     28  C   UNL     1      -5.872   6.524   0.758  0.00  0.00    +0.005 A 
ATOM     29  C   UNL     1      -6.979   5.943   0.170  0.00  0.00    +0.038 A 
ATOM     30  C   UNL     1      -8.038   5.519   0.955  0.00  0.00    +0.123 A 
ATOM     31  C   UNL     1      -7.983   5.672   2.330  0.00  0.00    +0.038 A 
ATOM     32  C   UNL     1      -6.872   6.248   2.917  0.00  0.00    +0.005 A 
ATOM     33  F   UNL     1      -9.123   4.955   0.380  0.00  0.00    -0.205 F 
ENDBRANCH  19  27
ENDBRANCH   4  19
TORSDOF 6
