REMARK  Name = ZINC02471979
REMARK  5 active torsions:
REMARK  status: ('A' for Active; 'I' for Inactive)
REMARK    1  A    between atoms: C_1  and  C_2
REMARK    2  A    between atoms: C_2  and  C_3
REMARK    3  A    between atoms: C_2  and  C_4
REMARK    4  A    between atoms: C_7  and  C_10
REMARK    5  A    between atoms: C_13  and  C_21
REMARK                            x       y       z     vdW  Elec       q    Type
REMARK                         _______ _______ _______ _____ _____    ______ ____
ROOT
ATOM      1  C   UNL     1       1.919  -1.733  -0.029  0.00  0.00    +0.143 C 
ATOM      2  C   UNL     1       3.371  -1.643  -0.515  0.00  0.00    +0.058 C 
ATOM      3  C   UNL     1       4.110  -0.545   0.260  0.00  0.00    +0.106 C 
ATOM      4  N   UNL     1       3.460   0.749  -0.023  0.00  0.00    -0.307 N 
ATOM      5  C   UNL     1       2.071   0.754  -0.013  0.00  0.00    +0.215 A 
ATOM      6  N   UNL     1       1.343  -0.389  -0.013  0.00  0.00    -0.226 N 
ATOM      7  N   UNL     1       0.002  -0.004   0.002  0.00  0.00    -0.156 NA
ATOM      8  C   UNL     1      -0.016   1.305   0.009  0.00  0.00    +0.247 A 
ATOM      9  N   UNL     1       1.241   1.762  -0.000  0.00  0.00    -0.202 NA
ATOM     10  H   UNL     1       3.974   1.551  -0.206  0.00  0.00    +0.149 HD
ENDROOT
BRANCH   1  14
ATOM     11  C   UNL     1      -0.325  -4.222  -2.677  0.00  0.00    -0.045 A 
ATOM     12  C   UNL     1      -0.220  -4.554  -1.339  0.00  0.00    +0.004 A 
ATOM     13  C   UNL     1       0.506  -3.749  -0.482  0.00  0.00    +0.006 A 
ATOM     14  C   UNL     1       1.128  -2.611  -0.963  0.00  0.00    -0.023 A 
ATOM     15  C   UNL     1       1.018  -2.276  -2.300  0.00  0.00    +0.006 A 
ATOM     16  C   UNL     1       0.295  -3.084  -3.158  0.00  0.00    +0.004 A 
BRANCH  11  18
ATOM     17  C   UNL     1      -2.258  -4.291  -4.229  0.00  0.00    +0.012 C 
ATOM     18  C   UNL     1      -1.116  -5.101  -3.612  0.00  0.00    +0.013 C 
ATOM     19  C   UNL     1      -0.200  -5.619  -4.722  0.00  0.00    +0.012 C 
ENDBRANCH  11  18
ENDBRANCH   1  14
BRANCH   3  20
ATOM     20  C   UNL     1       5.551  -0.499  -0.179  0.00  0.00    -0.027 A 
ATOM     21  C   UNL     1       5.895   0.142  -1.354  0.00  0.00    +0.005 A 
ATOM     22  C   UNL     1       7.217   0.189  -1.755  0.00  0.00    +0.000 A 
ATOM     23  C   UNL     1       8.194  -0.413  -0.984  0.00  0.00    +0.000 A 
ATOM     24  C   UNL     1       7.849  -1.059   0.189  0.00  0.00    +0.000 A 
ATOM     25  C   UNL     1       6.527  -1.101   0.591  0.00  0.00    +0.005 A 
ENDBRANCH   3  20
TORSDOF 3
