REMARK  Name = ZINC09478000
REMARK  5 active torsions:
REMARK  status: ('A' for Active; 'I' for Inactive)
REMARK    1  A    between atoms: C_6  and  C_7
REMARK    2  A    between atoms: C_7  and  C_8
REMARK    3  A    between atoms: C_7  and  N_56
REMARK    4  A    between atoms: N_17  and  C_20
REMARK    5  A    between atoms: C_25  and  N_26
REMARK                            x       y       z     vdW  Elec       q    Type
REMARK                         _______ _______ _______ _____ _____    ______ ____
ROOT
ATOM      1  C   UNL     1      -0.088   1.533   0.077  0.00  0.00    -0.058 C 
ATOM      2  C   UNL     1      -0.076   0.002   0.064  0.00  0.00    +0.086 C 
ATOM      3  N   UNL     1       0.751  -0.488   1.176  0.00  0.00    -0.332 N 
ATOM      4  C   UNL     1       2.129   0.011   1.063  0.00  0.00    +0.086 C 
ATOM      5  C   UNL     1       2.116   1.542   1.075  0.00  0.00    -0.058 C 
ATOM      6  N   UNL     1       1.300   2.021  -0.059  0.00  0.00    +0.389 N 
ATOM      7  H   UNL     1       1.697   1.658  -0.934  0.00  0.00    -0.080 HD
ENDROOT
BRANCH   3   8
ATOM      8  C   UNL     1       0.728  -1.878   1.239  0.00  0.00    +0.062 A 
ATOM      9  C   UNL     1       1.259  -2.622   0.198  0.00  0.00    +0.054 A 
ATOM     10  C   UNL     1       1.234  -4.013   0.266  0.00  0.00    +0.080 A 
ATOM     11  C   UNL     1       0.665  -4.641   1.399  0.00  0.00    +0.067 A 
ATOM     12  C   UNL     1       0.136  -3.872   2.435  0.00  0.00    +0.050 A 
ATOM     13  C   UNL     1       0.174  -2.510   2.355  0.00  0.00    +0.148 A 
ATOM     14  C   UNL     1       0.654  -6.109   1.438  0.00  0.00    +0.259 A 
ATOM     15  O   UNL     1       0.180  -6.712   2.384  0.00  0.00    -0.267 OA
ATOM     16  N   UNL     1       1.191  -6.765   0.384  0.00  0.00    -0.313 N 
ATOM     17  H   UNL     1       1.201  -7.735   0.377  0.00  0.00    +0.170 HD
ATOM     18  C   UNL     1       1.717  -6.080  -0.664  0.00  0.00    +0.199 A 
ATOM     19  N   UNL     1       1.742  -4.783  -0.729  0.00  0.00    -0.237 NA
BRANCH  13  20
ATOM     20  N   UNL     1      -0.382  -1.694   3.458  0.00  0.00    +0.058 N 
ATOM     21  O   UNL     1      -0.781  -2.236   4.474  0.00  0.00    -0.126 OA
ATOM     22  O   UNL     1      -0.441  -0.483   3.350  0.00  0.00    -0.126 OA
ENDBRANCH  13  20
ENDBRANCH   3   8
BRANCH   6  23
ATOM     23  C   UNL     1       1.313   3.499  -0.103  0.00  0.00    -0.007 C 
BRANCH  23  29
ATOM     24  C   UNL     1       3.706   3.291  -0.808  0.00  0.00    +0.005 A 
ATOM     25  C   UNL     1       5.016   3.732  -0.805  0.00  0.00    +0.038 A 
ATOM     26  C   UNL     1       5.364   4.858  -0.078  0.00  0.00    +0.123 A 
ATOM     27  C   UNL     1       4.399   5.543   0.641  0.00  0.00    +0.038 A 
ATOM     28  C   UNL     1       3.089   5.103   0.632  0.00  0.00    +0.005 A 
ATOM     29  C   UNL     1       2.742   3.979  -0.095  0.00  0.00    -0.057 A 
ATOM     30  F   UNL     1       6.645   5.288  -0.070  0.00  0.00    -0.205 F 
ENDBRANCH  23  29
BRANCH  23  31
ATOM     31  C   UNL     1       0.638   3.955  -1.371  0.00  0.00    -0.057 A 
ATOM     32  C   UNL     1       0.847   3.265  -2.551  0.00  0.00    +0.005 A 
ATOM     33  C   UNL     1       0.224   3.680  -3.713  0.00  0.00    +0.038 A 
ATOM     34  C   UNL     1      -0.600   4.792  -3.698  0.00  0.00    +0.123 A 
ATOM     35  C   UNL     1      -0.804   5.485  -2.517  0.00  0.00    +0.038 A 
ATOM     36  C   UNL     1      -0.184   5.066  -1.355  0.00  0.00    +0.005 A 
ATOM     37  F   UNL     1      -1.205   5.201  -4.834  0.00  0.00    -0.205 F 
ENDBRANCH  23  31
ENDBRANCH   6  23
TORSDOF 5
