REMARK  Name = ZINC34851416
REMARK  14 active torsions:
REMARK  status: ('A' for Active; 'I' for Inactive)
REMARK    1  A    between atoms: C_1  and  C_2
REMARK    2  A    between atoms: C_2  and  O_3
REMARK    3  A    between atoms: O_3  and  C_4
REMARK    4  A    between atoms: C_4  and  C_6
REMARK    5  A    between atoms: C_13  and  C_15
REMARK    6  A    between atoms: C_15  and  C_16
REMARK    7  A    between atoms: C_22  and  C_24
REMARK    8  A    between atoms: C_24  and  N_25
REMARK    9  A    between atoms: N_25  and  C_26
REMARK   10  A    between atoms: C_26  and  C_27
REMARK   11  A    between atoms: C_27  and  C_28
REMARK   12  A    between atoms: C_27  and  C_29
REMARK   13  A    between atoms: C_30  and  C_32
REMARK   14  A    between atoms: C_37  and  C_38
REMARK                            x       y       z     vdW  Elec       q    Type
REMARK                         _______ _______ _______ _____ _____    ______ ____
ROOT
ATOM      1  C   UNL     1       6.156  -1.395  -6.357  0.00  0.00    +0.059 A 
ATOM      2  C   UNL     1       7.429  -1.496  -6.812  0.00  0.00    +0.072 A 
ATOM      3  S   UNL     1       7.493  -0.108  -7.932  0.00  0.00    -0.060 S 
ATOM      4  C   UNL     1       5.920   0.446  -7.707  0.00  0.00    +0.165 A 
ATOM      5  N   UNL     1       5.425  -0.406  -6.835  0.00  0.00    -0.229 NA
ATOM      6  N   UNL     1       5.294   1.535  -8.302  0.00  0.00    -0.263 N 
ATOM      7  C   UNL     1       5.966   2.298  -9.186  0.00  0.00    +0.236 C 
ATOM      8  O   UNL     1       7.117   2.035  -9.463  0.00  0.00    -0.274 OA
ATOM      9  H   UNL     1       4.373   1.746  -8.081  0.00  0.00    +0.157 HD
ENDROOT
BRANCH   1  10
ATOM     10  C   UNL     1       5.599  -2.372  -5.354  0.00  0.00    +0.152 C 
BRANCH  10  17
ATOM     11  C   UNL     1       2.530  -2.012  -1.734  0.00  0.00    +0.115 C 
ATOM     12  C   UNL     1       2.479  -3.536  -1.607  0.00  0.00    +0.018 C 
ATOM     13  C   UNL     1       2.973  -4.174  -2.908  0.00  0.00    +0.020 C 
ATOM     14  C   UNL     1       4.426  -3.758  -3.156  0.00  0.00    +0.108 C 
ATOM     15  N   UNL     1       4.508  -2.291  -3.135  0.00  0.00    -0.300 N 
ATOM     16  C   UNL     1       3.978  -1.570  -1.970  0.00  0.00    +0.122 C 
ATOM     17  C   UNL     1       5.060  -1.619  -4.165  0.00  0.00    +0.221 C 
ATOM     18  O   UNL     1       5.121  -0.408  -4.135  0.00  0.00    -0.275 OA
BRANCH  11  19
ATOM     19  C   UNL     1       2.014  -1.384  -0.465  0.00  0.00    +0.312 C 
ATOM     20  O   UNL     1       1.641  -2.084   0.447  0.00  0.00    -0.250 OA
BRANCH  19  21
ATOM     21  O   UNL     1       1.967  -0.048  -0.347  0.00  0.00    -0.465 OA
BRANCH  21  23
ATOM     22  C   UNL     1       1.488   2.007   0.831  0.00  0.00    +0.048 C 
ATOM     23  C   UNL     1       1.466   0.478   0.883  0.00  0.00    +0.229 C 
ENDBRANCH  21  23
ENDBRANCH  19  21
ENDBRANCH  11  19
ENDBRANCH  10  17
ENDBRANCH   1  10
BRANCH   7  24
ATOM     24  C   UNL     1       5.288   3.479  -9.831  0.00  0.00    +0.204 C 
BRANCH  24  25
ATOM     25  N   UNL     1       6.222   4.141 -10.745  0.00  0.00    -0.288 N 
ATOM     26  C   UNL     1       7.019   5.131 -10.294  0.00  0.00    +0.247 C 
ATOM     27  O   UNL     1       7.734   5.736 -11.069  0.00  0.00    -0.270 OA
BRANCH  26  28
ATOM     28  C   UNL     1       7.022   5.481  -8.858  0.00  0.00    +0.040 A 
ATOM     29  C   UNL     1       5.838   5.867  -8.228  0.00  0.00    +0.013 A 
ATOM     30  C   UNL     1       5.848   6.192  -6.887  0.00  0.00    +0.001 A 
ATOM     31  C   UNL     1       7.029   6.136  -6.167  0.00  0.00    +0.000 A 
ATOM     32  C   UNL     1       8.205   5.754  -6.786  0.00  0.00    +0.004 A 
ATOM     33  C   UNL     1       8.208   5.421  -8.125  0.00  0.00    -0.038 A 
ATOM     34  C   UNL     1       9.490   4.999  -8.796  0.00  0.00    +0.044 C 
ENDBRANCH  26  28
BRANCH  25  35
ATOM     35  C   UNL     1       6.292   3.726 -12.148  0.00  0.00    +0.111 C 
BRANCH  35  36
ATOM     36  C   UNL     1       5.202   4.444 -12.947  0.00  0.00    +0.000 C 
ATOM     37  C   UNL     1       5.488   5.947 -12.961  0.00  0.00    +0.009 C 
ATOM     38  C   UNL     1       5.188   3.914 -14.382  0.00  0.00    +0.009 C 
ENDBRANCH  35  36
ENDBRANCH  25  35
ENDBRANCH  24  25
ENDBRANCH   7  24
TORSDOF 10
