REMARK  Name = ZINC38705490
REMARK  13 active torsions:
REMARK  status: ('A' for Active; 'I' for Inactive)
REMARK    1  A    between atoms: C_1  and  C_2
REMARK    2  A    between atoms: C_4  and  C_39
REMARK    3  A    between atoms: C_5  and  C_9
REMARK    4  A    between atoms: C_6  and  O_8
REMARK    5  A    between atoms: N_17  and  C_27
REMARK    6  A    between atoms: C_18  and  C_20
REMARK    7  A    between atoms: C_24  and  O_26
REMARK    8  A    between atoms: C_27  and  C_28
REMARK    9  A    between atoms: C_28  and  C_29
REMARK   10  A    between atoms: C_32  and  O_37
REMARK   11  A    between atoms: C_33  and  O_35
REMARK   12  A    between atoms: O_35  and  C_36
REMARK   13  A    between atoms: O_37  and  C_38
REMARK                            x       y       z     vdW  Elec       q    Type
REMARK                         _______ _______ _______ _____ _____    ______ ____
ROOT
ATOM      1  C   UNL     1       0.104  -4.354  -0.124  0.00  0.00    +0.102 A 
ATOM      2  C   UNL     1       0.198  -5.154   1.019  0.00  0.00    +0.035 A 
ATOM      3  C   UNL     1       0.167  -6.460   0.568  0.00  0.00    +0.126 A 
ATOM      4  N   UNL     1       0.059  -6.389  -0.792  0.00  0.00    -0.272 N 
ATOM      5  H   UNL     1       0.014  -7.154  -1.387  0.00  0.00    +0.189 HD
ATOM      6  N   UNL     1       0.018  -5.160  -1.164  0.00  0.00    -0.173 NA
ATOM      7  C   UNL     1       0.263  -7.356   1.726  0.00  0.00    +0.265 C 
ATOM      8  O   UNL     1       0.262  -8.570   1.666  0.00  0.00    -0.268 OA
ATOM      9  N   UNL     1       0.350  -6.643   2.864  0.00  0.00    -0.285 N 
ATOM     10  C   UNL     1       0.318  -5.216   2.517  0.00  0.00    +0.141 C 
ENDROOT
BRANCH   1  15
ATOM     11  C   UNL     1       0.073   1.408  -0.267  0.00  0.00    +0.044 C 
ATOM     12  C   UNL     1       0.079  -0.099  -0.228  0.00  0.00    -0.047 A 
ATOM     13  C   UNL     1       0.938  -0.806  -1.051  0.00  0.00    +0.007 A 
ATOM     14  C   UNL     1       0.950  -2.186  -1.021  0.00  0.00    -0.037 A 
ATOM     15  C   UNL     1       0.095  -2.870  -0.160  0.00  0.00    +0.047 A 
ATOM     16  C   UNL     1      -0.771  -2.153   0.670  0.00  0.00    +0.127 A 
ATOM     17  C   UNL     1      -0.769  -0.768   0.635  0.00  0.00    +0.049 A 
ATOM     18  C   UNL     1       1.886  -2.952  -1.920  0.00  0.00    +0.044 C 
BRANCH  16  19
ATOM     19  O   UNL     1      -1.608  -2.812   1.514  0.00  0.00    -0.506 OA
ATOM     20  H   UNL     1      -1.264  -2.911   2.412  0.00  0.00    +0.292 HD
ENDBRANCH  16  19
ENDBRANCH   1  15
BRANCH  10  21
ATOM     21  C   UNL     1       1.591  -4.544   2.964  0.00  0.00    -0.019 A 
ATOM     22  C   UNL     1       2.813  -5.137   2.705  0.00  0.00    +0.006 A 
ATOM     23  C   UNL     1       3.982  -4.524   3.114  0.00  0.00    +0.004 A 
ATOM     24  C   UNL     1       3.932  -3.315   3.783  0.00  0.00    +0.045 A 
ATOM     25  C   UNL     1       2.708  -2.718   4.043  0.00  0.00    +0.117 A 
ATOM     26  C   UNL     1       1.536  -3.333   3.627  0.00  0.00    +0.051 A 
BRANCH  25  27
ATOM     27  O   UNL     1       2.656  -1.530   4.700  0.00  0.00    -0.507 OA
ATOM     28  H   UNL     1       2.686  -0.757   4.120  0.00  0.00    +0.292 HD
ENDBRANCH  25  27
ENDBRANCH  10  21
BRANCH   9  29
ATOM     29  C   UNL     1       0.459  -7.196   4.216  0.00  0.00    +0.114 C 
BRANCH  29  30
ATOM     30  C   UNL     1       1.934  -7.383   4.574  0.00  0.00    +0.054 C 
BRANCH  30  31
ATOM     31  C   UNL     1       2.046  -7.951   5.965  0.00  0.00    -0.042 A 
ATOM     32  C   UNL     1       2.123  -7.101   7.053  0.00  0.00    +0.007 A 
ATOM     33  C   UNL     1       2.225  -7.618   8.331  0.00  0.00    +0.049 A 
ATOM     34  C   UNL     1       2.250  -8.990   8.524  0.00  0.00    +0.161 A 
ATOM     35  C   UNL     1       2.172  -9.845   7.429  0.00  0.00    +0.162 A 
ATOM     36  C   UNL     1       2.065  -9.321   6.151  0.00  0.00    +0.053 A 
BRANCH  35  37
ATOM     37  O   UNL     1       2.197 -11.192   7.614  0.00  0.00    -0.491 OA
ATOM     38  C   UNL     1       2.113 -12.009   6.444  0.00  0.00    +0.277 C 
ENDBRANCH  35  37
BRANCH  34  39
ATOM     39  O   UNL     1       2.351  -9.499   9.781  0.00  0.00    -0.491 OA
ATOM     40  C   UNL     1       2.428  -8.562  10.857  0.00  0.00    +0.277 C 
ENDBRANCH  34  39
ENDBRANCH  30  31
ENDBRANCH  29  30
ENDBRANCH   9  29
TORSDOF 9
