REMARK  Name = ZINC67158095
REMARK  5 active torsions:
REMARK  status: ('A' for Active; 'I' for Inactive)
REMARK    1  A    between atoms: C_1  and  C_2
REMARK    2  A    between atoms: C_9  and  C_11
REMARK    3  A    between atoms: C_18  and  C_20
REMARK    4  A    between atoms: C_23  and  C_25
REMARK    5  A    between atoms: N_28  and  C_30
REMARK                            x       y       z     vdW  Elec       q    Type
REMARK                         _______ _______ _______ _____ _____    ______ ____
ROOT
ATOM      1  C   UNL     1       0.090  -5.594   2.249  0.00  0.00    +0.072 C 
ATOM      2  C   UNL     1       0.922  -5.482   3.529  0.00  0.00    +0.014 C 
ATOM      3  C   UNL     1       0.972  -6.843   4.227  0.00  0.00    +0.020 C 
ATOM      4  C   UNL     1      -0.449  -7.270   4.609  0.00  0.00    +0.108 C 
ATOM      5  N   UNL     1      -1.291  -7.239   3.406  0.00  0.00    -0.301 N 
ATOM      6  C   UNL     1      -1.341  -6.006   2.608  0.00  0.00    +0.119 C 
ATOM      7  C   UNL     1      -2.005  -8.322   3.040  0.00  0.00    +0.219 C 
ATOM      8  O   UNL     1      -2.697  -8.284   2.045  0.00  0.00    -0.275 OA
ENDROOT
BRANCH   1  17
ATOM      9  C   UNL     1      -0.018   1.503   0.010  0.00  0.00    +0.044 C 
ATOM     10  C   UNL     1       0.002  -0.004   0.002  0.00  0.00    -0.048 A 
ATOM     11  C   UNL     1       0.006  -0.687  -1.206  0.00  0.00    +0.005 A 
ATOM     12  C   UNL     1       0.024  -2.052  -1.235  0.00  0.00    +0.030 A 
ATOM     13  C   UNL     1       0.040  -2.774  -0.039  0.00  0.00    +0.089 A 
ATOM     14  C   UNL     1       0.037  -2.083   1.185  0.00  0.00    +0.066 A 
ATOM     15  C   UNL     1       0.023  -0.695   1.195  0.00  0.00    +0.031 A 
ATOM     16  N   UNL     1       0.055  -3.051   2.169  0.00  0.00    -0.342 N 
ATOM     17  C   UNL     1       0.068  -4.261   1.546  0.00  0.00    +0.113 A 
ATOM     18  N   UNL     1       0.059  -4.099   0.255  0.00  0.00    -0.232 NA
ATOM     19  H   UNL     1       0.058  -2.898   3.127  0.00  0.00    +0.167 HD
ENDBRANCH   1  17
BRANCH   7  20
ATOM     20  C   UNL     1      -1.944  -9.580   3.868  0.00  0.00    +0.083 C 
ATOM     21  C   UNL     1      -1.253 -10.798   3.252  0.00  0.00    +0.022 C 
ATOM     22  C   UNL     1      -2.776 -10.775   3.399  0.00  0.00    +0.035 C 
BRANCH  22  23
ATOM     23  C   UNL     1      -3.594 -10.605   2.145  0.00  0.00    -0.006 A 
ATOM     24  C   UNL     1      -3.097 -10.302   0.873  0.00  0.00    +0.138 A 
ATOM     25  N   UNL     1      -4.107 -10.236   0.044  0.00  0.00    -0.180 NA
ATOM     26  N   UNL     1      -5.281 -10.495   0.764  0.00  0.00    -0.274 N 
ATOM     27  C   UNL     1      -4.938 -10.723   2.049  0.00  0.00    +0.112 A 
ATOM     28  C   UNL     1      -6.639 -10.519   0.216  0.00  0.00    +0.172 C 
ENDBRANCH  22  23
ENDBRANCH   7  20
TORSDOF 3
