REMARK  Name = ZINC38995007
REMARK  8 active torsions:
REMARK  status: ('A' for Active; 'I' for Inactive)
REMARK    1  A    between atoms: C_1  and  O_2
REMARK    2  A    between atoms: O_2  and  C_3
REMARK    3  A    between atoms: C_6  and  C_9
REMARK    4  A    between atoms: C_11  and  C_15
REMARK    5  A    between atoms: C_19  and  S_23
REMARK    6  A    between atoms: N_21  and  N_22
REMARK    7  A    between atoms: S_23  and  C_24
REMARK    8  A    between atoms: C_24  and  C_25
REMARK                            x       y       z     vdW  Elec       q    Type
REMARK                         _______ _______ _______ _____ _____    ______ ____
ROOT
ATOM      1  C   UNL     1      -7.093  -4.892  -1.204  0.00  0.00    +0.244 C 
ATOM      2  N   UNL     1      -6.522  -6.245  -1.233  0.00  0.00    -0.167 NA
ATOM      3  N   UNL     1      -7.376  -7.083  -1.540  0.00  0.00    -0.159 NA
ATOM      4  C   UNL     1      -8.681  -6.452  -1.775  0.00  0.00    +0.272 C 
ATOM      5  N   UNL     1      -8.563  -5.099  -1.170  0.00  0.00    -0.183 NA
ENDROOT
BRANCH   1   8
ATOM      6  C   UNL     1      -4.960  -2.626   0.035  0.00  0.00    +0.091 C 
ATOM      7  C   UNL     1      -5.124  -3.963   0.038  0.00  0.00    +0.035 C 
ATOM      8  C   UNL     1      -6.631  -4.145   0.048  0.00  0.00    +0.195 C 
ATOM      9  N   UNL     1      -7.136  -2.762   0.049  0.00  0.00    -0.176 NA
ATOM     10  N   UNL     1      -6.166  -2.000   0.047  0.00  0.00    -0.154 NA
BRANCH   6  14
ATOM     11  C   UNL     1      -1.198  -0.641   0.010  0.00  0.00    +0.120 A 
ATOM     12  C   UNL     1      -2.372   0.100   0.021  0.00  0.00    +0.046 A 
ATOM     13  C   UNL     1      -3.593  -0.541   0.029  0.00  0.00    +0.013 A 
ATOM     14  C   UNL     1      -3.648  -1.934   0.026  0.00  0.00    +0.002 A 
ATOM     15  C   UNL     1      -2.467  -2.675   0.015  0.00  0.00    +0.013 A 
ATOM     16  C   UNL     1      -1.249  -2.029   0.002  0.00  0.00    +0.046 A 
BRANCH  11  18
ATOM     17  C   UNL     1      -0.016   1.421   0.011  0.00  0.00    +0.277 C 
ATOM     18  O   UNL     1       0.004  -0.007   0.002  0.00  0.00    -0.495 OA
ENDBRANCH  11  18
ENDBRANCH   6  14
ENDBRANCH   1   8
BRANCH   5  19
ATOM     19  N   UNL     1      -9.058  -5.096   0.197  0.00  0.00    -0.263 NA
ATOM     20  H   UNL     1     -10.057  -5.237   0.221  0.00  0.00    +0.137 HD
ATOM     21  H   UNL     1      -8.582  -5.788   0.756  0.00  0.00    +0.137 HD
ENDBRANCH   5  19
BRANCH   4  22
ATOM     22  S   UNL     1      -9.007  -6.321  -3.555  0.00  0.00    -0.107 S 
BRANCH  22  23
ATOM     23  C   UNL     1      -7.620  -5.336  -4.185  0.00  0.00    +0.168 C 
BRANCH  23  24
ATOM     24  C   UNL     1      -7.770  -5.151  -5.673  0.00  0.00    +0.228 C 
ATOM     25  O   UNL     1      -8.720  -5.635  -6.251  0.00  0.00    -0.275 OA
ATOM     26  N   UNL     1      -6.849  -4.447  -6.360  0.00  0.00    -0.270 N 
ATOM     27  C   UNL     1      -6.930  -4.364  -7.750  0.00  0.00    +0.125 A 
ATOM     28  C   UNL     1      -5.920  -3.726  -8.461  0.00  0.00    +0.045 A 
ATOM     29  C   UNL     1      -6.012  -3.651  -9.840  0.00  0.00    +0.020 A 
ATOM     30  C   UNL     1      -7.117  -4.219 -10.462  0.00  0.00    +0.036 A 
ATOM     31  C   UNL     1      -8.082  -4.838  -9.692  0.00  0.00    +0.128 A 
ATOM     32  N   UNL     1      -7.965  -4.898  -8.379  0.00  0.00    -0.239 NA
ATOM     33 BR   UNL     1      -7.296  -4.147 -12.343  0.00  0.00    -0.049 Br
ATOM     34  H   UNL     1      -6.131  -3.998  -5.889  0.00  0.00    +0.156 HD
ENDBRANCH  23  24
ENDBRANCH  22  23
ENDBRANCH   4  22
TORSDOF 7
