REMARK  Name = ZINC03414312
REMARK  7 active torsions:
REMARK  status: ('A' for Active; 'I' for Inactive)
REMARK    1  A    between atoms: C_1  and  C_2
REMARK    2  A    between atoms: C_4  and  C_18
REMARK    3  A    between atoms: C_5  and  C_17
REMARK    4  A    between atoms: N_6  and  C_7
REMARK    5  A    between atoms: C_7  and  C_8
REMARK    6  A    between atoms: C_18  and  C_20
REMARK    7  A    between atoms: C_20  and  N_21
REMARK                            x       y       z     vdW  Elec       q    Type
REMARK                         _______ _______ _______ _____ _____    ______ ____
ROOT
ATOM      1  C   UNL     1       2.772  -3.727  -4.511  0.00  0.00    +0.183 C 
ATOM      2  O   UNL     1       3.978  -3.672  -4.396  0.00  0.00    -0.290 OA
ENDROOT
BRANCH   1   6
ATOM      3  C   UNL     1      -1.327  -2.796  -1.631  0.00  0.00    +0.063 C 
ATOM      4  C   UNL     1       0.088  -2.941  -2.129  0.00  0.00    +0.017 A 
ATOM      5  C   UNL     1       0.442  -3.357  -3.357  0.00  0.00    +0.034 A 
ATOM      6  C   UNL     1       1.911  -3.348  -3.388  0.00  0.00    +0.040 A 
ATOM      7  C   UNL     1       2.314  -2.910  -2.141  0.00  0.00    +0.027 A 
ATOM      8  N   UNL     1       1.213  -2.669  -1.406  0.00  0.00    -0.343 N 
ATOM      9  C   UNL     1       3.739  -2.733  -1.684  0.00  0.00    +0.064 C 
BRANCH   8  10
ATOM     10  C   UNL     1       1.222  -2.189  -0.022  0.00  0.00    +0.157 C 
BRANCH  10  11
ATOM     11  C   UNL     1       1.207  -0.682  -0.013  0.00  0.00    -0.024 A 
ATOM     12  C   UNL     1       0.002  -0.004   0.002  0.00  0.00    +0.009 A 
ATOM     13  C   UNL     1      -0.017   1.378   0.010  0.00  0.00    +0.050 A 
ATOM     14  C   UNL     1       1.173   2.088   0.002  0.00  0.00    +0.166 A 
ATOM     15  C   UNL     1       2.387   1.405  -0.014  0.00  0.00    +0.167 A 
ATOM     16  C   UNL     1       2.398   0.019  -0.021  0.00  0.00    +0.055 A 
ATOM     17  O   UNL     1       3.401   2.318  -0.019  0.00  0.00    -0.453 OA
ATOM     18  C   UNL     1       2.797   3.562  -0.418  0.00  0.00    +0.466 C 
ATOM     19  O   UNL     1       1.427   3.429   0.007  0.00  0.00    -0.453 OA
ENDBRANCH  10  11
ENDBRANCH   8  10
ENDBRANCH   1   6
BRANCH   1  20
ATOM     20  C   UNL     1       2.159  -4.186  -5.809  0.00  0.00    +0.197 C 
BRANCH  20  21
ATOM     21  N   UNL     1       3.222  -4.504  -6.766  0.00  0.00    -0.216 N 
ATOM     22  C   UNL     1       3.786  -5.724  -6.895  0.00  0.00    +0.251 C 
ATOM     23  O   UNL     1       3.522  -6.726  -6.266  0.00  0.00    -0.272 OA
ATOM     24  C   UNL     1       4.816  -5.575  -7.987  0.00  0.00    +0.139 C 
ATOM     25  C   UNL     1       6.211  -5.898  -7.473  0.00  0.00    +0.040 C 
ATOM     26  C   UNL     1       7.212  -5.897  -8.633  0.00  0.00    +0.008 C 
ATOM     27  C   UNL     1       6.920  -7.099  -9.543  0.00  0.00    +0.043 C 
ATOM     28  C   UNL     1       5.453  -7.142  -9.822  0.00  0.00    -0.005 A 
ATOM     29  C   UNL     1       4.465  -6.479  -9.157  0.00  0.00    -0.005 A 
ATOM     30  C   UNL     1       3.164  -6.686  -9.612  0.00  0.00    +0.014 A 
ATOM     31  C   UNL     1       2.934  -7.507 -10.662  0.00  0.00    +0.046 A 
ATOM     32  S   UNL     1       4.587  -8.047 -11.074  0.00  0.00    -0.101 S 
ATOM     33  N   UNL     1       4.714  -4.169  -8.392  0.00  0.00    -0.281 N 
ATOM     34  C   UNL     1       3.751  -3.623  -7.624  0.00  0.00    +0.310 C 
ATOM     35  O   UNL     1       3.403  -2.461  -7.700  0.00  0.00    -0.252 OA
ATOM     36  H   UNL     1       5.233  -3.723  -9.079  0.00  0.00    +0.152 HD
ENDBRANCH  20  21
ENDBRANCH   1  20
TORSDOF 5
