REMARK  Name = ZINC63351414
REMARK  3 active torsions:
REMARK  status: ('A' for Active; 'I' for Inactive)
REMARK    1  A    between atoms: C_4  and  C_7
REMARK    2  A    between atoms: N_26  and  N_29
REMARK    3  A    between atoms: C_30  and  C_31
REMARK                            x       y       z     vdW  Elec       q    Type
REMARK                         _______ _______ _______ _____ _____    ______ ____
ROOT
ATOM      1  C   UNL     1       3.794  -0.672  -0.038  0.00  0.00    +0.133 C 
ATOM      2  C   UNL     1       4.094  -1.109  -1.471  0.00  0.00    +0.131 C 
ATOM      3  C   UNL     1       5.190  -2.167  -1.365  0.00  0.00    -0.034 C 
ATOM      4  C   UNL     1       6.237  -1.700  -2.030  0.00  0.00    -0.001 A 
ATOM      5  C   UNL     1       7.564  -2.278  -2.298  0.00  0.00    +0.010 A 
ATOM      6  C   UNL     1       8.417  -1.510  -3.026  0.00  0.00    +0.001 A 
ATOM      7  C   UNL     1       8.087  -0.240  -3.508  0.00  0.00    +0.002 A 
ATOM      8  C   UNL     1       6.891   0.368  -3.311  0.00  0.00    +0.026 A 
ATOM      9  C   UNL     1       5.909  -0.342  -2.560  0.00  0.00    +0.043 A 
ATOM     10  N   UNL     1       4.678   0.001  -2.236  0.00  0.00    -0.375 N 
ATOM     11  C   UNL     1       4.975  -3.436  -0.586  0.00  0.00    +0.065 C 
ATOM     12  C   UNL     1       4.236  -3.133   0.691  0.00  0.00    +0.169 C 
ATOM     13  N   UNL     1       3.679  -1.809   0.864  0.00  0.00    -0.279 N 
ATOM     14  C   UNL     1       3.007  -1.603   2.044  0.00  0.00    +0.236 C 
ATOM     15  O   UNL     1       2.440  -0.557   2.278  0.00  0.00    -0.274 OA
ATOM     16  C   UNL     1       3.009  -2.744   3.040  0.00  0.00    +0.230 C 
ATOM     17  N   UNL     1       4.373  -3.299   3.112  0.00  0.00    -0.183 N 
ATOM     18  C   UNL     1       5.008  -3.524   1.926  0.00  0.00    +0.256 C 
ATOM     19  O   UNL     1       6.118  -4.009   1.868  0.00  0.00    -0.272 OA
ATOM     20  H   UNL     1       4.231   0.834  -2.455  0.00  0.00    +0.160 HD
ENDROOT
BRANCH   1  24
ATOM     21  C   UNL     1       0.126   1.517   0.008  0.00  0.00    +0.000 A 
ATOM     22  C   UNL     1       1.333   2.191   0.001  0.00  0.00    +0.000 A 
ATOM     23  C   UNL     1       2.520   1.482  -0.013  0.00  0.00    +0.005 A 
ATOM     24  C   UNL     1       2.500   0.100  -0.021  0.00  0.00    -0.025 A 
ATOM     25  C   UNL     1       1.293  -0.574  -0.013  0.00  0.00    +0.005 A 
ATOM     26  C   UNL     1       0.106   0.135   0.000  0.00  0.00    +0.000 A 
ENDBRANCH   1  24
BRANCH  17  27
ATOM     27  N   UNL     1       4.988  -3.581   4.339  0.00  0.00    -0.184 NA
ATOM     28  C   UNL     1       4.388  -3.280   5.450  0.00  0.00    +0.141 C 
BRANCH  28  29
ATOM     29  C   UNL     1       5.087  -3.456   6.736  0.00  0.00    +0.031 A 
ATOM     30  C   UNL     1       6.398  -3.940   6.763  0.00  0.00    +0.051 A 
ATOM     31  C   UNL     1       7.046  -4.101   7.972  0.00  0.00    +0.021 A 
ATOM     32  C   UNL     1       6.401  -3.785   9.154  0.00  0.00    +0.003 A 
ATOM     33  C   UNL     1       5.103  -3.305   9.136  0.00  0.00    +0.021 A 
ATOM     34  C   UNL     1       4.444  -3.133   7.935  0.00  0.00    +0.051 A 
ATOM     35 CL   UNL     1       2.818  -2.524   7.914  0.00  0.00    -0.083 Cl
ATOM     36 CL   UNL     1       7.209  -4.338   5.281  0.00  0.00    -0.083 Cl
ENDBRANCH  28  29
ENDBRANCH  17  27
TORSDOF 3
