REMARK  Name = ZINC16180575
REMARK  7 active torsions:
REMARK  status: ('A' for Active; 'I' for Inactive)
REMARK    1  A    between atoms: C_5  and  N_7
REMARK    2  A    between atoms: N_12  and  C_15
REMARK    3  A    between atoms: C_15  and  C_16
REMARK    4  A    between atoms: N_18  and  C_19
REMARK    5  A    between atoms: C_19  and  C_20
REMARK    6  A    between atoms: C_23  and  O_26
REMARK    7  A    between atoms: O_26  and  C_27
REMARK                            x       y       z     vdW  Elec       q    Type
REMARK                         _______ _______ _______ _____ _____    ______ ____
ROOT
ATOM      1  C   UNL     1      -1.646  -1.112  -1.356  0.00  0.00    +0.231 C 
ATOM      2  O   UNL     1      -1.041  -0.600  -2.274  0.00  0.00    -0.274 OA
ATOM      3  N   UNL     1      -2.725  -1.881  -1.606  0.00  0.00    -0.310 N 
ATOM      4  H   UNL     1      -3.209  -2.290  -0.872  0.00  0.00    +0.149 HD
ENDROOT
BRANCH   1   5
ATOM      5  C   UNL     1      -1.192  -0.890   0.063  0.00  0.00    +0.212 C 
BRANCH   5  14
ATOM      6  C   UNL     1       3.284   3.231   0.124  0.00  0.00    +0.003 A 
ATOM      7  C   UNL     1       1.905   3.093   0.163  0.00  0.00    +0.014 A 
ATOM      8  C   UNL     1       1.340   1.829   0.117  0.00  0.00    +0.052 A 
ATOM      9  C   UNL     1       2.170   0.693   0.030  0.00  0.00    +0.080 A 
ATOM     10  C   UNL     1       3.546   0.846  -0.009  0.00  0.00    +0.139 A 
ATOM     11  C   UNL     1       4.098   2.117   0.038  0.00  0.00    +0.033 A 
ATOM     12  C   UNL     1       1.259  -0.471   0.001  0.00  0.00    +0.256 C 
ATOM     13  O   UNL     1       1.599  -1.635  -0.071  0.00  0.00    -0.269 OA
ATOM     14  N   UNL     1      -0.008  -0.026   0.067  0.00  0.00    -0.225 N 
ATOM     15  C   UNL     1      -0.046   1.317   0.138  0.00  0.00    +0.254 C 
ATOM     16  O   UNL     1      -1.052   1.995   0.203  0.00  0.00    -0.270 OA
BRANCH  10  17
ATOM     17  N   UNL     1       4.424  -0.342  -0.099  0.00  0.00    +0.057 N 
ATOM     18  O   UNL     1       5.634  -0.205  -0.133  0.00  0.00    -0.126 OA
ATOM     19  O   UNL     1       3.937  -1.458  -0.140  0.00  0.00    -0.126 OA
ENDBRANCH  10  17
ENDBRANCH   5  14
ENDBRANCH   1   5
BRANCH   3  20
ATOM     20  C   UNL     1      -3.167  -2.097  -2.986  0.00  0.00    +0.139 C 
BRANCH  20  21
ATOM     21  C   UNL     1      -4.384  -2.985  -2.990  0.00  0.00    -0.030 A 
ATOM     22  C   UNL     1      -4.236  -4.358  -3.072  0.00  0.00    +0.009 A 
ATOM     23  C   UNL     1      -5.350  -5.175  -3.071  0.00  0.00    +0.046 A 
ATOM     24  C   UNL     1      -6.619  -4.616  -2.998  0.00  0.00    +0.128 A 
ATOM     25  C   UNL     1      -6.764  -3.239  -2.921  0.00  0.00    +0.046 A 
ATOM     26  C   UNL     1      -5.647  -2.426  -2.918  0.00  0.00    +0.009 A 
BRANCH  24  27
ATOM     27  O   UNL     1      -7.716  -5.417  -3.001  0.00  0.00    -0.456 OA
BRANCH  27  28
ATOM     28  C   UNL     1      -8.541  -5.365  -4.079  0.00  0.00    +0.129 A 
ATOM     29  C   UNL     1      -8.191  -4.605  -5.186  0.00  0.00    +0.049 A 
ATOM     30  C   UNL     1      -9.027  -4.558  -6.284  0.00  0.00    +0.042 A 
ATOM     31  C   UNL     1     -10.221  -5.259  -6.276  0.00  0.00    +0.124 A 
ATOM     32  C   UNL     1     -10.575  -6.013  -5.170  0.00  0.00    +0.042 A 
ATOM     33  C   UNL     1      -9.738  -6.067  -4.073  0.00  0.00    +0.049 A 
ATOM     34  F   UNL     1     -11.041  -5.208  -7.348  0.00  0.00    -0.205 F 
ENDBRANCH  27  28
ENDBRANCH  24  27
ENDBRANCH  20  21
ENDBRANCH   3  20
TORSDOF 7
