REMARK  Name = ZINC60370566
REMARK  3 active torsions:
REMARK  status: ('A' for Active; 'I' for Inactive)
REMARK    1  A    between atoms: C_5  and  N_7
REMARK    2  A    between atoms: N_10  and  C_11
REMARK    3  A    between atoms: C_17  and  O_19
REMARK                            x       y       z     vdW  Elec       q    Type
REMARK                         _______ _______ _______ _____ _____    ______ ____
ROOT
ATOM      1  N   UNL     1       1.237  -2.080  -0.021  0.00  0.00    -0.269 N 
ATOM      2  C   UNL     1       0.086  -2.773   0.088  0.00  0.00    +0.304 C 
ATOM      3  O   UNL     1      -0.978  -2.186   0.102  0.00  0.00    -0.252 OA
ATOM      4  N   UNL     1       0.115  -4.117   0.181  0.00  0.00    -0.294 N 
ATOM      5  H   UNL     1       2.081  -2.551  -0.098  0.00  0.00    +0.156 HD
ATOM      6  H   UNL     1       0.964  -4.586   0.170  0.00  0.00    +0.151 HD
ENDROOT
BRANCH   1  11
ATOM      7  C   UNL     1       0.136   1.378  -0.616  0.00  0.00    +0.002 A 
ATOM      8  C   UNL     1       1.168   2.086  -0.028  0.00  0.00    +0.001 A 
ATOM      9  C   UNL     1       2.223   1.415   0.562  0.00  0.00    +0.016 A 
ATOM     10  C   UNL     1       2.249   0.034   0.566  0.00  0.00    +0.035 A 
ATOM     11  C   UNL     1       1.214  -0.681  -0.023  0.00  0.00    +0.048 A 
ATOM     12  C   UNL     1       0.156  -0.003  -0.615  0.00  0.00    +0.024 A 
ATOM     13  I   UNL     1       3.849  -0.983   1.460  0.00  0.00    -0.042 I 
ENDBRANCH   1  11
BRANCH   4  14
ATOM     14  C   UNL     1      -1.136  -4.870   0.300  0.00  0.00    +0.103 C 
ATOM     15  C   UNL     1      -1.562  -4.924   1.768  0.00  0.00    +0.025 C 
ATOM     16  C   UNL     1      -2.868  -5.710   1.892  0.00  0.00    +0.002 C 
ATOM     17  C   UNL     1      -2.658  -7.133   1.370  0.00  0.00    +0.003 C 
ATOM     18  C   UNL     1      -2.232  -7.080  -0.099  0.00  0.00    +0.033 C 
ATOM     19  C   UNL     1      -0.926  -6.293  -0.222  0.00  0.00    +0.135 C 
BRANCH  19  20
ATOM     20  O   UNL     1      -0.528  -6.243  -1.594  0.00  0.00    -0.390 OA
ATOM     21  H   UNL     1      -0.377  -7.112  -1.991  0.00  0.00    +0.210 HD
ENDBRANCH  19  20
ENDBRANCH   4  14
TORSDOF 3
