REMARK  Name = ZINC36748997
REMARK  4 active torsions:
REMARK  status: ('A' for Active; 'I' for Inactive)
REMARK    1  A    between atoms: C_1  and  C_2
REMARK    2  A    between atoms: C_3  and  N_16
REMARK    3  A    between atoms: C_4  and  N_8
REMARK    4  A    between atoms: N_5  and  C_7
REMARK                            x       y       z     vdW  Elec       q    Type
REMARK                         _______ _______ _______ _____ _____    ______ ____
ROOT
ATOM      1  C   UNL     1      -1.035   1.242   0.432  0.00  0.00    +0.069 C 
ATOM      2  C   UNL     1      -0.431  -0.116   0.183  0.00  0.00    +0.082 A 
ATOM      3  C   UNL     1      -0.759  -0.976  -0.871  0.00  0.00    +0.088 A 
ATOM      4  C   UNL     1       0.004  -2.100  -0.746  0.00  0.00    +0.140 A 
ATOM      5  N   UNL     1       0.786  -1.941   0.357  0.00  0.00    -0.252 N 
ATOM      6  N   UNL     1       0.494  -0.689   0.913  0.00  0.00    -0.173 NA
ATOM      7  C   UNL     1       1.762  -2.905   0.869  0.00  0.00    +0.174 C 
ENDROOT
BRANCH   4   8
ATOM      8  N   UNL     1      -0.013  -3.210  -1.594  0.00  0.00    -0.314 N 
ATOM      9  C   UNL     1       0.079  -3.033  -3.050  0.00  0.00    +0.106 C 
ATOM     10  C   UNL     1       1.471  -2.525  -3.403  0.00  0.00    +0.019 C 
ATOM     11  C   UNL     1       2.485  -3.669  -3.232  0.00  0.00    +0.002 C 
ATOM     12  C   UNL     1       2.798  -3.853  -1.751  0.00  0.00    +0.000 C 
ATOM     13  C   UNL     1       2.281  -5.214  -1.250  0.00  0.00    +0.002 C 
ATOM     14  C   UNL     1       0.871  -5.459  -1.785  0.00  0.00    +0.019 C 
ATOM     15  C   UNL     1      -0.115  -4.552  -1.045  0.00  0.00    +0.106 C 
ENDBRANCH   4   8
BRANCH   3  16
ATOM     16  N   UNL     1      -1.713  -0.726  -1.884  0.00  0.00    -0.354 N 
ATOM     17  H   UNL     1      -2.258   0.075  -1.850  0.00  0.00    +0.142 HD
ATOM     18  H   UNL     1      -1.821  -1.355  -2.614  0.00  0.00    +0.142 HD
ENDBRANCH   3  16
TORSDOF 2
