REMARK  Name = ZINC13034028
REMARK  11 active torsions:
REMARK  status: ('A' for Active; 'I' for Inactive)
REMARK    1  A    between atoms: C_1  and  C_2
REMARK    2  A    between atoms: C_2  and  C_3
REMARK    3  A    between atoms: C_10  and  C_15
REMARK    4  A    between atoms: C_15  and  N_66
REMARK    5  A    between atoms: C_16  and  C_17
REMARK    6  A    between atoms: C_16  and  N_66
REMARK    7  A    between atoms: C_22  and  C_24
REMARK    8  A    between atoms: C_22  and  C_26
REMARK    9  A    between atoms: C_22  and  N_66
REMARK   10  A    between atoms: C_24  and  C_25
REMARK   11  A    between atoms: N_30  and  C_31
REMARK                            x       y       z     vdW  Elec       q    Type
REMARK                         _______ _______ _______ _____ _____    ______ ____
ROOT
ATOM      1  N   UNL     1       2.748  -2.046   1.303  0.00  0.00    +0.394 N 
ATOM      2  H   UNL     1       2.493  -1.910   2.288  0.00  0.00    -0.080 HD
ENDROOT
BRANCH   1   3
ATOM      3  C   UNL     1       3.315  -3.400   1.137  0.00  0.00    -0.036 C 
BRANCH   3  11
ATOM      4  C   UNL     1       5.463  -5.346   6.603  0.00  0.00    -0.047 A 
ATOM      5  C   UNL     1       6.770  -4.916   6.420  0.00  0.00    +0.005 A 
ATOM      6  C   UNL     1       7.144  -4.283   5.254  0.00  0.00    +0.026 A 
ATOM      7  C   UNL     1       6.204  -4.070   4.251  0.00  0.00    +0.049 A 
ATOM      8  C   UNL     1       4.880  -4.508   4.441  0.00  0.00    -0.001 A 
ATOM      9  C   UNL     1       4.523  -5.149   5.632  0.00  0.00    +0.013 A 
ATOM     10  C   UNL     1       3.897  -4.274   3.382  0.00  0.00    +0.017 A 
ATOM     11  C   UNL     1       4.301  -3.651   2.248  0.00  0.00    +0.001 A 
ATOM     12  C   UNL     1       5.642  -3.232   2.107  0.00  0.00    +0.251 A 
ATOM     13  O   UNL     1       5.984  -2.670   1.081  0.00  0.00    -0.268 OA
ATOM     14  N   UNL     1       6.551  -3.438   3.076  0.00  0.00    -0.322 N 
ATOM     15  H   UNL     1       7.464  -3.137   2.947  0.00  0.00    +0.169 HD
BRANCH   4  17
ATOM     16  C   UNL     1       5.285  -7.546   7.735  0.00  0.00    +0.009 C 
ATOM     17  C   UNL     1       5.078  -6.037   7.886  0.00  0.00    +0.032 C 
ENDBRANCH   4  17
ENDBRANCH   3  11
ENDBRANCH   1   3
BRANCH   1  18
ATOM     18  C   UNL     1       3.749  -1.028   0.921  0.00  0.00    -0.002 C 
BRANCH  18  19
ATOM     19  C   UNL     1       3.253   0.328   1.356  0.00  0.00    +0.089 A 
ATOM     20  C   UNL     1       3.535   0.931   2.524  0.00  0.00    +0.042 A 
ATOM     21  C   UNL     1       2.867   2.177   2.513  0.00  0.00    +0.041 A 
ATOM     22  C   UNL     1       2.217   2.261   1.339  0.00  0.00    +0.195 A 
ATOM     23  O   UNL     1       2.459   1.140   0.639  0.00  0.00    -0.470 OA
ENDBRANCH  18  19
ENDBRANCH   1  18
BRANCH   1  24
ATOM     24  C   UNL     1       1.536  -1.900   0.469  0.00  0.00    +0.003 C 
BRANCH  24  25
ATOM     25  C   UNL     1       1.835  -2.255  -0.964  0.00  0.00    +0.138 A 
ATOM     26  N   UNL     1       2.429  -3.342  -1.393  0.00  0.00    -0.115 NA
ATOM     27  N   UNL     1       2.500  -3.276  -2.678  0.00  0.00    -0.023 NA
ATOM     28  N   UNL     1       1.966  -2.175  -3.080  0.00  0.00    -0.044 NA
ATOM     29  N   UNL     1       1.544  -1.518  -2.052  0.00  0.00    -0.228 N 
BRANCH  29  30
ATOM     30  C   UNL     1       0.874  -0.215  -2.067  0.00  0.00    +0.111 C 
ATOM     31  C   UNL     1      -0.403  -0.287  -2.930  0.00  0.00    +0.027 C 
ATOM     32  C   UNL     1      -0.457   1.088  -3.642  0.00  0.00    +0.002 C 
ATOM     33  C   UNL     1       1.033   1.371  -3.955  0.00  0.00    +0.002 C 
ATOM     34  C   UNL     1       1.787   0.839  -2.718  0.00  0.00    +0.027 C 
ENDBRANCH  29  30
ENDBRANCH  24  25
BRANCH  24  35
ATOM     35  C   UNL     1       0.449  -2.832   1.010  0.00  0.00    -0.011 C 
ATOM     36  C   UNL     1       0.060  -2.396   2.424  0.00  0.00    +0.002 C 
ENDBRANCH  24  35
ENDBRANCH   1  24
TORSDOF 9
