REMARK  Name = ZINC35191076
REMARK  13 active torsions:
REMARK  status: ('A' for Active; 'I' for Inactive)
REMARK    1  A    between atoms: C_1  and  C_2
REMARK    2  A    between atoms: C_2  and  C_3
REMARK    3  A    between atoms: C_2  and  C_4
REMARK    4  A    between atoms: C_2  and  C_5
REMARK    5  A    between atoms: C_5  and  C_6
REMARK    6  A    between atoms: C_6  and  C_7
REMARK    7  A    between atoms: C_6  and  C_8
REMARK    8  A    between atoms: C_6  and  N_9
REMARK    9  A    between atoms: N_9  and  C_10
REMARK   10  A    between atoms: C_11  and  C_19
REMARK   11  A    between atoms: C_24  and  O_25
REMARK   12  A    between atoms: O_25  and  S_26
REMARK   13  A    between atoms: S_26  and  C_29
REMARK                            x       y       z     vdW  Elec       q    Type
REMARK                         _______ _______ _______ _____ _____    ______ ____
ROOT
ATOM      1  C   UNL     1       4.947   0.386  -3.377  0.00  0.00    +0.129 A 
ATOM      2  C   UNL     1       5.848   0.386  -4.421  0.00  0.00    +0.090 A 
ATOM      3  N   UNL     1       6.989   0.953  -3.987  0.00  0.00    -0.338 N 
ATOM      4  C   UNL     1       6.845   1.309  -2.721  0.00  0.00    +0.117 A 
ATOM      5  N   UNL     1       5.575   0.972  -2.312  0.00  0.00    -0.289 N 
ATOM      6  C   UNL     1       5.166   1.239  -1.034  0.00  0.00    +0.094 A 
ATOM      7  C   UNL     1       5.997   1.839  -0.158  0.00  0.00    +0.018 A 
ATOM      8  C   UNL     1       7.300   2.198  -0.547  0.00  0.00    +0.005 A 
ATOM      9  C   UNL     1       7.725   1.932  -1.811  0.00  0.00    +0.045 A 
ATOM     10  H   UNL     1       7.790   1.081  -4.519  0.00  0.00    +0.167 HD
ENDROOT
BRANCH   2  11
ATOM     11  C   UNL     1       5.604  -0.146  -5.782  0.00  0.00    +0.046 A 
ATOM     12  C   UNL     1       6.323  -1.247  -6.243  0.00  0.00    +0.014 A 
ATOM     13  C   UNL     1       6.091  -1.739  -7.511  0.00  0.00    +0.001 A 
ATOM     14  C   UNL     1       5.146  -1.143  -8.328  0.00  0.00    +0.004 A 
ATOM     15  C   UNL     1       4.427  -0.050  -7.880  0.00  0.00    +0.049 A 
ATOM     16  C   UNL     1       4.645   0.450  -6.608  0.00  0.00    +0.166 A 
BRANCH  16  17
ATOM     17  O   UNL     1       3.934   1.521  -6.165  0.00  0.00    -0.342 OA
BRANCH  17  18
ATOM     18  S   UNL     1       4.582   2.864  -6.472  0.00  0.00    +0.153 S 
ATOM     19  O   UNL     1       3.832   3.846  -5.770  0.00  0.00    -0.131 OA
ATOM     20  O   UNL     1       5.980   2.693  -6.282  0.00  0.00    -0.131 OA
BRANCH  18  21
ATOM     21  C   UNL     1       4.341   3.178  -8.189  0.00  0.00    +0.154 A 
ATOM     22  C   UNL     1       5.260   2.750  -9.097  0.00  0.00    +0.033 A 
ATOM     23  C   UNL     1       5.089   2.988 -10.459  0.00  0.00    +0.003 A 
ATOM     24  C   UNL     1       3.995   3.656 -10.920  0.00  0.00    +0.010 A 
ATOM     25  C   UNL     1       3.027   4.111 -10.011  0.00  0.00    +0.002 A 
ATOM     26  C   UNL     1       3.196   3.866  -8.626  0.00  0.00    +0.099 A 
ATOM     27  N   UNL     1       2.274   4.294  -7.757  0.00  0.00    -0.253 NA
ATOM     28  C   UNL     1       1.205   4.937  -8.160  0.00  0.00    +0.111 A 
ATOM     29  C   UNL     1       0.975   5.206  -9.508  0.00  0.00    +0.020 A 
ATOM     30  C   UNL     1       1.883   4.806 -10.447  0.00  0.00    +0.011 A 
ENDBRANCH  18  21
ENDBRANCH  17  18
ENDBRANCH  16  17
ENDBRANCH   2  11
BRANCH   1  31
ATOM     31  N   UNL     1       3.643  -0.111  -3.403  0.00  0.00    -0.323 N 
ATOM     32  H   UNL     1       3.291  -0.506  -4.216  0.00  0.00    +0.148 HD
BRANCH  31  33
ATOM     33  C   UNL     1       2.805  -0.034  -2.204  0.00  0.00    +0.028 C 
ATOM     34  C   UNL     1       2.651   1.429  -1.782  0.00  0.00    +0.031 C 
ATOM     35  C   UNL     1       3.463  -0.824  -1.071  0.00  0.00    +0.031 C 
BRANCH  33  36
ATOM     36  C   UNL     1       1.427  -0.625  -2.505  0.00  0.00    +0.031 C 
BRANCH  36  38
ATOM     37  C   UNL     1       1.550  -1.157  -4.944  0.00  0.00    +0.010 C 
ATOM     38  C   UNL     1       0.980  -0.191  -3.903  0.00  0.00    -0.036 C 
ATOM     39  C   UNL     1       1.492   1.223  -4.185  0.00  0.00    +0.010 C 
ATOM     40  C   UNL     1      -0.548  -0.205  -3.977  0.00  0.00    +0.010 C 
ENDBRANCH  36  38
ENDBRANCH  33  36
ENDBRANCH  31  33
ENDBRANCH   1  31
TORSDOF 8
