REMARK  Name = ZINC10066247
REMARK  10 active torsions:
REMARK  status: ('A' for Active; 'I' for Inactive)
REMARK    1  A    between atoms: C_1  and  C_2
REMARK    2  A    between atoms: C_5  and  O_33
REMARK    3  A    between atoms: N_11  and  C_12
REMARK    4  A    between atoms: C_12  and  C_13
REMARK    5  A    between atoms: C_13  and  N_61
REMARK    6  A    between atoms: C_14  and  N_61
REMARK    7  A    between atoms: C_15  and  N_61
REMARK    8  A    between atoms: C_16  and  C_18
REMARK    9  A    between atoms: C_20  and  C_28
REMARK   10  A    between atoms: O_33  and  C_34
REMARK                            x       y       z     vdW  Elec       q    Type
REMARK                         _______ _______ _______ _____ _____    ______ ____
ROOT
ATOM      1  C   UNL     1      -1.505  -1.175  -0.134  0.00  0.00    +0.045 C 
ATOM      2  C   UNL     1      -0.284  -0.294  -0.057  0.00  0.00    -0.034 A 
ATOM      3  C   UNL     1      -0.422   1.081  -0.009  0.00  0.00    +0.008 A 
ATOM      4  C   UNL     1       0.713   1.876   0.062  0.00  0.00    +0.048 A 
ATOM      5  C   UNL     1       1.973   1.326   0.088  0.00  0.00    +0.147 A 
ATOM      6  C   UNL     1       2.149  -0.080   0.040  0.00  0.00    +0.122 A 
ATOM      7  C   UNL     1       0.970  -0.854  -0.033  0.00  0.00    +0.047 A 
ATOM      8  S   UNL     1       1.607  -2.512  -0.072  0.00  0.00    -0.051 S 
ATOM      9  C   UNL     1       3.341  -2.088   0.007  0.00  0.00    +0.168 A 
ATOM     10  N   UNL     1       3.307  -0.777   0.056  0.00  0.00    -0.221 NA
ATOM     11  N   UNL     1       4.442  -2.929   0.016  0.00  0.00    -0.248 N 
ATOM     12  C   UNL     1       4.270  -4.264  -0.040  0.00  0.00    +0.253 C 
ATOM     13  O   UNL     1       3.155  -4.728  -0.184  0.00  0.00    -0.270 OA
ENDROOT
BRANCH  12  14
ATOM     14  C   UNL     1       5.436  -5.165   0.073  0.00  0.00    +0.048 A 
ATOM     15  C   UNL     1       6.495  -5.089  -0.820  0.00  0.00    +0.042 A 
ATOM     16  C   UNL     1       7.587  -5.961  -0.670  0.00  0.00    +0.079 A 
ATOM     17  N   UNL     1       7.638  -6.867   0.287  0.00  0.00    -0.246 NA
ATOM     18  C   UNL     1       6.661  -7.013   1.183  0.00  0.00    +0.072 A 
ATOM     19  C   UNL     1       5.517  -6.178   1.127  0.00  0.00    +0.013 A 
ATOM     20  C   UNL     1       4.495  -6.334   2.069  0.00  0.00    +0.011 A 
ATOM     21  C   UNL     1       4.609  -7.289   3.036  0.00  0.00    +0.001 A 
ATOM     22  C   UNL     1       5.731  -8.112   3.096  0.00  0.00    +0.002 A 
ATOM     23  C   UNL     1       6.744  -7.987   2.196  0.00  0.00    +0.028 A 
BRANCH  16  24
ATOM     24  C   UNL     1       8.711  -5.865  -1.622  0.00  0.00    +0.038 A 
ATOM     25  C   UNL     1       9.866  -6.603  -1.671  0.00  0.00    +0.017 A 
ATOM     26  C   UNL     1      10.780  -6.334  -2.664  0.00  0.00    +0.008 A 
ATOM     27  C   UNL     1      10.516  -5.343  -3.556  0.00  0.00    +0.046 A 
ATOM     28  S   UNL     1       8.924  -4.755  -3.003  0.00  0.00    -0.095 S 
ENDBRANCH  16  24
ENDBRANCH  12  14
BRANCH   5  29
ATOM     29  O   UNL     1       3.061   2.139   0.158  0.00  0.00    -0.493 OA
ATOM     30  C   UNL     1       2.817   3.546   0.204  0.00  0.00    +0.277 C 
ENDBRANCH   5  29
BRANCH  11  31
ATOM     31  C   UNL     1       5.793  -2.367   0.086  0.00  0.00    +0.097 C 
BRANCH  31  32
ATOM     32  C   UNL     1       6.172  -2.131   1.550  0.00  0.00    -0.060 C 
BRANCH  32  35
ATOM     33  C   UNL     1       7.569  -0.224   1.028  0.00  0.00    -0.097 C 
ATOM     34  C   UNL     1       8.017  -1.548   3.005  0.00  0.00    -0.097 C 
ATOM     35  N   UNL     1       7.544  -1.585   1.605  0.00  0.00    +0.377 N 
ATOM     36  H   UNL     1       8.166  -2.191   1.058  0.00  0.00    -0.083 HD
ENDBRANCH  32  35
ENDBRANCH  31  32
ENDBRANCH  11  31
TORSDOF 6
