REMARK  Name = ZINC39664499
REMARK  6 active torsions:
REMARK  status: ('A' for Active; 'I' for Inactive)
REMARK    1  A    between atoms: C_4  and  C_7
REMARK    2  A    between atoms: C_7  and  C_9
REMARK    3  A    between atoms: C_7  and  N_32
REMARK    4  A    between atoms: C_9  and  N_10
REMARK    5  A    between atoms: C_11  and  C_13
REMARK    6  A    between atoms: C_24  and  C_26
REMARK                            x       y       z     vdW  Elec       q    Type
REMARK                         _______ _______ _______ _____ _____    ______ ____
ROOT
ATOM      1  C   UNL     1       6.925  -3.501   2.398  0.00  0.00    +0.100 C 
ATOM      2  C   UNL     1       6.611  -4.824   1.664  0.00  0.00    +0.121 C 
ATOM      3  N   UNL     1       7.478  -5.831   2.321  0.00  0.00    -0.300 N 
ATOM      4  C   UNL     1       7.438  -5.471   3.758  0.00  0.00    +0.115 C 
ATOM      5  C   UNL     1       7.466  -3.930   3.772  0.00  0.00    -0.004 C 
ATOM      6  C   UNL     1       6.568  -3.396   4.884  0.00  0.00    -0.010 C 
ATOM      7  C   UNL     1       7.158  -3.786   6.242  0.00  0.00    -0.082 C 
ATOM      8  N   UNL     1       8.510  -3.229   6.368  0.00  0.00    +0.379 N 
ATOM      9  C   UNL     1       9.391  -3.818   5.353  0.00  0.00    -0.082 C 
ATOM     10  C   UNL     1       8.896  -3.430   3.957  0.00  0.00    -0.010 C 
ATOM     11  C   UNL     1       8.152  -6.844   1.741  0.00  0.00    +0.219 C 
ATOM     12  O   UNL     1       8.825  -7.590   2.419  0.00  0.00    -0.275 OA
ATOM     13  H   UNL     1       8.474  -2.229   6.241  0.00  0.00    -0.086 HD
ATOM     14  H   UNL     1       8.873  -3.435   7.287  0.00  0.00    -0.086 HD
ENDROOT
BRANCH  11  15
ATOM     15  C   UNL     1       8.069  -7.049   0.250  0.00  0.00    +0.079 C 
ATOM     16  C   UNL     1       6.614  -7.308  -0.151  0.00  0.00    +0.041 C 
ATOM     17  C   UNL     1       6.550  -7.593  -1.654  0.00  0.00    +0.160 C 
ATOM     18  O   UNL     1       7.387  -8.709  -1.962  0.00  0.00    -0.380 OA
ATOM     19  C   UNL     1       8.768  -8.506  -1.652  0.00  0.00    +0.160 C 
ATOM     20  C   UNL     1       8.921  -8.258  -0.149  0.00  0.00    +0.041 C 
ENDBRANCH  11  15
BRANCH   1  22
ATOM     21  N   UNL     1       5.747  -1.336   2.612  0.00  0.00    -0.313 N 
ATOM     22  C   UNL     1       5.671  -2.681   2.561  0.00  0.00    +0.218 C 
ATOM     23  O   UNL     1       4.593  -3.231   2.646  0.00  0.00    -0.275 OA
ATOM     24  H   UNL     1       6.609  -0.896   2.544  0.00  0.00    +0.149 HD
BRANCH  21  25
ATOM     25  C   UNL     1       4.528  -0.539   2.770  0.00  0.00    +0.127 C 
BRANCH  25  26
ATOM     26  C   UNL     1       4.882   0.949   2.725  0.00  0.00    +0.104 C 
BRANCH  26  30
ATOM     27  C   UNL     1       7.418   1.912   6.025  0.00  0.00    +0.000 A 
ATOM     28  C   UNL     1       7.963   1.708   4.771  0.00  0.00    +0.000 A 
ATOM     29  C   UNL     1       7.142   1.396   3.703  0.00  0.00    +0.005 A 
ATOM     30  C   UNL     1       5.777   1.288   3.889  0.00  0.00    -0.029 A 
ATOM     31  C   UNL     1       5.232   1.491   5.143  0.00  0.00    +0.005 A 
ATOM     32  C   UNL     1       6.052   1.805   6.211  0.00  0.00    +0.000 A 
ENDBRANCH  26  30
BRANCH  26  33
ATOM     33  N   UNL     1       3.651   1.747   2.804  0.00  0.00    -0.290 NA
ATOM     34  C   UNL     1       2.723   1.393   1.721  0.00  0.00    +0.113 C 
ATOM     35  C   UNL     1       1.433   2.204   1.875  0.00  0.00    +0.175 C 
ATOM     36  O   UNL     1       1.751   3.598   1.882  0.00  0.00    -0.377 OA
ATOM     37  C   UNL     1       2.653   3.978   2.925  0.00  0.00    +0.175 C 
ATOM     38  C   UNL     1       3.954   3.186   2.781  0.00  0.00    +0.113 C 
ENDBRANCH  26  33
ENDBRANCH  25  26
ENDBRANCH  21  25
ENDBRANCH   1  22
TORSDOF 6
