REMARK  Name = ZINC01382720
REMARK  6 active torsions:
REMARK  status: ('A' for Active; 'I' for Inactive)
REMARK    1  A    between atoms: C_3  and  C_6
REMARK    2  A    between atoms: N_8  and  C_9
REMARK    3  A    between atoms: N_8  and  C_16
REMARK    4  A    between atoms: C_16  and  C_18
REMARK    5  A    between atoms: C_16  and  C_25
REMARK    6  A    between atoms: N_27  and  C_28
REMARK                            x       y       z     vdW  Elec       q    Type
REMARK                         _______ _______ _______ _____ _____    ______ ____
ROOT
ATOM      1  C   UNL     1      -1.008  -0.913   0.236  0.00  0.00    +0.198 C 
ENDROOT
BRANCH   1   2
ATOM      2  C   UNL     1      -0.894  -1.885  -0.910  0.00  0.00    -0.018 A 
ATOM      3  C   UNL     1       0.345  -2.375  -1.280  0.00  0.00    +0.007 A 
ATOM      4  C   UNL     1       0.449  -3.271  -2.327  0.00  0.00    +0.020 A 
ATOM      5  C   UNL     1      -0.685  -3.669  -3.013  0.00  0.00    +0.041 A 
ATOM      6  C   UNL     1      -1.924  -3.175  -2.645  0.00  0.00    +0.020 A 
ATOM      7  C   UNL     1      -2.027  -2.283  -1.594  0.00  0.00    +0.007 A 
ATOM      8 CL   UNL     1      -0.553  -4.789  -4.333  0.00  0.00    -0.084 Cl
ENDBRANCH   1   2
BRANCH   1   9
ATOM      9  C   UNL     1      -0.586  -1.591   1.514  0.00  0.00    +0.239 C 
ATOM     10  O   UNL     1       0.347  -1.154   2.153  0.00  0.00    -0.273 OA
ATOM     11  N   UNL     1      -1.246  -2.683   1.947  0.00  0.00    -0.311 N 
ATOM     12  H   UNL     1      -1.993  -3.033   1.436  0.00  0.00    +0.149 HD
BRANCH  11  13
ATOM     13  C   UNL     1      -0.836  -3.343   3.189  0.00  0.00    +0.073 C 
ATOM     14  C   UNL     1       0.259  -4.388   2.896  0.00  0.00    +0.022 C 
ATOM     15  C   UNL     1      -0.061  -5.556   3.862  0.00  0.00    +0.002 C 
ATOM     16  C   UNL     1      -1.609  -5.594   3.850  0.00  0.00    +0.002 C 
ATOM     17  C   UNL     1      -2.024  -4.109   3.796  0.00  0.00    +0.022 C 
ENDBRANCH  11  13
ENDBRANCH   1   9
BRANCH   1  20
ATOM     18  C   UNL     1      -0.186   1.309   0.806  0.00  0.00    +0.287 C 
ATOM     19  O   UNL     1       0.461   2.306   0.543  0.00  0.00    -0.266 OA
ATOM     20  N   UNL     1      -0.140   0.240  -0.015  0.00  0.00    -0.249 N 
BRANCH  20  21
ATOM     21  C   UNL     1       0.737   0.233  -1.105  0.00  0.00    +0.038 A 
ATOM     22  C   UNL     1       2.106   0.134  -0.896  0.00  0.00    +0.026 A 
ATOM     23  C   UNL     1       2.969   0.122  -1.974  0.00  0.00    +0.040 A 
ATOM     24  C   UNL     1       2.471   0.219  -3.262  0.00  0.00    +0.124 A 
ATOM     25  C   UNL     1       1.106   0.324  -3.473  0.00  0.00    +0.040 A 
ATOM     26  C   UNL     1       0.239   0.331  -2.398  0.00  0.00    +0.026 A 
ATOM     27  F   UNL     1       3.317   0.212  -4.315  0.00  0.00    -0.205 F 
ENDBRANCH  20  21
BRANCH  18  30
ATOM     28  C   UNL     1      -1.983   1.782   3.948  0.00  0.00    +0.042 A 
ATOM     29  C   UNL     1      -1.061   2.227   2.987  0.00  0.00    +0.054 A 
ATOM     30  C   UNL     1      -1.016   1.270   2.014  0.00  0.00    +0.190 A 
ATOM     31  O   UNL     1      -1.873   0.286   2.356  0.00  0.00    -0.458 OA
ATOM     32  C   UNL     1      -2.454   0.589   3.525  0.00  0.00    +0.196 A 
ENDBRANCH  18  30
ENDBRANCH   1  20
TORSDOF 6
