REMARK  Name = ZINC33761732
REMARK  13 active torsions:
REMARK  status: ('A' for Active; 'I' for Inactive)
REMARK    1  A    between atoms: C_1  and  C_2
REMARK    2  A    between atoms: C_2  and  O_3
REMARK    3  A    between atoms: O_3  and  C_4
REMARK    4  A    between atoms: C_7  and  C_13
REMARK    5  A    between atoms: C_9  and  O_10
REMARK    6  A    between atoms: O_10  and  C_11
REMARK    7  A    between atoms: C_11  and  C_12
REMARK    8  A    between atoms: C_15  and  C_16
REMARK    9  A    between atoms: C_16  and  C_17
REMARK   10  A    between atoms: C_20  and  O_23
REMARK   11  A    between atoms: O_23  and  C_24
REMARK   12  A    between atoms: N_30  and  C_31
REMARK   13  A    between atoms: C_31  and  C_32
REMARK                            x       y       z     vdW  Elec       q    Type
REMARK                         _______ _______ _______ _____ _____    ______ ____
ROOT
ATOM      1  C   UNL     1       3.503   1.722   0.039  0.00  0.00    +0.145 C 
ATOM      2  C   UNL     1       4.229   1.988   1.338  0.00  0.00    +0.076 C 
ATOM      3  C   UNL     1       5.561   1.605   1.126  0.00  0.00    +0.249 C 
ATOM      4  O   UNL     1       6.462   1.669   1.943  0.00  0.00    -0.282 OA
ATOM      5  C   UNL     1       5.685   1.106  -0.271  0.00  0.00    +0.288 C 
ATOM      6  O   UNL     1       6.710   0.696  -0.775  0.00  0.00    -0.266 OA
ATOM      7  N   UNL     1       4.495   1.177  -0.893  0.00  0.00    -0.279 N 
ENDROOT
BRANCH   1  11
ATOM      8  C   UNL     1       0.373  -1.123   0.669  0.00  0.00    +0.162 A 
ATOM      9  C   UNL     1       1.696  -1.490   0.859  0.00  0.00    +0.050 A 
ATOM     10  C   UNL     1       2.705  -0.568   0.655  0.00  0.00    +0.009 A 
ATOM     11  C   UNL     1       2.399   0.721   0.261  0.00  0.00    -0.019 A 
ATOM     12  C   UNL     1       1.081   1.094   0.070  0.00  0.00    +0.055 A 
ATOM     13  C   UNL     1       0.065   0.174   0.273  0.00  0.00    +0.162 A 
BRANCH   8  14
ATOM     14  O   UNL     1      -0.621  -2.029   0.869  0.00  0.00    -0.489 OA
BRANCH  14  16
ATOM     15  C   UNL     1      -1.475  -4.215   1.448  0.00  0.00    +0.048 C 
ATOM     16  C   UNL     1      -0.230  -3.343   1.274  0.00  0.00    +0.226 C 
ENDBRANCH  14  16
ENDBRANCH   8  14
BRANCH  13  17
ATOM     17  O   UNL     1      -1.231   0.538   0.080  0.00  0.00    -0.489 OA
BRANCH  17  18
ATOM     18  C   UNL     1      -1.479   1.905  -0.256  0.00  0.00    +0.226 C 
ATOM     19  C   UNL     1      -2.987   2.144  -0.344  0.00  0.00    +0.048 C 
ENDBRANCH  17  18
ENDBRANCH  13  17
ENDBRANCH   1  11
BRANCH   2  20
ATOM     20  C   UNL     1       3.689   2.505   2.499  0.00  0.00    +0.195 C 
ATOM     21  O   UNL     1       4.431   2.553   3.626  0.00  0.00    -0.287 OA
BRANCH  20  22
ATOM     22  C   UNL     1       2.305   3.003   2.509  0.00  0.00    +0.022 A 
ATOM     23  C   UNL     1       1.417   2.591   3.509  0.00  0.00    +0.015 A 
ATOM     24  C   UNL     1       0.124   3.064   3.517  0.00  0.00    +0.046 A 
ATOM     25  C   UNL     1      -0.303   3.942   2.526  0.00  0.00    +0.120 A 
ATOM     26  C   UNL     1       0.574   4.351   1.527  0.00  0.00    +0.046 A 
ATOM     27  C   UNL     1       1.870   3.888   1.514  0.00  0.00    +0.015 A 
BRANCH  25  28
ATOM     28  O   UNL     1      -1.580   4.401   2.535  0.00  0.00    -0.495 OA
ATOM     29  C   UNL     1      -2.395   4.030   3.648  0.00  0.00    +0.277 C 
ENDBRANCH  25  28
ENDBRANCH  20  22
ENDBRANCH   2  20
BRANCH   7  30
ATOM     30  C   UNL     1       4.231   0.775  -2.277  0.00  0.00    +0.144 C 
BRANCH  30  31
ATOM     31  C   UNL     1       4.449   1.952  -3.192  0.00  0.00    -0.030 A 
ATOM     32  C   UNL     1       3.399   2.800  -3.489  0.00  0.00    +0.005 A 
ATOM     33  C   UNL     1       3.600   3.883  -4.324  0.00  0.00    +0.000 A 
ATOM     34  C   UNL     1       4.848   4.111  -4.872  0.00  0.00    +0.000 A 
ATOM     35  C   UNL     1       5.897   3.259  -4.580  0.00  0.00    +0.000 A 
ATOM     36  C   UNL     1       5.697   2.180  -3.740  0.00  0.00    +0.005 A 
ENDBRANCH  30  31
ENDBRANCH   7  30
TORSDOF 10
