REMARK  Name = ZINC08846166
REMARK  8 active torsions:
REMARK  status: ('A' for Active; 'I' for Inactive)
REMARK    1  A    between atoms: C_1  and  C_2
REMARK    2  A    between atoms: C_2  and  C_3
REMARK    3  A    between atoms: C_2  and  C_4
REMARK    4  A    between atoms: C_2  and  C_5
REMARK    5  A    between atoms: C_8  and  C_11
REMARK    6  A    between atoms: C_16  and  N_25
REMARK    7  A    between atoms: C_20  and  N_24
REMARK    8  A    between atoms: C_21  and  C_22
REMARK                            x       y       z     vdW  Elec       q    Type
REMARK                         _______ _______ _______ _____ _____    ______ ____
ROOT
ATOM      1  C   UNL     1      -3.700   1.604   0.030  0.00  0.00    +0.098 C 
ATOM      2  C   UNL     1      -3.555   3.047  -0.374  0.00  0.00    +0.008 A 
ATOM      3  C   UNL     1      -4.675   3.760  -0.765  0.00  0.00    +0.010 A 
ATOM      4  C   UNL     1      -4.562   5.083  -1.140  0.00  0.00    +0.023 A 
ATOM      5  C   UNL     1      -3.319   5.705  -1.125  0.00  0.00    +0.028 A 
ATOM      6  C   UNL     1      -2.195   4.993  -0.733  0.00  0.00    +0.069 A 
ATOM      7  C   UNL     1      -2.313   3.662  -0.356  0.00  0.00    +0.136 A 
ATOM      8  O   UNL     1      -1.204   2.979   0.029  0.00  0.00    -0.441 OA
ATOM      9  C   UNL     1      -1.209   1.636   0.017  0.00  0.00    +0.199 C 
ATOM     10  C   UNL     1      -2.360   0.923   0.018  0.00  0.00    +0.098 C 
ENDROOT
BRANCH   1  14
ATOM     11  C   UNL     1      -5.358   1.395   3.962  0.00  0.00    -0.042 A 
ATOM     12  C   UNL     1      -6.032   0.828   2.897  0.00  0.00    +0.004 A 
ATOM     13  C   UNL     1      -5.496   0.896   1.624  0.00  0.00    +0.005 A 
ATOM     14  C   UNL     1      -4.285   1.530   1.417  0.00  0.00    -0.035 A 
ATOM     15  C   UNL     1      -3.608   2.093   2.483  0.00  0.00    +0.005 A 
ATOM     16  C   UNL     1      -4.147   2.030   3.755  0.00  0.00    +0.004 A 
BRANCH  11  18
ATOM     17  C   UNL     1      -6.109  -0.143   5.755  0.00  0.00    +0.015 C 
ATOM     18  C   UNL     1      -5.942   1.322   5.349  0.00  0.00    -0.013 C 
ATOM     19  C   UNL     1      -5.005   2.021   6.335  0.00  0.00    +0.015 C 
ATOM     20  C   UNL     1      -7.307   2.014   5.364  0.00  0.00    +0.015 C 
ENDBRANCH  11  18
ENDBRANCH   1  14
BRANCH   9  21
ATOM     21  N   UNL     1      -0.011   0.966   0.007  0.00  0.00    -0.328 N 
ATOM     22  H   UNL     1       0.002  -0.004   0.002  0.00  0.00    +0.145 HD
ATOM     23  H   UNL     1       0.822   1.462   0.002  0.00  0.00    +0.145 HD
ENDBRANCH   9  21
BRANCH   5  24
ATOM     24  N   UNL     1      -3.202   7.045  -1.503  0.00  0.00    -0.358 N 
ATOM     25  H   UNL     1      -3.989   7.542  -1.776  0.00  0.00    +0.142 HD
ATOM     26  H   UNL     1      -2.334   7.478  -1.492  0.00  0.00    +0.142 HD
ENDBRANCH   5  24
BRANCH  10  27
ATOM     27  C   UNL     1      -2.300  -0.507   0.009  0.00  0.00    +0.101 C 
ATOM     28  N   UNL     1      -2.252  -1.642   0.001  0.00  0.00    -0.191 NA
ENDBRANCH  10  27
TORSDOF 5
