REMARK  Name = ZINC03290196
REMARK  5 active torsions:
REMARK  status: ('A' for Active; 'I' for Inactive)
REMARK    1  A    between atoms: C_1  and  C_2
REMARK    2  A    between atoms: N_5  and  C_7
REMARK    3  A    between atoms: C_25  and  C_27
REMARK    4  A    between atoms: C_32  and  O_33
REMARK    5  A    between atoms: O_33  and  C_34
REMARK                            x       y       z     vdW  Elec       q    Type
REMARK                         _______ _______ _______ _____ _____    ______ ____
ROOT
ATOM      1  C   UNL     1       1.877  -1.528   0.235  0.00  0.00    +0.068 C 
ATOM      2  C   UNL     1       1.262  -0.152   0.191  0.00  0.00    +0.068 A 
ATOM      3  C   UNL     1      -0.093   0.126   0.086  0.00  0.00    +0.043 A 
ATOM      4  C   UNL     1      -0.253   1.502   0.078  0.00  0.00    +0.141 A 
ATOM      5  N   UNL     1       1.002   2.039   0.178  0.00  0.00    -0.216 N 
ATOM      6  N   UNL     1       1.918   0.981   0.246  0.00  0.00    -0.169 NA
ATOM      7  N   UNL     1      -1.482   2.051  -0.011  0.00  0.00    -0.328 N 
ATOM      8  C   UNL     1      -2.607   1.368  -0.106  0.00  0.00    +0.105 C 
ATOM      9  C   UNL     1      -3.826   2.089  -0.201  0.00  0.00    +0.043 C 
ATOM     10  C   UNL     1      -5.007   1.440  -0.294  0.00  0.00    +0.013 C 
ATOM     11  C   UNL     1      -5.018  -0.025  -0.298  0.00  0.00    -0.004 A 
ATOM     12  C   UNL     1      -6.217  -0.738  -0.394  0.00  0.00    +0.010 A 
ATOM     13  C   UNL     1      -6.192  -2.115  -0.395  0.00  0.00    +0.001 A 
ATOM     14  C   UNL     1      -4.986  -2.795  -0.303  0.00  0.00    +0.002 A 
ATOM     15  C   UNL     1      -3.795  -2.106  -0.209  0.00  0.00    +0.024 A 
ATOM     16  C   UNL     1      -3.796  -0.716  -0.205  0.00  0.00    +0.043 A 
ATOM     17  N   UNL     1      -2.617  -0.007  -0.112  0.00  0.00    -0.274 N 
ATOM     18  C   UNL     1      -1.335  -0.728  -0.014  0.00  0.00    +0.149 C 
ATOM     19  H   UNL     1      -1.505   3.151  -0.001  0.00  0.00    +0.169 HD
ENDROOT
BRANCH   5  20
ATOM     20  C   UNL     1       1.315   3.404   0.206  0.00  0.00    +0.068 A 
ATOM     21  C   UNL     1       0.571   4.304  -0.547  0.00  0.00    +0.029 A 
ATOM     22  C   UNL     1       0.879   5.650  -0.514  0.00  0.00    +0.022 A 
ATOM     23  C   UNL     1       1.934   6.101   0.260  0.00  0.00    +0.041 A 
ATOM     24  C   UNL     1       2.680   5.206   1.007  0.00  0.00    +0.022 A 
ATOM     25  C   UNL     1       2.373   3.860   0.981  0.00  0.00    +0.029 A 
ATOM     26 CL   UNL     1       2.322   7.793   0.294  0.00  0.00    -0.084 Cl
ENDBRANCH   5  20
BRANCH  18  27
ATOM     27  C   UNL     1      -1.391  -1.619   1.200  0.00  0.00    +0.020 A 
ATOM     28  C   UNL     1      -1.028  -2.948   1.099  0.00  0.00    +0.009 A 
ATOM     29  C   UNL     1      -1.079  -3.766   2.213  0.00  0.00    +0.001 A 
ATOM     30  C   UNL     1      -1.491  -3.256   3.430  0.00  0.00    +0.004 A 
ATOM     31  C   UNL     1      -1.854  -1.928   3.537  0.00  0.00    +0.046 A 
ATOM     32  C   UNL     1      -1.800  -1.104   2.421  0.00  0.00    +0.132 A 
BRANCH  32  33
ATOM     33  O   UNL     1      -2.152   0.205   2.525  0.00  0.00    -0.434 OA
BRANCH  33  34
ATOM     34  C   UNL     1      -2.563   0.667   3.813  0.00  0.00    +0.541 C 
ATOM     35  F   UNL     1      -3.684  -0.058   4.232  0.00  0.00    -0.166 F 
ATOM     36  F   UNL     1      -1.521   0.484   4.728  0.00  0.00    -0.166 F 
ENDBRANCH  33  34
ENDBRANCH  32  33
ENDBRANCH  18  27
TORSDOF 4
