REMARK  Name = ZINC20079656
REMARK  9 active torsions:
REMARK  status: ('A' for Active; 'I' for Inactive)
REMARK    1  A    between atoms: C_1  and  C_2
REMARK    2  A    between atoms: C_6  and  N_9
REMARK    3  A    between atoms: C_7  and  C_8
REMARK    4  A    between atoms: N_12  and  C_15
REMARK    5  A    between atoms: C_15  and  C_17
REMARK    6  A    between atoms: C_15  and  C_31
REMARK    7  A    between atoms: C_20  and  C_30
REMARK    8  A    between atoms: C_22  and  C_29
REMARK    9  A    between atoms: N_35  and  C_36
REMARK                            x       y       z     vdW  Elec       q    Type
REMARK                         _______ _______ _______ _____ _____    ______ ____
ROOT
ATOM      1  C   UNL     1      -1.273   1.831  -0.932  0.00  0.00    +0.162 C 
ENDROOT
BRANCH   1   2
ATOM      2  C   UNL     1      -1.567   3.276  -0.624  0.00  0.00    +0.042 A 
ATOM      3  C   UNL     1      -2.839   3.739  -0.700  0.00  0.00    +0.021 A 
ATOM      4  C   UNL     1      -3.091   5.147  -0.390  0.00  0.00    +0.002 A 
ATOM      5  C   UNL     1      -4.383   5.680  -0.447  0.00  0.00    -0.041 A 
ATOM      6  C   UNL     1      -4.585   6.999  -0.155  0.00  0.00    +0.007 A 
ATOM      7  C   UNL     1      -3.518   7.816   0.196  0.00  0.00    -0.048 A 
ATOM      8  C   UNL     1      -2.237   7.312   0.258  0.00  0.00    +0.029 A 
ATOM      9  C   UNL     1      -2.008   5.972  -0.034  0.00  0.00    +0.050 A 
ATOM     10  N   UNL     1      -0.737   5.441   0.021  0.00  0.00    -0.322 N 
ATOM     11  H   UNL     1       0.115   6.080   0.298  0.00  0.00    +0.169 HD
ATOM     12  C   UNL     1      -0.515   4.146  -0.262  0.00  0.00    +0.254 A 
ATOM     13  O   UNL     1       0.622   3.711  -0.203  0.00  0.00    -0.268 OA
ATOM     14  C   UNL     1      -3.764   9.269   0.512  0.00  0.00    +0.044 C 
ATOM     15  C   UNL     1      -5.548   4.803  -0.826  0.00  0.00    +0.044 C 
ENDBRANCH   1   2
BRANCH   1  19
ATOM     16  N   UNL     1      -0.130  -0.608   2.323  0.00  0.00    -0.327 N 
ATOM     17  C   UNL     1      -0.448   0.801   2.596  0.00  0.00    +0.120 C 
ATOM     18  C   UNL     1      -1.284   1.365   1.444  0.00  0.00    +0.104 C 
ATOM     19  N   UNL     1      -0.534   1.231   0.187  0.00  0.00    -0.286 NA
ATOM     20  C   UNL     1      -0.216  -0.177  -0.086  0.00  0.00    +0.104 C 
ATOM     21  C   UNL     1       0.619  -0.741   1.065  0.00  0.00    +0.120 C 
BRANCH  16  27
ATOM     22  C   UNL     1       0.081  -3.883   5.980  0.00  0.00    +0.044 C 
ATOM     23  C   UNL     1       0.699  -2.767   5.178  0.00  0.00    -0.046 A 
ATOM     24  C   UNL     1       1.964  -2.306   5.496  0.00  0.00    +0.004 A 
ATOM     25  C   UNL     1       2.534  -1.283   4.762  0.00  0.00    +0.002 A 
ATOM     26  C   UNL     1       1.843  -0.717   3.708  0.00  0.00    +0.023 A 
ATOM     27  C   UNL     1       0.573  -1.177   3.387  0.00  0.00    +0.033 A 
ATOM     28  C   UNL     1      -0.000  -2.202   4.130  0.00  0.00    -0.027 A 
ATOM     29  C   UNL     1      -1.381  -2.701   3.788  0.00  0.00    +0.046 C 
ENDBRANCH  16  27
ENDBRANCH   1  19
BRANCH   1  30
ATOM     30  C   UNL     1      -0.442   1.744  -2.187  0.00  0.00    +0.173 A 
ATOM     31  N   UNL     1       0.832   2.028  -2.303  0.00  0.00    -0.111 NA
ATOM     32  N   UNL     1       1.175   1.826  -3.528  0.00  0.00    -0.023 NA
ATOM     33  N   UNL     1       0.151   1.427  -4.198  0.00  0.00    -0.044 NA
ATOM     34  N   UNL     1      -0.866   1.364  -3.406  0.00  0.00    -0.224 N 
BRANCH  34  35
ATOM     35  C   UNL     1      -2.226   0.955  -3.767  0.00  0.00    +0.111 C 
ATOM     36  C   UNL     1      -2.202  -0.477  -4.304  0.00  0.00    +0.027 C 
ATOM     37  C   UNL     1      -3.622  -0.904  -4.681  0.00  0.00    +0.002 C 
ATOM     38  C   UNL     1      -4.168   0.035  -5.758  0.00  0.00    +0.000 C 
ATOM     39  C   UNL     1      -4.192   1.468  -5.221  0.00  0.00    +0.002 C 
ATOM     40  C   UNL     1      -2.772   1.895  -4.844  0.00  0.00    +0.027 C 
ENDBRANCH  34  35
ENDBRANCH   1  30
TORSDOF 5
