REMARK  Name = ZINC13276461
REMARK  7 active torsions:
REMARK  status: ('A' for Active; 'I' for Inactive)
REMARK    1  A    between atoms: C_3  and  C_6
REMARK    2  A    between atoms: C_6  and  N_7
REMARK    3  A    between atoms: C_8  and  S_12
REMARK    4  A    between atoms: S_12  and  C_13
REMARK    5  A    between atoms: C_16  and  S_21
REMARK    6  A    between atoms: C_18  and  C_19
REMARK    7  A    between atoms: S_21  and  N_24
REMARK                            x       y       z     vdW  Elec       q    Type
REMARK                         _______ _______ _______ _____ _____    ______ ____
ROOT
ATOM      1  C   UNL     1      -3.570  -0.612  -2.805  0.00  0.00    +0.030 A 
ATOM      2  C   UNL     1      -3.546   0.417  -3.739  0.00  0.00    +0.018 A 
ATOM      3  C   UNL     1      -4.428   0.408  -4.799  0.00  0.00    +0.029 A 
ATOM      4  C   UNL     1      -5.350  -0.618  -4.937  0.00  0.00    +0.106 A 
ATOM      5  C   UNL     1      -5.393  -1.644  -4.019  0.00  0.00    +0.044 A 
ATOM      6  C   UNL     1      -4.503  -1.653  -2.942  0.00  0.00    +0.079 A 
ENDROOT
BRANCH   6   7
ATOM      7  C   UNL     1      -4.543  -2.746  -1.956  0.00  0.00    +0.388 C 
ATOM      8  O   UNL     1      -3.767  -2.750  -1.020  0.00  0.00    -0.241 OA
ATOM      9  O   UNL     1      -5.440  -3.743  -2.091  0.00  0.00    -0.241 OA
ENDBRANCH   6   7
BRANCH   4  10
ATOM     10  S   UNL     1      -6.474  -0.609  -6.294  0.00  0.00    +0.061 S 
ATOM     11  O   UNL     1      -5.872   0.174  -7.316  0.00  0.00    -0.153 OA
ATOM     12  O   UNL     1      -6.871  -1.957  -6.501  0.00  0.00    -0.153 OA
BRANCH  10  13
ATOM     13  N   UNL     1      -7.826   0.213  -5.804  0.00  0.00    -0.172 NA
ATOM     14  C   UNL     1      -8.954  -0.492  -5.173  0.00  0.00    +0.137 C 
ATOM     15  C   UNL     1      -9.312   0.244  -3.873  0.00  0.00    +0.177 C 
ATOM     16  O   UNL     1      -9.510   1.631  -4.158  0.00  0.00    -0.377 OA
ATOM     17  C   UNL     1      -8.348   2.298  -4.657  0.00  0.00    +0.177 C 
ATOM     18  C   UNL     1      -7.938   1.668  -5.993  0.00  0.00    +0.137 C 
ENDBRANCH  10  13
ENDBRANCH   4  10
BRANCH   1  19
ATOM     19  S   UNL     1      -2.440  -0.607  -1.452  0.00  0.00    -0.048 S 
BRANCH  19  21
ATOM     20  N   UNL     1      -0.223  -2.292  -1.325  0.00  0.00    -0.215 N 
ATOM     21  C   UNL     1      -1.281  -1.807  -2.018  0.00  0.00    +0.214 A 
ATOM     22  N   UNL     1      -1.278  -2.399  -3.192  0.00  0.00    -0.101 NA
ATOM     23  N   UNL     1      -0.298  -3.224  -3.278  0.00  0.00    -0.022 NA
ATOM     24  N   UNL     1       0.389  -3.219  -2.188  0.00  0.00    -0.043 NA
BRANCH  20  25
ATOM     25  C   UNL     1       0.191  -1.934   0.033  0.00  0.00    +0.190 C 
BRANCH  25  28
ATOM     26  C   UNL     1       1.955   1.442  -0.057  0.00  0.00    +0.008 A 
ATOM     27  C   UNL     1       0.899   0.552   0.010  0.00  0.00    +0.013 A 
ATOM     28  C   UNL     1       1.157  -0.778  -0.024  0.00  0.00    +0.011 A 
ATOM     29  S   UNL     1       2.937  -0.806  -0.147  0.00  0.00    -0.100 S 
ATOM     30  C   UNL     1       3.217   0.957  -0.154  0.00  0.00    +0.045 A 
ENDBRANCH  25  28
ENDBRANCH  20  25
ENDBRANCH  19  21
ENDBRANCH   1  19
TORSDOF 7
