REMARK  Name = ZINC02352349
REMARK  10 active torsions:
REMARK  status: ('A' for Active; 'I' for Inactive)
REMARK    1  A    between atoms: C_1  and  C_2
REMARK    2  A    between atoms: C_5  and  N_9
REMARK    3  A    between atoms: C_6  and  C_8
REMARK    4  A    between atoms: N_9  and  C_10
REMARK    5  A    between atoms: N_9  and  S_28
REMARK    6  A    between atoms: C_10  and  C_11
REMARK    7  A    between atoms: C_11  and  C_13
REMARK    8  A    between atoms: C_11  and  O_27
REMARK    9  A    between atoms: C_13  and  N_14
REMARK   10  A    between atoms: S_28  and  C_31
REMARK                            x       y       z     vdW  Elec       q    Type
REMARK                         _______ _______ _______ _____ _____    ______ ____
ROOT
ATOM      1  N   UNL     1       1.093  -2.933  -1.614  0.00  0.00    -0.200 N 
ENDROOT
BRANCH   1   6
ATOM      2  C   UNL     1      -4.059  -3.402  -3.938  0.00  0.00    +0.044 C 
ATOM      3  C   UNL     1      -2.690  -3.277  -3.320  0.00  0.00    -0.050 A 
ATOM      4  C   UNL     1      -1.920  -2.155  -3.570  0.00  0.00    +0.005 A 
ATOM      5  C   UNL     1      -0.665  -2.038  -3.006  0.00  0.00    +0.025 A 
ATOM      6  C   UNL     1      -0.176  -3.048  -2.186  0.00  0.00    +0.054 A 
ATOM      7  C   UNL     1      -0.950  -4.175  -1.941  0.00  0.00    -0.028 A 
ATOM      8  C   UNL     1      -2.207  -4.284  -2.505  0.00  0.00    +0.008 A 
ATOM      9  C   UNL     1      -0.422  -5.276  -1.058  0.00  0.00    +0.046 C 
ENDBRANCH   1   6
BRANCH   1  10
ATOM     10  S   UNL     1       1.255  -2.379  -0.062  0.00  0.00    +0.075 S 
ATOM     11  O   UNL     1       2.550  -2.766   0.374  0.00  0.00    -0.150 OA
ATOM     12  O   UNL     1       0.073  -2.758   0.630  0.00  0.00    -0.150 OA
BRANCH  10  13
ATOM     13  C   UNL     1       1.253  -0.618  -0.135  0.00  0.00    +0.109 A 
ATOM     14  C   UNL     1       0.055   0.072  -0.139  0.00  0.00    +0.030 A 
ATOM     15  C   UNL     1       0.053   1.453  -0.195  0.00  0.00    +0.022 A 
ATOM     16  C   UNL     1       1.250   2.144  -0.248  0.00  0.00    +0.041 A 
ATOM     17  C   UNL     1       2.449   1.453  -0.245  0.00  0.00    +0.022 A 
ATOM     18  C   UNL     1       2.449   0.072  -0.188  0.00  0.00    +0.030 A 
ATOM     19 CL   UNL     1       1.249   3.879  -0.320  0.00  0.00    -0.084 Cl
ENDBRANCH  10  13
ENDBRANCH   1  10
BRANCH   1  20
ATOM     20  C   UNL     1       2.281  -3.303  -2.388  0.00  0.00    +0.164 C 
BRANCH  20  21
ATOM     21  C   UNL     1       2.522  -4.808  -2.263  0.00  0.00    +0.153 C 
BRANCH  21  22
ATOM     22  O   UNL     1       2.724  -5.147  -0.890  0.00  0.00    -0.388 OA
ATOM     23  H   UNL     1       3.480  -4.702  -0.482  0.00  0.00    +0.210 HD
ENDBRANCH  21  22
BRANCH  21  24
ATOM     24  C   UNL     1       3.763  -5.194  -3.071  0.00  0.00    +0.155 C 
BRANCH  24  25
ATOM     25  N   UNL     1       3.926  -6.650  -3.050  0.00  0.00    -0.337 N 
ATOM     26  C   UNL     1       4.655  -7.351  -2.106  0.00  0.00    +0.050 A 
ATOM     27  C   UNL     1       5.386  -6.943  -0.995  0.00  0.00    +0.026 A 
ATOM     28  C   UNL     1       6.028  -7.877  -0.210  0.00  0.00    +0.002 A 
ATOM     29  C   UNL     1       5.953  -9.226  -0.516  0.00  0.00    +0.001 A 
ATOM     30  C   UNL     1       5.227  -9.651  -1.609  0.00  0.00    +0.010 A 
ATOM     31  C   UNL     1       4.577  -8.718  -2.413  0.00  0.00    +0.008 A 
ATOM     32  C   UNL     1       3.751  -8.827  -3.629  0.00  0.00    +0.008 A 
ATOM     33  C   UNL     1       3.378  -7.520  -3.976  0.00  0.00    +0.050 A 
ATOM     34  C   UNL     1       2.583  -7.315  -5.099  0.00  0.00    +0.026 A 
ATOM     35  C   UNL     1       2.171  -8.388  -5.859  0.00  0.00    +0.002 A 
ATOM     36  C   UNL     1       2.541  -9.679  -5.514  0.00  0.00    +0.001 A 
ATOM     37  C   UNL     1       3.327  -9.903  -4.405  0.00  0.00    +0.010 A 
ENDBRANCH  24  25
ENDBRANCH  21  24
ENDBRANCH  20  21
ENDBRANCH   1  20
TORSDOF 8
