REMARK  Name = ZINC40394890
REMARK  13 active torsions:
REMARK  status: ('A' for Active; 'I' for Inactive)
REMARK    1  A    between atoms: C_1  and  C_2
REMARK    2  A    between atoms: C_2  and  O_3
REMARK    3  A    between atoms: O_3  and  C_4
REMARK    4  A    between atoms: C_4  and  C_6
REMARK    5  A    between atoms: C_4  and  C_30
REMARK    6  A    between atoms: N_14  and  C_24
REMARK    7  A    between atoms: C_16  and  C_17
REMARK    8  A    between atoms: C_20  and  O_23
REMARK    9  A    between atoms: C_30  and  C_32
REMARK   10  A    between atoms: C_30  and  O_37
REMARK   11  A    between atoms: C_32  and  C_34
REMARK   12  A    between atoms: C_32  and  O_36
REMARK   13  A    between atoms: C_34  and  O_35
REMARK                            x       y       z     vdW  Elec       q    Type
REMARK                         _______ _______ _______ _____ _____    ______ ____
ROOT
ATOM      1  C   UNL     1       1.196  -3.165  -2.485  0.00  0.00    -0.002 C 
ATOM      2  C   UNL     1       0.324  -3.997  -3.101  0.00  0.00    -0.006 C 
ATOM      3  C   UNL     1       0.441  -3.999  -4.589  0.00  0.00    +0.107 C 
ATOM      4  C   UNL     1       1.974  -4.068  -4.885  0.00  0.00    +0.226 C 
ATOM      5  N   UNL     1       2.519  -2.796  -4.468  0.00  0.00    -0.266 NA
ATOM      6  C   UNL     1       2.118  -2.355  -3.304  0.00  0.00    +0.113 C 
ATOM      7  N   UNL     1       1.891  -4.423  -6.298  0.00  0.00    -0.199 N 
ATOM      8  N   UNL     1       0.835  -5.375  -6.336  0.00  0.00    -0.181 NA
ATOM      9  C   UNL     1      -0.043  -5.183  -5.363  0.00  0.00    +0.077 C 
ENDROOT
BRANCH   9  10
ATOM     10  C   UNL     1      -1.252  -5.980  -5.087  0.00  0.00    -0.001 A 
ATOM     11  C   UNL     1      -1.478  -7.173  -5.779  0.00  0.00    +0.013 A 
ATOM     12  C   UNL     1      -2.610  -7.915  -5.518  0.00  0.00    +0.046 A 
ATOM     13  C   UNL     1      -3.525  -7.479  -4.568  0.00  0.00    +0.117 A 
ATOM     14  C   UNL     1      -3.304  -6.294  -3.878  0.00  0.00    +0.046 A 
ATOM     15  C   UNL     1      -2.173  -5.548  -4.129  0.00  0.00    +0.013 A 
BRANCH  13  16
ATOM     16  O   UNL     1      -4.640  -8.213  -4.314  0.00  0.00    -0.507 OA
ATOM     17  H   UNL     1      -4.526  -8.871  -3.615  0.00  0.00    +0.292 HD
ENDBRANCH  13  16
ENDBRANCH   9  10
BRANCH   7  18
ATOM     18  C   UNL     1       2.663  -3.944  -7.357  0.00  0.00    +0.054 A 
ATOM     19  C   UNL     1       3.664  -3.010  -7.123  0.00  0.00    +0.025 A 
ATOM     20  C   UNL     1       4.426  -2.538  -8.174  0.00  0.00    +0.002 A 
ATOM     21  C   UNL     1       4.192  -2.994  -9.458  0.00  0.00    +0.000 A 
ATOM     22  C   UNL     1       3.196  -3.924  -9.696  0.00  0.00    +0.002 A 
ATOM     23  C   UNL     1       2.435  -4.405  -8.649  0.00  0.00    +0.025 A 
ENDBRANCH   7  18
BRANCH   1  24
ATOM     24  C   UNL     1       1.221  -3.063  -0.982  0.00  0.00    +0.180 C 
BRANCH  24  25
ATOM     25  O   UNL     1       1.047  -1.699  -0.594  0.00  0.00    -0.370 OA
BRANCH  25  27
ATOM     26  C   UNL     1       0.073  -0.029   0.856  0.00  0.00    +0.034 C 
ATOM     27  C   UNL     1       0.180  -1.519   0.528  0.00  0.00    +0.157 C 
ENDBRANCH  25  27
ENDBRANCH  24  25
BRANCH  24  28
ATOM     28  C   UNL     1       2.564  -3.575  -0.458  0.00  0.00    +0.178 C 
BRANCH  28  29
ATOM     29  O   UNL     1       2.795  -4.897  -0.949  0.00  0.00    -0.386 OA
ATOM     30  H   UNL     1       2.122  -5.538  -0.684  0.00  0.00    +0.210 HD
ENDBRANCH  28  29
BRANCH  28  31
ATOM     31  C   UNL     1       2.540  -3.596   1.072  0.00  0.00    +0.171 C 
BRANCH  31  32
ATOM     32  O   UNL     1       1.472  -4.435   1.520  0.00  0.00    -0.387 OA
ATOM     33  H   UNL     1       1.542  -5.352   1.222  0.00  0.00    +0.210 HD
ENDBRANCH  31  32
BRANCH  31  34
ATOM     34  C   UNL     1       3.870  -4.141   1.595  0.00  0.00    +0.189 C 
BRANCH  34  35
ATOM     35  O   UNL     1       3.893  -4.053   3.021  0.00  0.00    -0.392 OA
ATOM     36  H   UNL     1       4.709  -4.382   3.423  0.00  0.00    +0.210 HD
ENDBRANCH  34  35
ENDBRANCH  31  34
ENDBRANCH  28  31
ENDBRANCH  24  28
ENDBRANCH   1  24
TORSDOF 12
