REMARK  Name = ZINC30578306
REMARK  11 active torsions:
REMARK  status: ('A' for Active; 'I' for Inactive)
REMARK    1  A    between atoms: C_1  and  C_2
REMARK    2  A    between atoms: C_5  and  N_33
REMARK    3  A    between atoms: C_7  and  S_8
REMARK    4  A    between atoms: S_8  and  N_11
REMARK    5  A    between atoms: N_14  and  C_17
REMARK    6  A    between atoms: C_17  and  C_18
REMARK    7  A    between atoms: N_20  and  C_21
REMARK    8  A    between atoms: C_21  and  C_23
REMARK    9  A    between atoms: C_21  and  C_30
REMARK   10  A    between atoms: C_30  and  C_31
REMARK   11  A    between atoms: C_30  and  C_32
REMARK                            x       y       z     vdW  Elec       q    Type
REMARK                         _______ _______ _______ _____ _____    ______ ____
ROOT
ATOM      1  N   UNL     1      -0.872   3.042   1.182  0.00  0.00    -0.180 NA
ATOM      2  C   UNL     1      -0.731   1.581   1.268  0.00  0.00    +0.091 C 
ATOM      3  C   UNL     1      -0.013   1.086   0.008  0.00  0.00    -0.061 C 
ATOM      4  N   UNL     1      -0.724   1.573  -1.181  0.00  0.00    +0.387 N 
ATOM      5  C   UNL     1      -0.705   3.040  -1.250  0.00  0.00    -0.061 C 
ATOM      6  C   UNL     1      -1.452   3.615  -0.042  0.00  0.00    +0.091 C 
ATOM      7  H   UNL     1      -1.774   1.256  -1.096  0.00  0.00    -0.081 HD
ENDROOT
BRANCH   1   8
ATOM      8  S   UNL     1      -0.390   4.017   2.431  0.00  0.00    +0.061 S 
ATOM      9  O   UNL     1       0.587   3.288   3.162  0.00  0.00    -0.153 OA
ATOM     10  O   UNL     1      -0.125   5.295   1.870  0.00  0.00    -0.153 OA
BRANCH   8  17
ATOM     11  C   UNL     1      -2.953   5.421   1.651  0.00  0.00    +0.046 C 
ATOM     12  C   UNL     1      -2.906   4.872   3.054  0.00  0.00    -0.024 A 
ATOM     13  C   UNL     1      -3.993   5.028   3.894  0.00  0.00    +0.007 A 
ATOM     14  C   UNL     1      -3.950   4.525   5.181  0.00  0.00    +0.033 A 
ATOM     15  C   UNL     1      -2.819   3.866   5.628  0.00  0.00    +0.128 A 
ATOM     16  C   UNL     1      -1.734   3.707   4.787  0.00  0.00    +0.061 A 
ATOM     17  C   UNL     1      -1.776   4.215   3.502  0.00  0.00    +0.111 A 
BRANCH  15  18
ATOM     18  N   UNL     1      -2.773   3.327   7.006  0.00  0.00    +0.056 N 
ATOM     19  O   UNL     1      -3.731   3.463   7.745  0.00  0.00    -0.126 OA
ATOM     20  O   UNL     1      -1.777   2.746   7.399  0.00  0.00    -0.126 OA
ENDBRANCH  15  18
ENDBRANCH   8  17
ENDBRANCH   1   8
BRANCH   4  21
ATOM     21  C   UNL     1      -0.170   0.981  -2.406  0.00  0.00    +0.019 C 
BRANCH  21  22
ATOM     22  C   UNL     1      -1.068   1.304  -3.572  0.00  0.00    +0.197 C 
ATOM     23  O   UNL     1      -2.071   1.963  -3.400  0.00  0.00    -0.278 OA
ATOM     24  N   UNL     1      -0.756   0.862  -4.806  0.00  0.00    -0.310 N 
ATOM     25  H   UNL     1       0.154   0.264  -4.962  0.00  0.00    +0.149 HD
BRANCH  24  26
ATOM     26  C   UNL     1      -1.629   1.176  -5.939  0.00  0.00    +0.106 C 
BRANCH  26  27
ATOM     27  C   UNL     1      -1.454   0.133  -7.013  0.00  0.00    -0.027 A 
ATOM     28  C   UNL     1      -0.194  -0.354  -7.304  0.00  0.00    +0.008 A 
ATOM     29  C   UNL     1      -0.032  -1.314  -8.284  0.00  0.00    +0.038 A 
ATOM     30  C   UNL     1      -1.133  -1.780  -8.984  0.00  0.00    +0.123 A 
ATOM     31  C   UNL     1      -2.394  -1.288  -8.695  0.00  0.00    +0.038 A 
ATOM     32  C   UNL     1      -2.554  -0.332  -7.710  0.00  0.00    +0.008 A 
ATOM     33  F   UNL     1      -0.976  -2.715  -9.947  0.00  0.00    -0.205 F 
ENDBRANCH  26  27
BRANCH  26  34
ATOM     34  C   UNL     1      -1.262   2.552  -6.500  0.00  0.00    +0.008 C 
ATOM     35  C   UNL     1      -2.174   2.880  -7.684  0.00  0.00    +0.009 C 
ATOM     36  C   UNL     1      -1.440   3.611  -5.410  0.00  0.00    +0.009 C 
ENDBRANCH  26  34
ENDBRANCH  24  26
ENDBRANCH  21  22
ENDBRANCH   4  21
TORSDOF 8
