REMARK  Name = ZINC39609489
REMARK  11 active torsions:
REMARK  status: ('A' for Active; 'I' for Inactive)
REMARK    1  A    between atoms: C_1  and  C_2
REMARK    2  A    between atoms: C_2  and  O_3
REMARK    3  A    between atoms: O_3  and  C_4
REMARK    4  A    between atoms: C_8  and  C_10
REMARK    5  A    between atoms: C_10  and  C_11
REMARK    6  A    between atoms: C_11  and  N_12
REMARK    7  A    between atoms: C_13  and  C_15
REMARK    8  A    between atoms: C_26  and  C_28
REMARK    9  A    between atoms: C_28  and  C_30
REMARK   10  A    between atoms: C_28  and  O_31
REMARK   11  A    between atoms: O_31  and  C_32
REMARK                            x       y       z     vdW  Elec       q    Type
REMARK                         _______ _______ _______ _____ _____    ______ ____
ROOT
ATOM      1  C   UNL     1       1.915  -5.829  -8.445  0.00  0.00    +0.100 C 
ATOM      2  C   UNL     1       2.596  -7.170  -8.088  0.00  0.00    +0.121 C 
ATOM      3  N   UNL     1       1.612  -8.205  -8.480  0.00  0.00    -0.297 N 
ATOM      4  C   UNL     1       1.035  -7.704  -9.751  0.00  0.00    +0.115 C 
ATOM      5  C   UNL     1       0.894  -6.184  -9.539  0.00  0.00    -0.004 C 
ATOM      6  C   UNL     1       1.221  -5.438 -10.829  0.00  0.00    -0.010 C 
ATOM      7  C   UNL     1       0.159  -5.761 -11.884  0.00  0.00    -0.082 C 
ATOM      8  N   UNL     1      -1.164  -5.363 -11.386  0.00  0.00    +0.379 N 
ATOM      9  C   UNL     1      -1.510  -6.152 -10.198  0.00  0.00    -0.082 C 
ATOM     10  C   UNL     1      -0.519  -5.845  -9.072  0.00  0.00    -0.010 C 
ATOM     11  C   UNL     1       1.309  -9.346  -7.829  0.00  0.00    +0.256 C 
ATOM     12  O   UNL     1       1.802  -9.573  -6.744  0.00  0.00    -0.272 OA
ATOM     13  H   UNL     1      -1.150  -4.383 -11.146  0.00  0.00    -0.086 HD
ATOM     14  H   UNL     1      -1.853  -5.521 -12.106  0.00  0.00    -0.086 HD
ENDROOT
BRANCH   1  16
ATOM     15  N   UNL     1       1.090  -3.924  -7.100  0.00  0.00    -0.315 N 
ATOM     16  C   UNL     1       1.215  -5.259  -7.239  0.00  0.00    +0.218 C 
ATOM     17  O   UNL     1       0.764  -6.001  -6.392  0.00  0.00    -0.275 OA
ATOM     18  H   UNL     1       1.451  -3.330  -7.777  0.00  0.00    +0.149 HD
BRANCH  15  19
ATOM     19  C   UNL     1       0.410  -3.369  -5.927  0.00  0.00    +0.109 C 
BRANCH  19  20
ATOM     20  C   UNL     1       0.405  -1.842  -6.015  0.00  0.00    +0.054 C 
BRANCH  20  25
ATOM     21  C   UNL     1      -2.301  -0.522  -3.732  0.00  0.00    +0.121 A 
ATOM     22  C   UNL     1      -1.574  -0.223  -2.589  0.00  0.00    +0.045 A 
ATOM     23  C   UNL     1      -0.212  -0.450  -2.559  0.00  0.00    +0.004 A 
ATOM     24  C   UNL     1       0.427  -0.974  -3.668  0.00  0.00    +0.004 A 
ATOM     25  C   UNL     1      -0.295  -1.272  -4.809  0.00  0.00    -0.042 A 
ATOM     26  C   UNL     1      -1.658  -1.053  -4.841  0.00  0.00    +0.049 A 
BRANCH  21  27
ATOM     27  O   UNL     1      -3.642  -0.301  -3.764  0.00  0.00    -0.492 OA
BRANCH  27  29
ATOM     28  C   UNL     1      -5.740   0.424  -2.809  0.00  0.00    +0.048 C 
ATOM     29  C   UNL     1      -4.237   0.247  -2.586  0.00  0.00    +0.225 C 
ENDBRANCH  27  29
ENDBRANCH  21  27
ENDBRANCH  20  25
ENDBRANCH  19  20
ENDBRANCH  15  19
ENDBRANCH   1  16
BRANCH  11  30
ATOM     30  C   UNL     1       0.359 -10.338  -8.448  0.00  0.00    +0.256 C 
ATOM     31  C   UNL     1       1.016 -10.977  -9.674  0.00  0.00    +0.062 C 
BRANCH  30  32
ATOM     32  O   UNL     1       0.043 -11.354  -7.494  0.00  0.00    -0.480 OA
BRANCH  32  33
ATOM     33  C   UNL     1      -1.138 -12.007  -7.657  0.00  0.00    +0.122 A 
ATOM     34  C   UNL     1      -1.567 -12.916  -6.701  0.00  0.00    +0.045 A 
ATOM     35  C   UNL     1      -2.768 -13.578  -6.869  0.00  0.00    +0.004 A 
ATOM     36  C   UNL     1      -3.542 -13.335  -7.989  0.00  0.00    +0.000 A 
ATOM     37  C   UNL     1      -3.117 -12.430  -8.943  0.00  0.00    +0.004 A 
ATOM     38  C   UNL     1      -1.919 -11.761  -8.777  0.00  0.00    +0.045 A 
ENDBRANCH  32  33
ENDBRANCH  30  32
ENDBRANCH  11  30
TORSDOF 9
