REMARK  Name = ZINC32505822
REMARK  10 active torsions:
REMARK  status: ('A' for Active; 'I' for Inactive)
REMARK    1  A    between atoms: C_1  and  O_2
REMARK    2  A    between atoms: O_2  and  C_3
REMARK    3  A    between atoms: C_5  and  O_31
REMARK    4  A    between atoms: C_8  and  N_9
REMARK    5  A    between atoms: N_21  and  C_22
REMARK    6  A    between atoms: C_22  and  C_24
REMARK    7  A    between atoms: C_24  and  O_25
REMARK    8  A    between atoms: O_25  and  C_26
REMARK    9  A    between atoms: C_26  and  C_27
REMARK   10  A    between atoms: O_31  and  C_32
REMARK                            x       y       z     vdW  Elec       q    Type
REMARK                         _______ _______ _______ _____ _____    ______ ____
ROOT
ATOM      1  N   UNL     1      -4.987  -5.246   0.016  0.00  0.00    -0.273 N 
ATOM      2  C   UNL     1      -6.418  -5.470  -0.019  0.00  0.00    +0.116 C 
ATOM      3  C   UNL     1      -6.747  -6.335  -1.259  0.00  0.00    +0.190 C 
ATOM      4  S   UNL     1      -8.396  -5.675  -1.755  0.00  0.00    -0.028 S 
ATOM      5  O   UNL     1      -8.500  -5.684  -3.172  0.00  0.00    -0.174 OA
ATOM      6  O   UNL     1      -9.406  -6.292  -0.969  0.00  0.00    -0.174 OA
ATOM      7  C   UNL     1      -8.154  -3.950  -1.164  0.00  0.00    +0.182 C 
ATOM      8  C   UNL     1      -7.234  -4.174   0.052  0.00  0.00    +0.097 C 
ATOM      9  S   UNL     1      -5.911  -2.908   0.042  0.00  0.00    -0.086 S 
ATOM     10  C   UNL     1      -4.489  -3.982   0.024  0.00  0.00    +0.154 C 
ATOM     11  N   UNL     1      -3.211  -3.622   0.013  0.00  0.00    -0.157 NA
ENDROOT
BRANCH   1  17
ATOM     12  C   UNL     1      -3.640  -6.890  -1.143  0.00  0.00    +0.145 A 
ATOM     13  C   UNL     1      -2.774  -7.971  -1.110  0.00  0.00    +0.094 A 
ATOM     14  C   UNL     1      -2.377  -8.503   0.107  0.00  0.00    +0.142 A 
ATOM     15  C   UNL     1      -2.846  -7.954   1.292  0.00  0.00    +0.084 A 
ATOM     16  C   UNL     1      -3.706  -6.872   1.262  0.00  0.00    +0.050 A 
ATOM     17  C   UNL     1      -4.110  -6.340   0.047  0.00  0.00    +0.079 A 
ATOM     18 CL   UNL     1      -2.346  -8.622   2.815  0.00  0.00    -0.080 Cl
BRANCH  12  20
ATOM     19  C   UNL     1      -3.509  -6.982  -3.516  0.00  0.00    +0.277 C 
ATOM     20  O   UNL     1      -4.031  -6.367  -2.336  0.00  0.00    -0.493 OA
ENDBRANCH  12  20
BRANCH  14  21
ATOM     21  O   UNL     1      -1.527  -9.564   0.139  0.00  0.00    -0.494 OA
ATOM     22  C   UNL     1      -1.083 -10.079  -1.118  0.00  0.00    +0.277 C 
ENDBRANCH  14  21
ENDBRANCH   1  17
BRANCH  11  23
ATOM     23  C   UNL     1      -2.883  -2.333   0.017  0.00  0.00    +0.264 C 
ATOM     24  O   UNL     1      -3.753  -1.484   0.030  0.00  0.00    -0.271 OA
BRANCH  23  25
ATOM     25  C   UNL     1      -1.432  -1.925   0.005  0.00  0.00    +0.258 C 
BRANCH  25  26
ATOM     26  O   UNL     1      -1.339  -0.499   0.012  0.00  0.00    -0.359 OA
BRANCH  26  27
ATOM     27  C   UNL     1       0.002  -0.004   0.002  0.00  0.00    +0.285 C 
BRANCH  27  28
ATOM     28  C   UNL     1      -0.018   1.503   0.010  0.00  0.00    +0.381 C 
ATOM     29  O   UNL     1      -1.073   2.093   0.018  0.00  0.00    -0.244 OA
ATOM     30  O   UNL     1       1.135   2.190   0.003  0.00  0.00    -0.244 OA
ENDBRANCH  27  28
ENDBRANCH  26  27
ENDBRANCH  25  26
ENDBRANCH  23  25
ENDBRANCH  11  23
TORSDOF 8
