REMARK  Name = ZINC21868901
REMARK  7 active torsions:
REMARK  status: ('A' for Active; 'I' for Inactive)
REMARK    1  A    between atoms: C_1  and  C_2
REMARK    2  A    between atoms: C_8  and  N_33
REMARK    3  A    between atoms: C_12  and  C_23
REMARK    4  A    between atoms: C_12  and  C_24
REMARK    5  A    between atoms: N_13  and  C_16
REMARK    6  A    between atoms: C_16  and  C_17
REMARK    7  A    between atoms: N_26  and  C_27
REMARK                            x       y       z     vdW  Elec       q    Type
REMARK                         _______ _______ _______ _____ _____    ______ ____
ROOT
ATOM      1  C   UNL     1       6.703   4.227  -9.227  0.00  0.00    +0.044 C 
ATOM      2  C   UNL     1       6.260   3.639  -7.913  0.00  0.00    -0.050 A 
ATOM      3  C   UNL     1       6.720   2.384  -7.549  0.00  0.00    +0.005 A 
ATOM      4  C   UNL     1       6.356   1.777  -6.361  0.00  0.00    +0.027 A 
ATOM      5  C   UNL     1       5.493   2.488  -5.524  0.00  0.00    +0.052 A 
ATOM      6  C   UNL     1       5.028   3.776  -5.902  0.00  0.00    +0.025 A 
ATOM      7  C   UNL     1       5.412   4.364  -7.112  0.00  0.00    +0.015 A 
ATOM      8  C   UNL     1       4.167   4.243  -4.827  0.00  0.00    +0.084 A 
ATOM      9  C   UNL     1       4.154   3.260  -3.889  0.00  0.00    +0.130 A 
ATOM     10  N   UNL     1       4.950   2.189  -4.318  0.00  0.00    -0.332 N 
ATOM     11  C   UNL     1       5.087   0.972  -3.506  0.00  0.00    +0.157 C 
ATOM     12  C   UNL     1       4.947   1.338  -2.026  0.00  0.00    +0.129 C 
ATOM     13  N   UNL     1       3.792   2.191  -1.770  0.00  0.00    -0.276 N 
ATOM     14  C   UNL     1       3.461   3.210  -2.596  0.00  0.00    +0.266 C 
ATOM     15  O   UNL     1       2.631   4.043  -2.283  0.00  0.00    -0.268 OA
ATOM     16  C   UNL     1       6.212   2.070  -1.571  0.00  0.00    +0.043 C 
ENDROOT
BRANCH   8  17
ATOM     17  N   UNL     1       3.486   5.460  -4.770  0.00  0.00    -0.321 N 
ATOM     18  C   UNL     1       2.128   5.615  -4.778  0.00  0.00    +0.091 A 
ATOM     19  C   UNL     1       1.855   6.933  -4.708  0.00  0.00    +0.019 A 
ATOM     20  C   UNL     1       3.086   7.620  -4.664  0.00  0.00    +0.019 A 
ATOM     21  C   UNL     1       4.067   6.695  -4.704  0.00  0.00    +0.091 A 
ENDBRANCH   8  17
BRANCH  12  22
ATOM     22  C   UNL     1       4.805   0.071  -1.222  0.00  0.00    +0.238 C 
ATOM     23  O   UNL     1       5.086   0.067  -0.042  0.00  0.00    -0.273 OA
ATOM     24  N   UNL     1       4.366  -1.057  -1.814  0.00  0.00    -0.311 N 
ATOM     25  H   UNL     1       4.036  -1.035  -2.863  0.00  0.00    +0.149 HD
BRANCH  24  26
ATOM     26  C   UNL     1       4.327  -2.312  -1.060  0.00  0.00    +0.073 C 
ATOM     27  C   UNL     1       5.742  -2.883  -0.946  0.00  0.00    +0.022 C 
ATOM     28  C   UNL     1       5.702  -4.194  -0.159  0.00  0.00    +0.002 C 
ATOM     29  C   UNL     1       4.805  -5.198  -0.886  0.00  0.00    +0.000 C 
ATOM     30  C   UNL     1       3.390  -4.628  -1.000  0.00  0.00    +0.002 C 
ATOM     31  C   UNL     1       3.430  -3.316  -1.787  0.00  0.00    +0.022 C 
ENDBRANCH  24  26
ENDBRANCH  12  22
BRANCH  13  32
ATOM     32  C   UNL     1       2.971   1.940  -0.584  0.00  0.00    +0.146 C 
BRANCH  32  33
ATOM     33  C   UNL     1       1.861   0.983  -0.934  0.00  0.00    -0.012 A 
ATOM     34  C   UNL     1       1.987  -0.370  -0.660  0.00  0.00    +0.008 A 
ATOM     35  C   UNL     1       0.940  -1.213  -1.000  0.00  0.00    +0.020 A 
ATOM     36  C   UNL     1      -0.187  -0.681  -1.596  0.00  0.00    +0.111 A 
ATOM     37  N   UNL     1      -0.273   0.612  -1.842  0.00  0.00    -0.263 NA
ATOM     38  C   UNL     1       0.703   1.443  -1.533  0.00  0.00    +0.115 A 
ENDBRANCH  32  33
ENDBRANCH  13  32
TORSDOF 5
