REMARK  Name = ZINC01875307
REMARK  11 active torsions:
REMARK  status: ('A' for Active; 'I' for Inactive)
REMARK    1  A    between atoms: C_1  and  C_2
REMARK    2  A    between atoms: C_2  and  C_4
REMARK    3  A    between atoms: C_2  and  N_10
REMARK    4  A    between atoms: N_10  and  S_11
REMARK    5  A    between atoms: S_11  and  C_14
REMARK    6  A    between atoms: N_21  and  O_22
REMARK    7  A    between atoms: C_27  and  S_29
REMARK    8  A    between atoms: S_29  and  N_32
REMARK    9  A    between atoms: N_32  and  C_33
REMARK   10  A    between atoms: C_33  and  C_35
REMARK   11  A    between atoms: C_33  and  C_36
REMARK                            x       y       z     vdW  Elec       q    Type
REMARK                         _______ _______ _______ _____ _____    ______ ____
ROOT
ATOM      1  C   UNL     1       1.174   1.784   0.000  0.00  0.00    +0.106 A 
ATOM      2  C   UNL     1       1.161   3.168   0.007  0.00  0.00    +0.029 A 
ATOM      3  C   UNL     1      -0.036   3.857   0.022  0.00  0.00    +0.011 A 
ATOM      4  C   UNL     1      -1.241   3.160   0.030  0.00  0.00    -0.008 A 
ATOM      5  C   UNL     1      -1.226   1.756   0.017  0.00  0.00    +0.014 A 
ATOM      6  C   UNL     1      -0.013   1.076   0.008  0.00  0.00    +0.039 A 
ATOM      7  C   UNL     1      -2.632   1.288   0.022  0.00  0.00    +0.118 C 
ATOM      8  N   UNL     1      -3.036   0.051   0.018  0.00  0.00    -0.086 NA
ATOM      9  C   UNL     1      -3.490   2.496   0.032  0.00  0.00    +0.014 A 
ATOM     10  C   UNL     1      -2.649   3.620   0.044  0.00  0.00    -0.008 A 
ATOM     11  C   UNL     1      -3.210   4.895   0.043  0.00  0.00    +0.011 A 
ATOM     12  C   UNL     1      -4.583   5.045   0.051  0.00  0.00    +0.029 A 
ATOM     13  C   UNL     1      -5.410   3.936   0.049  0.00  0.00    +0.106 A 
ATOM     14  C   UNL     1      -4.871   2.664   0.040  0.00  0.00    +0.039 A 
ENDROOT
BRANCH   1  15
ATOM     15  S   UNL     1       2.710   0.921  -0.018  0.00  0.00    +0.059 S 
ATOM     16  O   UNL     1       3.679   1.805   0.528  0.00  0.00    -0.153 OA
ATOM     17  O   UNL     1       2.459  -0.366   0.529  0.00  0.00    -0.153 OA
BRANCH  15  18
ATOM     18  N   UNL     1       3.123   0.689  -1.605  0.00  0.00    -0.183 NA
ATOM     19  H   UNL     1       3.011  -0.312  -2.048  0.00  0.00    +0.149 HD
BRANCH  18  21
ATOM     20  C   UNL     1       4.931   2.082  -2.483  0.00  0.00    +0.031 C 
ATOM     21  C   UNL     1       3.420   1.840  -2.460  0.00  0.00    +0.103 C 
BRANCH  21  22
ATOM     22  C   UNL     1       2.934   1.565  -3.860  0.00  0.00    -0.029 A 
ATOM     23  C   UNL     1       3.098   0.308  -4.413  0.00  0.00    +0.005 A 
ATOM     24  C   UNL     1       2.648   0.054  -5.696  0.00  0.00    +0.000 A 
ATOM     25  C   UNL     1       2.044   1.059  -6.428  0.00  0.00    +0.000 A 
ATOM     26  C   UNL     1       1.885   2.317  -5.877  0.00  0.00    +0.000 A 
ATOM     27  C   UNL     1       2.331   2.569  -4.593  0.00  0.00    +0.005 A 
ENDBRANCH  21  22
ENDBRANCH  18  21
ENDBRANCH  15  18
ENDBRANCH   1  15
BRANCH  13  28
ATOM     28  S   UNL     1      -7.160   4.147   0.058  0.00  0.00    +0.059 S 
ATOM     29  O   UNL     1      -7.417   5.434  -0.485  0.00  0.00    -0.153 OA
ATOM     30  O   UNL     1      -7.715   2.962  -0.496  0.00  0.00    -0.153 OA
BRANCH  28  31
ATOM     31  N   UNL     1      -7.638   4.197   1.643  0.00  0.00    -0.183 NA
ATOM     32  H   UNL     1      -8.142   3.323   2.080  0.00  0.00    +0.149 HD
BRANCH  31  33
ATOM     33  C   UNL     1      -7.203   5.299   2.505  0.00  0.00    +0.103 C 
ATOM     34  C   UNL     1      -5.950   4.879   3.276  0.00  0.00    +0.031 C 
BRANCH  33  35
ATOM     35  C   UNL     1      -8.302   5.640   3.478  0.00  0.00    -0.029 A 
ATOM     36  C   UNL     1      -9.047   4.632   4.059  0.00  0.00    +0.005 A 
ATOM     37  C   UNL     1     -10.053   4.944   4.955  0.00  0.00    +0.000 A 
ATOM     38  C   UNL     1     -10.319   6.266   5.262  0.00  0.00    +0.000 A 
ATOM     39  C   UNL     1      -9.576   7.274   4.677  0.00  0.00    +0.000 A 
ATOM     40  C   UNL     1      -8.568   6.962   3.784  0.00  0.00    +0.005 A 
ENDBRANCH  33  35
ENDBRANCH  31  33
ENDBRANCH  28  31
ENDBRANCH  13  28
BRANCH   8  41
ATOM     41  O   UNL     1      -4.422  -0.241   0.023  0.00  0.00    -0.409 OA
ATOM     42  H   UNL     1      -4.764  -1.287   0.019  0.00  0.00    +0.328 HD
ENDBRANCH   8  41
TORSDOF 9
