REMARK  Name = ZINC05949499
REMARK  15 active torsions:
REMARK  status: ('A' for Active; 'I' for Inactive)
REMARK    1  A    between atoms: C_1  and  C_2
REMARK    2  A    between atoms: C_2  and  O_3
REMARK    3  A    between atoms: O_3  and  C_4
REMARK    4  A    between atoms: C_9  and  C_10
REMARK    5  A    between atoms: C_10  and  N_11
REMARK    6  A    between atoms: N_11  and  C_12
REMARK    7  A    between atoms: N_11  and  C_22
REMARK    8  A    between atoms: C_14  and  C_20
REMARK    9  A    between atoms: C_14  and  C_21
REMARK   10  A    between atoms: C_16  and  C_18
REMARK   11  A    between atoms: C_16  and  C_19
REMARK   12  A    between atoms: C_22  and  N_24
REMARK   13  A    between atoms: N_24  and  C_25
REMARK   14  A    between atoms: C_30  and  O_31
REMARK   15  A    between atoms: O_31  and  C_32
REMARK                            x       y       z     vdW  Elec       q    Type
REMARK                         _______ _______ _______ _____ _____    ______ ____
ROOT
ATOM      1  N   UNL     1      -4.674  -0.446  -1.424  0.00  0.00    -0.305 N 
ENDROOT
BRANCH   1   2
ATOM      2  C   UNL     1      -5.368  -1.450  -2.240  0.00  0.00    +0.073 C 
ATOM      3  C   UNL     1      -6.250  -0.741  -3.268  0.00  0.00    +0.009 C 
ATOM      4  C   UNL     1      -6.971  -1.774  -4.133  0.00  0.00    -0.072 C 
ATOM      5  N   UNL     1      -6.046  -2.716  -4.747  0.00  0.00    +0.386 N 
ATOM      6  C   UNL     1      -5.021  -3.305  -3.900  0.00  0.00    -0.072 C 
ATOM      7  C   UNL     1      -4.336  -2.290  -2.991  0.00  0.00    +0.009 C 
ATOM      8  C   UNL     1      -3.934  -3.896  -4.829  0.00  0.00    -0.010 C 
ATOM      9  C   UNL     1      -5.573  -4.464  -3.065  0.00  0.00    -0.010 C 
ATOM     10  C   UNL     1      -8.056  -2.480  -3.321  0.00  0.00    -0.010 C 
ATOM     11  C   UNL     1      -7.678  -1.005  -5.273  0.00  0.00    -0.010 C 
ATOM     12  H   UNL     1      -6.590  -3.473  -5.168  0.00  0.00    -0.084 HD
ATOM     13  H   UNL     1      -5.585  -2.249  -5.531  0.00  0.00    -0.084 HD
ENDBRANCH   1   2
BRANCH   1  14
ATOM     14  C   UNL     1      -3.896   0.482  -2.017  0.00  0.00    +0.138 C 
ATOM     15  S   UNL     1      -3.223   1.754  -1.089  0.00  0.00    -0.018 S 
BRANCH  14  16
ATOM     16  N   UNL     1      -3.647   0.408  -3.339  0.00  0.00    -0.294 N 
ATOM     17  H   UNL     1      -4.089  -0.266  -3.879  0.00  0.00    +0.154 HD
BRANCH  16  18
ATOM     18  C   UNL     1      -2.750   1.305  -3.934  0.00  0.00    +0.075 A 
ATOM     19  C   UNL     1      -1.672   1.793  -3.210  0.00  0.00    +0.027 A 
ATOM     20  C   UNL     1      -0.788   2.677  -3.800  0.00  0.00    +0.002 A 
ATOM     21  C   UNL     1      -0.975   3.076  -5.110  0.00  0.00    +0.004 A 
ATOM     22  C   UNL     1      -2.046   2.593  -5.838  0.00  0.00    +0.047 A 
ATOM     23  C   UNL     1      -2.934   1.703  -5.256  0.00  0.00    +0.141 A 
BRANCH  23  24
ATOM     24  O   UNL     1      -3.986   1.223  -5.973  0.00  0.00    -0.493 OA
ATOM     25  C   UNL     1      -4.112   1.675  -7.322  0.00  0.00    +0.277 C 
ENDBRANCH  23  24
ENDBRANCH  16  18
ENDBRANCH  14  16
ENDBRANCH   1  14
BRANCH   1  26
ATOM     26  C   UNL     1      -4.828  -0.451   0.033  0.00  0.00    +0.145 C 
BRANCH  26  32
ATOM     27  C   UNL     1      -2.619  -1.222   0.935  0.00  0.00    +0.125 A 
ATOM     28  C   UNL     1      -1.805  -2.200   1.487  0.00  0.00    +0.046 A 
ATOM     29  C   UNL     1      -2.310  -3.464   1.725  0.00  0.00    +0.004 A 
ATOM     30  C   UNL     1      -3.626  -3.753   1.413  0.00  0.00    +0.001 A 
ATOM     31  C   UNL     1      -4.439  -2.780   0.862  0.00  0.00    +0.009 A 
ATOM     32  C   UNL     1      -3.939  -1.513   0.627  0.00  0.00    +0.011 A 
BRANCH  27  33
ATOM     33  O   UNL     1      -2.124   0.022   0.700  0.00  0.00    -0.492 OA
BRANCH  33  35
ATOM     34  C   UNL     1      -0.381   1.697   0.708  0.00  0.00    +0.048 C 
ATOM     35  C   UNL     1      -0.755   0.251   1.041  0.00  0.00    +0.225 C 
ENDBRANCH  33  35
ENDBRANCH  27  33
ENDBRANCH  26  32
ENDBRANCH   1  26
TORSDOF 9
