REMARK  Name = ZINC03334086
REMARK  10 active torsions:
REMARK  status: ('A' for Active; 'I' for Inactive)
REMARK    1  A    between atoms: C_1  and  C_2
REMARK    2  A    between atoms: C_6  and  N_9
REMARK    3  A    between atoms: C_7  and  C_8
REMARK    4  A    between atoms: C_14  and  N_15
REMARK    5  A    between atoms: C_14  and  N_71
REMARK    6  A    between atoms: N_18  and  C_28
REMARK    7  A    between atoms: C_19  and  C_21
REMARK    8  A    between atoms: C_33  and  C_34
REMARK    9  A    between atoms: C_34  and  C_35
REMARK   10  A    between atoms: C_34  and  C_36
REMARK                            x       y       z     vdW  Elec       q    Type
REMARK                         _______ _______ _______ _____ _____    ______ ____
ROOT
ATOM      1  N   UNL     1       0.002  -0.004   0.002  0.00  0.00    -0.257 N 
ATOM      2  C   UNL     1      -0.016   1.345   0.009  0.00  0.00    +0.181 A 
ATOM      3  S   UNL     1      -1.412   2.336   0.022  0.00  0.00    -0.011 S 
ATOM      4  N   UNL     1       1.262   1.771  -0.001  0.00  0.00    -0.271 N 
ATOM      5  C   UNL     1       2.088   0.662  -0.014  0.00  0.00    +0.167 A 
ATOM      6  N   UNL     1       1.344  -0.408  -0.013  0.00  0.00    -0.152 NA
ENDROOT
BRANCH   5   7
ATOM      7  C   UNL     1       3.567   0.686  -0.028  0.00  0.00    +0.020 A 
ATOM      8  C   UNL     1       4.252   1.863   0.278  0.00  0.00    +0.013 A 
ATOM      9  C   UNL     1       5.631   1.878   0.270  0.00  0.00    +0.021 A 
ATOM     10  C   UNL     1       6.336   0.731  -0.053  0.00  0.00    +0.041 A 
ATOM     11  C   UNL     1       5.663  -0.438  -0.363  0.00  0.00    +0.021 A 
ATOM     12  C   UNL     1       4.284  -0.467  -0.352  0.00  0.00    +0.013 A 
ATOM     13 CL   UNL     1       8.072   0.760  -0.070  0.00  0.00    -0.084 Cl
ENDBRANCH   5   7
BRANCH   4  14
ATOM     14  C   UNL     1       1.683   3.107   0.002  0.00  0.00    +0.054 A 
ATOM     15  C   UNL     1       1.903   3.765   1.206  0.00  0.00    +0.026 A 
ATOM     16  C   UNL     1       2.317   5.082   1.205  0.00  0.00    +0.002 A 
ATOM     17  C   UNL     1       2.512   5.747   0.008  0.00  0.00    +0.000 A 
ATOM     18  C   UNL     1       2.294   5.095  -1.192  0.00  0.00    +0.006 A 
ATOM     19  C   UNL     1       1.885   3.775  -1.198  0.00  0.00    -0.021 A 
BRANCH  19  20
ATOM     20  C   UNL     1       1.653   3.063  -2.506  0.00  0.00    +0.015 C 
ATOM     21  C   UNL     1       0.568   3.794  -3.299  0.00  0.00    +0.012 C 
ATOM     22  C   UNL     1       2.952   3.046  -3.314  0.00  0.00    +0.012 C 
ENDBRANCH  19  20
ENDBRANCH   4  14
BRANCH   1  23
ATOM     23  C   UNL     1      -1.168  -0.886   0.008  0.00  0.00    +0.072 C 
BRANCH  23  29
ATOM     24  N   UNL     1      -3.406  -1.345  -3.546  0.00  0.00    -0.333 N 
ATOM     25  C   UNL     1      -2.921  -2.560  -2.875  0.00  0.00    +0.086 C 
ATOM     26  C   UNL     1      -2.586  -2.236  -1.417  0.00  0.00    -0.057 C 
ATOM     27  C   UNL     1      -2.057   0.041  -2.045  0.00  0.00    -0.057 C 
ATOM     28  C   UNL     1      -2.391  -0.283  -3.503  0.00  0.00    +0.086 C 
ATOM     29  N   UNL     1      -1.549  -1.183  -1.389  0.00  0.00    +0.395 N 
ATOM     30  H   UNL     1      -0.722  -1.515  -1.898  0.00  0.00    -0.079 HD
BRANCH  24  36
ATOM     31  C   UNL     1      -6.892  -1.401  -7.009  0.00  0.00    +0.044 C 
ATOM     32  C   UNL     1      -5.474  -1.655  -6.567  0.00  0.00    -0.046 A 
ATOM     33  C   UNL     1      -4.550  -2.160  -7.465  0.00  0.00    +0.004 A 
ATOM     34  C   UNL     1      -3.248  -2.394  -7.064  0.00  0.00    +0.002 A 
ATOM     35  C   UNL     1      -2.865  -2.125  -5.764  0.00  0.00    +0.023 A 
ATOM     36  C   UNL     1      -3.790  -1.618  -4.860  0.00  0.00    +0.033 A 
ATOM     37  C   UNL     1      -5.099  -1.389  -5.265  0.00  0.00    -0.027 A 
ATOM     38  C   UNL     1      -6.107  -0.846  -4.286  0.00  0.00    +0.046 C 
ENDBRANCH  24  36
ENDBRANCH  23  29
ENDBRANCH   1  23
TORSDOF 6
