REMARK  Name = ZINC63827747
REMARK  12 active torsions:
REMARK  status: ('A' for Active; 'I' for Inactive)
REMARK    1  A    between atoms: C_1  and  C_2
REMARK    2  A    between atoms: C_2  and  C_3
REMARK    3  A    between atoms: C_2  and  C_4
REMARK    4  A    between atoms: C_2  and  C_5
REMARK    5  A    between atoms: N_7  and  C_8
REMARK    6  A    between atoms: C_8  and  C_9
REMARK    7  A    between atoms: C_13  and  C_15
REMARK    8  A    between atoms: C_15  and  C_17
REMARK    9  A    between atoms: C_17  and  S_18
REMARK   10  A    between atoms: S_18  and  C_19
REMARK   11  A    between atoms: C_22  and  C_27
REMARK   12  A    between atoms: N_23  and  C_24
REMARK                            x       y       z     vdW  Elec       q    Type
REMARK                         _______ _______ _______ _____ _____    ______ ____
ROOT
ATOM      1  S   UNL     1      -1.202  -9.666  -5.076  0.00  0.00    -0.078 S 
ENDROOT
BRANCH   1   2
ATOM      2  C   UNL     1      -0.668 -10.555  -6.501  0.00  0.00    +0.193 A 
ATOM      3  N   UNL     1       0.486 -10.401  -7.134  0.00  0.00    -0.122 NA
ATOM      4  N   UNL     1       0.554 -11.207  -8.132  0.00  0.00    -0.129 NA
ATOM      5  C   UNL     1      -0.555 -11.929  -8.200  0.00  0.00    +0.163 A 
ATOM      6  N   UNL     1      -1.363 -11.529  -7.150  0.00  0.00    -0.299 N 
BRANCH   5   7
ATOM      7  C   UNL     1      -0.853 -12.916  -9.154  0.00  0.00    +0.025 C 
ATOM      8  C   UNL     1      -0.047 -13.337 -10.211  0.00  0.00    +0.006 A 
ATOM      9  C   UNL     1       1.238 -12.947 -10.644  0.00  0.00    +0.010 A 
ATOM     10  C   UNL     1       1.793 -13.543 -11.731  0.00  0.00    +0.001 A 
ATOM     11  C   UNL     1       1.121 -14.541 -12.440  0.00  0.00    +0.002 A 
ATOM     12  C   UNL     1      -0.115 -14.965 -12.080  0.00  0.00    +0.026 A 
ATOM     13  C   UNL     1      -0.759 -14.390 -10.954  0.00  0.00    +0.043 A 
ATOM     14  N   UNL     1      -1.937 -14.623 -10.410  0.00  0.00    -0.380 N 
ATOM     15  C   UNL     1      -2.113 -13.748  -9.246  0.00  0.00    +0.152 C 
ATOM     16  H   UNL     1      -2.583 -15.273 -10.726  0.00  0.00    +0.160 HD
ENDBRANCH   5   7
BRANCH   6  17
ATOM     17  C   UNL     1      -2.691 -12.044  -6.809  0.00  0.00    +0.091 C 
ATOM     18  C   UNL     1      -3.555 -11.202  -5.869  0.00  0.00    +0.027 C 
ATOM     19  C   UNL     1      -2.922 -12.502  -5.367  0.00  0.00    +0.027 C 
ENDBRANCH   6  17
ENDBRANCH   1   2
BRANCH   1  20
ATOM     20  C   UNL     1       0.171  -8.534  -4.725  0.00  0.00    +0.157 C 
BRANCH  20  21
ATOM     21  C   UNL     1      -0.161  -7.703  -3.512  0.00  0.00    +0.179 C 
ATOM     22  O   UNL     1      -1.220  -7.859  -2.941  0.00  0.00    -0.291 OA
BRANCH  21  26
ATOM     23  C   UNL     1       2.346  -5.054  -1.460  0.00  0.00    +0.072 C 
ATOM     24  C   UNL     1       2.830  -5.348  -2.903  0.00  0.00    +0.044 C 
ATOM     25  C   UNL     1       1.997  -6.415  -3.538  0.00  0.00    -0.008 C 
ATOM     26  C   UNL     1       0.797  -6.704  -3.022  0.00  0.00    +0.048 C 
ATOM     27  S   UNL     1       0.601  -5.625  -1.614  0.00  0.00    -0.117 S 
BRANCH  23  28
ATOM     28  C   UNL     1       2.420  -3.560  -1.137  0.00  0.00    +0.119 C 
BRANCH  28  31
ATOM     29  C   UNL     1       1.815  -2.068   0.691  0.00  0.00    +0.218 C 
ATOM     30  O   UNL     1       2.245  -1.141   0.037  0.00  0.00    -0.275 OA
ATOM     31  N   UNL     1       1.856  -3.319   0.193  0.00  0.00    -0.314 N 
ATOM     32  H   UNL     1       1.512  -4.061   0.716  0.00  0.00    +0.149 HD
BRANCH  29  34
ATOM     33  C   UNL     1       1.309  -0.326   2.382  0.00  0.00    +0.020 C 
ATOM     34  C   UNL     1       1.235  -1.820   2.060  0.00  0.00    +0.039 C 
ATOM     35  C   UNL     1       2.033  -2.606   3.102  0.00  0.00    +0.020 C 
ATOM     36  C   UNL     1      -0.225  -2.275   2.085  0.00  0.00    +0.020 C 
ENDBRANCH  29  34
ENDBRANCH  28  31
ENDBRANCH  23  28
ENDBRANCH  21  26
ENDBRANCH  20  21
ENDBRANCH   1  20
TORSDOF 9
