REMARK  Name = ZINC00200605
REMARK  4 active torsions:
REMARK  status: ('A' for Active; 'I' for Inactive)
REMARK    1  A    between atoms: C_6  and  O_7
REMARK    2  A    between atoms: C_9  and  N_20
REMARK    3  A    between atoms: C_10  and  C_18
REMARK    4  A    between atoms: C_11  and  C_13
REMARK                            x       y       z     vdW  Elec       q    Type
REMARK                         _______ _______ _______ _____ _____    ______ ____
ROOT
ATOM      1  C   UNL     1      -1.812   3.163  -3.573  0.00  0.00    +0.046 A 
ATOM      2  C   UNL     1      -1.721   2.393  -2.430  0.00  0.00    +0.012 A 
ATOM      3  C   UNL     1      -1.421   2.982  -1.215  0.00  0.00    +0.008 A 
ATOM      4  C   UNL     1      -1.210   4.350  -1.141  0.00  0.00    +0.138 A 
ATOM      5  C   UNL     1      -1.300   5.125  -2.289  0.00  0.00    +0.092 A 
ATOM      6  C   UNL     1      -1.602   4.533  -3.505  0.00  0.00    +0.120 A 
ATOM      7  O   UNL     1      -0.914   4.945   0.041  0.00  0.00    -0.441 OA
ATOM      8  C   UNL     1      -1.194   4.318   1.196  0.00  0.00    +0.199 C 
ATOM      9  C   UNL     1      -1.401   2.981   1.253  0.00  0.00    +0.098 C 
ATOM     10  C   UNL     1      -1.325   2.125   0.020  0.00  0.00    +0.098 C 
ENDROOT
BRANCH  10  11
ATOM     11  C   UNL     1      -0.017   1.378   0.010  0.00  0.00    -0.028 A 
ATOM     12  C   UNL     1       0.002  -0.004   0.002  0.00  0.00    +0.012 A 
ATOM     13  C   UNL     1       1.196  -0.645  -0.013  0.00  0.00    +0.045 A 
ATOM     14  S   UNL     1       2.348   0.719  -0.017  0.00  0.00    -0.105 S 
ATOM     15  C   UNL     1       1.160   2.051   0.002  0.00  0.00    +0.049 A 
ENDBRANCH  10  11
BRANCH   8  16
ATOM     16  N   UNL     1      -1.274   5.054   2.351  0.00  0.00    -0.328 N 
ATOM     17  H   UNL     1      -1.476   4.616   3.193  0.00  0.00    +0.145 HD
ATOM     18  H   UNL     1      -1.129   6.013   2.326  0.00  0.00    +0.145 HD
ENDBRANCH   8  16
BRANCH   6  19
ATOM     19  O   UNL     1      -1.691   5.292  -4.628  0.00  0.00    -0.507 OA
ATOM     20  H   UNL     1      -0.856   5.387  -5.106  0.00  0.00    +0.292 HD
ENDBRANCH   6  19
BRANCH   9  21
ATOM     21  C   UNL     1      -1.696   2.370   2.514  0.00  0.00    +0.101 C 
ATOM     22  N   UNL     1      -1.931   1.886   3.514  0.00  0.00    -0.191 NA
ENDBRANCH   9  21
TORSDOF 4
