REMARK  Name = ZINC18244988
REMARK  9 active torsions:
REMARK  status: ('A' for Active; 'I' for Inactive)
REMARK    1  A    between atoms: C_1  and  C_2
REMARK    2  A    between atoms: C_6  and  N_9
REMARK    3  A    between atoms: C_7  and  C_8
REMARK    4  A    between atoms: C_10  and  C_12
REMARK    5  A    between atoms: C_12  and  O_13
REMARK    6  A    between atoms: O_13  and  C_14
REMARK    7  A    between atoms: C_14  and  C_16
REMARK    8  A    between atoms: C_20  and  N_22
REMARK    9  A    between atoms: C_29  and  C_36
REMARK                            x       y       z     vdW  Elec       q    Type
REMARK                         _______ _______ _______ _____ _____    ______ ____
ROOT
ATOM      1  C   UNL     1      -0.360  -8.585   4.280  0.00  0.00    +0.061 A 
ATOM      2  C   UNL     1      -0.359  -9.115   2.988  0.00  0.00    +0.015 A 
ATOM      3  C   UNL     1      -0.457 -10.479   2.802  0.00  0.00    +0.003 A 
ATOM      4  C   UNL     1      -0.558 -11.324   3.892  0.00  0.00    +0.024 A 
ATOM      5  C   UNL     1      -0.560 -10.806   5.181  0.00  0.00    +0.045 A 
ATOM      6  C   UNL     1      -0.456  -9.438   5.379  0.00  0.00    +0.039 A 
ENDROOT
BRANCH   5   7
ATOM      7  N   UNL     1      -0.663 -11.668   6.282  0.00  0.00    -0.210 N 
ATOM      8  C   UNL     1      -0.795 -11.229   7.546  0.00  0.00    +0.230 C 
ATOM      9  O   UNL     1      -0.988 -10.082   7.887  0.00  0.00    -0.275 OA
ATOM     10  C   UNL     1      -0.658 -12.433   8.476  0.00  0.00    +0.088 C 
ATOM     11  C   UNL     1       0.745 -12.422   9.052  0.00  0.00    +0.014 C 
ATOM     12  C   UNL     1       1.220 -13.810   9.458  0.00  0.00    +0.009 C 
ATOM     13  C   UNL     1       1.194 -14.714   8.221  0.00  0.00    +0.020 C 
ATOM     14  C   UNL     1      -0.258 -14.889   7.791  0.00  0.00    +0.021 C 
ATOM     15  C   UNL     1      -0.972 -13.583   7.530  0.00  0.00    +0.088 C 
ATOM     16  C   UNL     1      -0.645 -13.009   6.169  0.00  0.00    +0.230 C 
ATOM     17  O   UNL     1      -0.409 -13.641   5.162  0.00  0.00    -0.275 OA
BRANCH  13  18
ATOM     18  C   UNL     1       1.790 -16.056   8.558  0.00  0.00    -0.044 A 
ATOM     19  C   UNL     1       1.219 -16.838   9.545  0.00  0.00    +0.004 A 
ATOM     20  C   UNL     1       1.766 -18.069   9.855  0.00  0.00    +0.000 A 
ATOM     21  C   UNL     1       2.884 -18.518   9.178  0.00  0.00    +0.000 A 
ATOM     22  C   UNL     1       3.455 -17.737   8.190  0.00  0.00    +0.000 A 
ATOM     23  C   UNL     1       2.905 -16.508   7.878  0.00  0.00    +0.004 A 
ENDBRANCH  13  18
ENDBRANCH   5   7
BRANCH   1  24
ATOM     24  C   UNL     1      -0.255  -7.125   4.482  0.00  0.00    +0.340 C 
ATOM     25  O   UNL     1      -0.252  -6.666   5.607  0.00  0.00    -0.245 OA
BRANCH  24  26
ATOM     26  O   UNL     1      -0.163  -6.303   3.419  0.00  0.00    -0.452 OA
BRANCH  26  27
ATOM     27  C   UNL     1      -0.064  -4.903   3.688  0.00  0.00    +0.328 C 
BRANCH  27  29
ATOM     28  N   UNL     1       0.131  -2.803   2.396  0.00  0.00    -0.282 N 
ATOM     29  C   UNL     1       0.029  -4.147   2.388  0.00  0.00    +0.255 C 
ATOM     30  O   UNL     1       0.013  -4.747   1.334  0.00  0.00    -0.272 OA
ATOM     31  H   UNL     1       0.228  -2.329   3.236  0.00  0.00    +0.155 HD
BRANCH  28  37
ATOM     32  C   UNL     1       1.299   1.220  -0.178  0.00  0.00    +0.044 C 
ATOM     33  C   UNL     1       0.654  -0.139  -0.084  0.00  0.00    -0.046 A 
ATOM     34  C   UNL     1       0.028  -0.684  -1.190  0.00  0.00    +0.004 A 
ATOM     35  C   UNL     1      -0.565  -1.931  -1.108  0.00  0.00    +0.002 A 
ATOM     36  C   UNL     1      -0.532  -2.636   0.080  0.00  0.00    +0.023 A 
ATOM     37  C   UNL     1       0.097  -2.091   1.191  0.00  0.00    +0.037 A 
ATOM     38  C   UNL     1       0.695  -0.841   1.104  0.00  0.00    -0.026 A 
ATOM     39  C   UNL     1       1.383  -0.249   2.307  0.00  0.00    +0.046 C 
ENDBRANCH  28  37
ENDBRANCH  27  29
ENDBRANCH  26  27
ENDBRANCH  24  26
ENDBRANCH   1  24
TORSDOF 7
