REMARK  Name = ZINC39934968
REMARK  9 active torsions:
REMARK  status: ('A' for Active; 'I' for Inactive)
REMARK    1  A    between atoms: C_1  and  C_2
REMARK    2  A    between atoms: C_4  and  C_21
REMARK    3  A    between atoms: C_5  and  C_20
REMARK    4  A    between atoms: N_6  and  C_7
REMARK    5  A    between atoms: C_9  and  C_18
REMARK    6  A    between atoms: C_22  and  C_23
REMARK    7  A    between atoms: C_22  and  C_25
REMARK    8  A    between atoms: C_31  and  O_35
REMARK    9  A    between atoms: O_35  and  C_36
REMARK                            x       y       z     vdW  Elec       q    Type
REMARK                         _______ _______ _______ _____ _____    ______ ____
ROOT
ATOM      1  C   UNL     1      -0.387   1.522  -0.059  0.00  0.00    +0.063 C 
ATOM      2  C   UNL     1      -0.106   0.042  -0.076  0.00  0.00    +0.018 A 
ATOM      3  C   UNL     1      -0.295  -0.775  -1.127  0.00  0.00    +0.030 A 
ATOM      4  C   UNL     1       0.107  -2.117  -0.692  0.00  0.00    -0.003 A 
ATOM      5  C   UNL     1       0.514  -1.984   0.620  0.00  0.00    +0.024 A 
ATOM      6  N   UNL     1       0.385  -0.682   0.970  0.00  0.00    -0.331 N 
ATOM      7  C   UNL     1       1.021  -3.093   1.506  0.00  0.00    +0.064 C 
ENDROOT
BRANCH   6   8
ATOM      8  C   UNL     1       0.720  -0.131   2.286  0.00  0.00    +0.186 C 
ATOM      9  C   UNL     1      -0.310  -0.532   3.326  0.00  0.00    +0.062 C 
ATOM     10  C   UNL     1       0.103  -1.005   4.474  0.00  0.00    -0.040 C 
ATOM     11  C   UNL     1      -0.799  -1.556   5.578  0.00  0.00    +0.033 C 
ATOM     12  C   UNL     1       0.081  -1.712   6.821  0.00  0.00    +0.004 C 
ATOM     13  C   UNL     1       1.234  -2.676   6.585  0.00  0.00    +0.002 C 
ATOM     14  C   UNL     1       1.879  -2.509   5.212  0.00  0.00    +0.019 C 
ATOM     15  C   UNL     1       1.621  -1.091   4.696  0.00  0.00    +0.076 C 
ATOM     16  S   UNL     1       2.239  -0.924   2.972  0.00  0.00    -0.123 S 
BRANCH   9  17
ATOM     17  C   UNL     1      -1.710  -0.395   3.055  0.00  0.00    +0.098 C 
ATOM     18  N   UNL     1      -2.820  -0.286   2.841  0.00  0.00    -0.191 NA
ENDBRANCH   9  17
ENDBRANCH   6   8
BRANCH   4  19
ATOM     19  C   UNL     1       0.082  -3.350  -1.489  0.00  0.00    +0.028 C 
ATOM     20  C   UNL     1      -0.634  -3.400  -2.634  0.00  0.00    +0.072 C 
BRANCH  20  21
ATOM     21  C   UNL     1      -0.503  -4.586  -3.554  0.00  0.00    +0.216 C 
ATOM     22  N   UNL     1      -0.077  -4.145  -4.887  0.00  0.00    -0.359 N 
ATOM     23  C   UNL     1      -1.008  -4.489  -5.730  0.00  0.00    +0.061 A 
ATOM     24  C   UNL     1      -1.138  -4.316  -7.185  0.00  0.00    +0.031 A 
ATOM     25  C   UNL     1      -2.232  -4.779  -7.818  0.00  0.00    +0.048 A 
ATOM     26  C   UNL     1      -3.307  -5.456  -7.103  0.00  0.00    +0.122 A 
ATOM     27  C   UNL     1      -3.261  -5.653  -5.763  0.00  0.00    +0.073 A 
ATOM     28  C   UNL     1      -2.105  -5.178  -4.999  0.00  0.00    +0.064 A 
ATOM     29  N   UNL     1      -1.808  -5.235  -3.728  0.00  0.00    -0.359 N 
ATOM     30  H   UNL     1       0.747  -3.681  -5.102  0.00  0.00    +0.162 HD
ATOM     31  H   UNL     1      -2.350  -5.633  -3.028  0.00  0.00    +0.162 HD
BRANCH  26  32
ATOM     32  O   UNL     1      -4.384  -5.900  -7.798  0.00  0.00    -0.495 OA
ATOM     33  C   UNL     1      -4.386  -5.668  -9.209  0.00  0.00    +0.277 C 
ENDBRANCH  26  32
ENDBRANCH  20  21
BRANCH  20  34
ATOM     34  C   UNL     1      -1.518  -2.325  -2.973  0.00  0.00    +0.099 C 
ATOM     35  N   UNL     1      -2.219  -1.472  -3.242  0.00  0.00    -0.191 NA
ENDBRANCH  20  34
ENDBRANCH   4  19
TORSDOF 6
