REMARK  Name = ZINC36690315
REMARK  17 active torsions:
REMARK  status: ('A' for Active; 'I' for Inactive)
REMARK    1  A    between atoms: C_1  and  C_2
REMARK    2  A    between atoms: C_2  and  C_3
REMARK    3  A    between atoms: C_2  and  C_4
REMARK    4  A    between atoms: C_4  and  N_5
REMARK    5  A    between atoms: N_5  and  C_6
REMARK    6  A    between atoms: N_5  and  S_10
REMARK    7  A    between atoms: C_6  and  C_7
REMARK    8  A    between atoms: C_7  and  C_8
REMARK    9  A    between atoms: C_7  and  C_9
REMARK   10  A    between atoms: S_10  and  C_13
REMARK   11  A    between atoms: C_16  and  C_19
REMARK   12  A    between atoms: N_21  and  C_22
REMARK   13  A    between atoms: C_22  and  C_23
REMARK   14  A    between atoms: C_23  and  C_24
REMARK   15  A    between atoms: C_24  and  N_25
REMARK   16  A    between atoms: N_25  and  C_26
REMARK   17  A    between atoms: N_25  and  C_27
REMARK                            x       y       z     vdW  Elec       q    Type
REMARK                         _______ _______ _______ _____ _____    ______ ____
ROOT
ATOM      1  C   UNL     1       3.404  -4.981  -3.129  0.00  0.00    +0.252 C 
ATOM      2  O   UNL     1       3.693  -4.651  -4.263  0.00  0.00    -0.270 OA
ATOM      3  N   UNL     1       4.261  -5.729  -2.406  0.00  0.00    -0.246 N 
ATOM      4  C   UNL     1       5.524  -6.008  -2.901  0.00  0.00    +0.168 A 
ATOM      5  N   UNL     1       6.452  -6.787  -2.396  0.00  0.00    -0.224 NA
ATOM      6  C   UNL     1       7.650  -6.968  -2.993  0.00  0.00    +0.080 A 
ATOM      7  C   UNL     1       8.729  -7.773  -2.558  0.00  0.00    +0.029 A 
ATOM      8  C   UNL     1       9.886  -7.846  -3.288  0.00  0.00    +0.002 A 
ATOM      9  C   UNL     1      10.043  -7.140  -4.472  0.00  0.00    +0.001 A 
ATOM     10  C   UNL     1       9.008  -6.343  -4.927  0.00  0.00    +0.017 A 
ATOM     11  C   UNL     1       7.845  -6.263  -4.202  0.00  0.00    +0.041 A 
ATOM     12  S   UNL     1       6.301  -5.405  -4.393  0.00  0.00    -0.052 S 
ENDROOT
BRANCH   1  16
ATOM     13  C   UNL     1      -0.306  -3.779  -1.447  0.00  0.00    +0.106 A 
ATOM     14  C   UNL     1       0.378  -2.921  -2.290  0.00  0.00    +0.029 A 
ATOM     15  C   UNL     1       1.584  -3.305  -2.839  0.00  0.00    +0.015 A 
ATOM     16  C   UNL     1       2.113  -4.563  -2.543  0.00  0.00    +0.037 A 
ATOM     17  C   UNL     1       1.417  -5.424  -1.693  0.00  0.00    +0.015 A 
ATOM     18  C   UNL     1       0.216  -5.025  -1.145  0.00  0.00    +0.029 A 
BRANCH  13  19
ATOM     19  S   UNL     1      -1.845  -3.280  -0.750  0.00  0.00    +0.061 S 
ATOM     20  O   UNL     1      -2.549  -4.472  -0.424  0.00  0.00    -0.153 OA
ATOM     21  O   UNL     1      -2.382  -2.291  -1.617  0.00  0.00    -0.153 OA
BRANCH  19  22
ATOM     22  N   UNL     1      -1.510  -2.522   0.684  0.00  0.00    -0.176 NA
BRANCH  22  23
ATOM     23  C   UNL     1      -1.278  -1.076   0.711  0.00  0.00    +0.112 C 
BRANCH  23  25
ATOM     24  C   UNL     1       0.459   0.713   0.552  0.00  0.00    +0.008 C 
ATOM     25  C   UNL     1       0.221  -0.798   0.575  0.00  0.00    -0.001 C 
ATOM     26  C   UNL     1       0.964  -1.414   1.762  0.00  0.00    +0.008 C 
ENDBRANCH  23  25
ENDBRANCH  22  23
BRANCH  22  27
ATOM     27  C   UNL     1      -1.447  -3.298   1.925  0.00  0.00    +0.112 C 
BRANCH  27  28
ATOM     28  C   UNL     1      -2.821  -3.298   2.597  0.00  0.00    -0.001 C 
ATOM     29  C   UNL     1      -2.771  -4.160   3.861  0.00  0.00    +0.008 C 
ATOM     30  C   UNL     1      -3.207  -1.866   2.972  0.00  0.00    +0.008 C 
ENDBRANCH  27  28
ENDBRANCH  22  27
ENDBRANCH  19  22
ENDBRANCH  13  19
ENDBRANCH   1  16
BRANCH   3  31
ATOM     31  C   UNL     1       3.857  -6.246  -1.096  0.00  0.00    +0.114 C 
BRANCH  31  32
ATOM     32  C   UNL     1       3.406  -7.701  -1.240  0.00  0.00    +0.001 C 
BRANCH  32  33
ATOM     33  C   UNL     1       2.850  -8.197   0.097  0.00  0.00    -0.078 C 
BRANCH  33  34
ATOM     34  N   UNL     1       2.417  -9.593  -0.041  0.00  0.00    +0.376 N 
ATOM     35  C   UNL     1       1.995 -10.107   1.270  0.00  0.00    -0.097 C 
ATOM     36  C   UNL     1       1.291  -9.666  -0.981  0.00  0.00    -0.097 C 
ATOM     37  H   UNL     1       3.183 -10.150  -0.389  0.00  0.00    -0.083 HD
ENDBRANCH  33  34
ENDBRANCH  32  33
ENDBRANCH  31  32
ENDBRANCH   3  31
TORSDOF 11
