REMARK  Name = ZINC06283180
REMARK  8 active torsions:
REMARK  status: ('A' for Active; 'I' for Inactive)
REMARK    1  A    between atoms: C_1  and  C_2
REMARK    2  A    between atoms: C_2  and  O_36
REMARK    3  A    between atoms: C_6  and  C_28
REMARK    4  A    between atoms: C_7  and  C_19
REMARK    5  A    between atoms: C_9  and  C_11
REMARK    6  A    between atoms: C_11  and  C_13
REMARK    7  A    between atoms: C_22  and  N_25
REMARK    8  A    between atoms: C_28  and  C_30
REMARK                            x       y       z     vdW  Elec       q    Type
REMARK                         _______ _______ _______ _____ _____    ______ ____
ROOT
ATOM      1  C   UNL     1      -0.832   0.679  -0.528  0.00  0.00    +0.042 C 
ATOM      2  C   UNL     1      -0.212  -0.675  -0.178  0.00  0.00    +0.081 C 
ATOM      3  C   UNL     1      -1.318  -1.723  -0.032  0.00  0.00    +0.114 C 
ATOM      4  C   UNL     1      -0.756  -2.987   0.551  0.00  0.00    +0.166 C 
ATOM      5  O   UNL     1      -1.475  -4.121   0.426  0.00  0.00    -0.292 OA
ATOM      6  C   UNL     1       0.415  -3.050   1.185  0.00  0.00    +0.050 C 
ATOM      7  C   UNL     1       1.317  -1.866   1.380  0.00  0.00    +0.069 C 
ATOM      8  C   UNL     1       0.539  -0.568   1.154  0.00  0.00    +0.104 C 
ENDROOT
BRANCH   7   9
ATOM      9  C   UNL     1       1.864  -1.880   2.784  0.00  0.00    -0.039 A 
ATOM     10  C   UNL     1       1.097  -2.379   3.820  0.00  0.00    +0.006 A 
ATOM     11  C   UNL     1       1.598  -2.391   5.108  0.00  0.00    +0.033 A 
ATOM     12  C   UNL     1       2.867  -1.905   5.360  0.00  0.00    +0.126 A 
ATOM     13  C   UNL     1       3.635  -1.407   4.324  0.00  0.00    +0.033 A 
ATOM     14  C   UNL     1       3.135  -1.398   3.036  0.00  0.00    +0.006 A 
BRANCH  12  15
ATOM     15  N   UNL     1       3.404  -1.918   6.740  0.00  0.00    +0.056 N 
ATOM     16  O   UNL     1       2.732  -2.353   7.646  0.00  0.00    -0.126 OA
ATOM     17  O   UNL     1       4.514  -1.493   6.960  0.00  0.00    -0.126 OA
ENDBRANCH  12  15
ENDBRANCH   7   9
BRANCH   8  18
ATOM     18  C   UNL     1      -0.446  -0.367   2.276  0.00  0.00    +0.170 C 
ATOM     19  O   UNL     1      -1.028  -1.320   2.750  0.00  0.00    -0.292 OA
BRANCH  18  20
ATOM     20  C   UNL     1      -0.701   0.985   2.797  0.00  0.00    +0.018 A 
ATOM     21  C   UNL     1      -0.036   2.087   2.250  0.00  0.00    +0.011 A 
ATOM     22  C   UNL     1      -0.282   3.351   2.743  0.00  0.00    +0.001 A 
ATOM     23  C   UNL     1      -1.183   3.530   3.778  0.00  0.00    +0.000 A 
ATOM     24  C   UNL     1      -1.845   2.445   4.325  0.00  0.00    +0.001 A 
ATOM     25  C   UNL     1      -1.615   1.176   3.839  0.00  0.00    +0.011 A 
ENDBRANCH  18  20
ENDBRANCH   8  18
BRANCH   6  26
ATOM     26  C   UNL     1       0.830  -4.301   1.704  0.00  0.00    +0.193 C 
ATOM     27  O   UNL     1       0.202  -4.824   2.606  0.00  0.00    -0.287 OA
BRANCH  26  28
ATOM     28  C   UNL     1       2.027  -4.971   1.149  0.00  0.00    +0.022 A 
ATOM     29  C   UNL     1       2.685  -4.429   0.044  0.00  0.00    +0.012 A 
ATOM     30  C   UNL     1       3.800  -5.059  -0.468  0.00  0.00    +0.001 A 
ATOM     31  C   UNL     1       4.266  -6.227   0.110  0.00  0.00    +0.000 A 
ATOM     32  C   UNL     1       3.618  -6.769   1.206  0.00  0.00    +0.001 A 
ATOM     33  C   UNL     1       2.505  -6.146   1.732  0.00  0.00    +0.012 A 
ENDBRANCH  26  28
ENDBRANCH   6  26
BRANCH   2  34
ATOM     34  O   UNL     1       0.694  -1.070  -1.211  0.00  0.00    -0.388 OA
ATOM     35  H   UNL     1       0.282  -1.162  -2.081  0.00  0.00    +0.210 HD
ENDBRANCH   2  34
TORSDOF 7
