REMARK  Name = ZINC20696969
REMARK  11 active torsions:
REMARK  status: ('A' for Active; 'I' for Inactive)
REMARK    1  A    between atoms: C_1  and  C_2
REMARK    2  A    between atoms: C_2  and  N_3
REMARK    3  A    between atoms: N_3  and  C_4
REMARK    4  A    between atoms: N_3  and  C_6
REMARK    5  A    between atoms: C_4  and  C_5
REMARK    6  A    between atoms: C_9  and  C_12
REMARK    7  A    between atoms: C_23  and  S_28
REMARK    8  A    between atoms: S_28  and  N_31
REMARK    9  A    between atoms: N_31  and  C_32
REMARK   10  A    between atoms: C_35  and  C_39
REMARK   11  A    between atoms: C_37  and  C_38
REMARK                            x       y       z     vdW  Elec       q    Type
REMARK                         _______ _______ _______ _____ _____    ______ ____
ROOT
ATOM      1  C   UNL     1      -2.607   1.105   0.515  0.00  0.00    +0.105 C 
ATOM      2  C   UNL     1      -3.310   1.062   1.860  0.00  0.00    +0.029 C 
ATOM      3  C   UNL     1      -2.631   0.261   2.979  0.00  0.00    +0.033 C 
ATOM      4  C   UNL     1      -3.835  -0.191   3.809  0.00  0.00    -0.030 C 
ATOM      5  C   UNL     1      -4.919  -0.244   3.044  0.00  0.00    -0.023 C 
ATOM      6  C   UNL     1      -4.539   0.126   1.657  0.00  0.00    +0.049 C 
ATOM      7  C   UNL     1      -5.481   0.804   0.741  0.00  0.00    -0.018 A 
ATOM      8  C   UNL     1      -6.848   0.670   0.853  0.00  0.00    +0.034 A 
ATOM      9  C   UNL     1      -7.687   1.294  -0.051  0.00  0.00    +0.109 A 
ATOM     10  C   UNL     1      -7.155   2.061  -1.072  0.00  0.00    +0.030 A 
ATOM     11  C   UNL     1      -5.789   2.209  -1.187  0.00  0.00    +0.025 A 
ATOM     12  C   UNL     1      -4.936   1.590  -0.281  0.00  0.00    +0.031 A 
ATOM     13  N   UNL     1      -3.554   1.768  -0.408  0.00  0.00    -0.336 N 
ATOM     14  H   UNL     1      -3.175   2.414  -1.214  0.00  0.00    +0.147 HD
ENDROOT
BRANCH   1  18
ATOM     15  C   UNL     1       1.002   3.376   0.802  0.00  0.00    +0.030 A 
ATOM     16  C   UNL     1       1.055   1.989   0.753  0.00  0.00    +0.023 A 
ATOM     17  C   UNL     1      -0.114   1.258   0.665  0.00  0.00    +0.007 A 
ATOM     18  C   UNL     1      -1.335   1.906   0.619  0.00  0.00    -0.027 A 
ATOM     19  C   UNL     1      -1.391   3.287   0.673  0.00  0.00    +0.007 A 
ATOM     20  C   UNL     1      -0.226   4.024   0.762  0.00  0.00    +0.023 A 
BRANCH  15  21
ATOM     21  N   UNL     1       2.182   4.118   0.892  0.00  0.00    -0.330 N 
BRANCH  21  23
ATOM     22  C   UNL     1       2.030   6.037   2.401  0.00  0.00    +0.024 C 
ATOM     23  C   UNL     1       2.125   5.581   0.943  0.00  0.00    +0.102 C 
ENDBRANCH  21  23
BRANCH  21  24
ATOM     24  C   UNL     1       3.477   3.434   0.934  0.00  0.00    +0.102 C 
ATOM     25  C   UNL     1       4.003   3.249  -0.491  0.00  0.00    +0.024 C 
ENDBRANCH  21  24
ENDBRANCH  15  21
ENDBRANCH   1  18
BRANCH   9  26
ATOM     26  S   UNL     1      -9.434   1.115   0.099  0.00  0.00    +0.072 S 
ATOM     27  O   UNL     1      -9.695   0.795   1.458  0.00  0.00    -0.150 OA
ATOM     28  O   UNL     1     -10.014   2.241  -0.544  0.00  0.00    -0.150 OA
BRANCH  26  29
ATOM     29  N   UNL     1      -9.867  -0.213  -0.791  0.00  0.00    -0.216 N 
ATOM     30  H   UNL     1     -10.566  -0.106  -1.634  0.00  0.00    +0.174 HD
BRANCH  29  31
ATOM     31  C   UNL     1      -9.345  -1.468  -0.472  0.00  0.00    +0.051 A 
ATOM     32  C   UNL     1      -9.116  -1.810   0.855  0.00  0.00    +0.025 A 
ATOM     33  C   UNL     1      -8.604  -3.054   1.168  0.00  0.00    +0.005 A 
ATOM     34  C   UNL     1      -8.309  -3.955   0.161  0.00  0.00    -0.050 A 
ATOM     35  C   UNL     1      -8.531  -3.616  -1.161  0.00  0.00    +0.008 A 
ATOM     36  C   UNL     1      -9.048  -2.376  -1.480  0.00  0.00    -0.028 A 
ATOM     37  C   UNL     1      -9.289  -2.007  -2.922  0.00  0.00    +0.046 C 
ATOM     38  C   UNL     1      -7.745  -5.309   0.506  0.00  0.00    +0.044 C 
ENDBRANCH  29  31
ENDBRANCH  26  29
ENDBRANCH   9  26
TORSDOF 7
