REMARK  Name = ZINC36597507
REMARK  19 active torsions:
REMARK  status: ('A' for Active; 'I' for Inactive)
REMARK    1  A    between atoms: C_1  and  C_2
REMARK    2  A    between atoms: C_5  and  C_7
REMARK    3  A    between atoms: C_7  and  N_8
REMARK    4  A    between atoms: N_8  and  C_9
REMARK    5  A    between atoms: C_9  and  C_11
REMARK    6  A    between atoms: C_9  and  C_20
REMARK    7  A    between atoms: C_11  and  C_13
REMARK    8  A    between atoms: C_11  and  C_14
REMARK    9  A    between atoms: N_22  and  C_23
REMARK   10  A    between atoms: C_23  and  C_24
REMARK   11  A    between atoms: C_23  and  C_25
REMARK   12  A    between atoms: C_23  and  C_26
REMARK   13  A    between atoms: C_26  and  C_27
REMARK   14  A    between atoms: C_27  and  C_28
REMARK   15  A    between atoms: C_27  and  C_29
REMARK   16  A    between atoms: C_27  and  C_30
REMARK   17  A    between atoms: C_31  and  C_33
REMARK   18  A    between atoms: C_34  and  O_40
REMARK   19  A    between atoms: C_38  and  O_39
REMARK                            x       y       z     vdW  Elec       q    Type
REMARK                         _______ _______ _______ _____ _____    ______ ____
ROOT
ATOM      1  C   UNL     1       3.401  -2.352  -3.876  0.00  0.00    +0.170 C 
ENDROOT
BRANCH   1   2
ATOM      2  C   UNL     1       4.177  -3.617  -3.613  0.00  0.00    +0.235 C 
ATOM      3  O   UNL     1       3.633  -4.562  -3.082  0.00  0.00    -0.274 OA
ATOM      4  N   UNL     1       5.474  -3.699  -3.969  0.00  0.00    -0.309 N 
ATOM      5  H   UNL     1       5.889  -2.973  -4.461  0.00  0.00    +0.149 HD
BRANCH   4   6
ATOM      6  C   UNL     1       6.258  -4.884  -3.613  0.00  0.00    +0.030 C 
ATOM      7  C   UNL     1       6.167  -5.121  -2.105  0.00  0.00    +0.031 C 
ATOM      8  C   UNL     1       5.705  -6.103  -4.356  0.00  0.00    +0.031 C 
BRANCH   6   9
ATOM      9  C   UNL     1       7.720  -4.666  -4.008  0.00  0.00    +0.031 C 
BRANCH   9  10
ATOM     10  C   UNL     1       8.321  -3.554  -3.146  0.00  0.00    -0.036 C 
ATOM     11  C   UNL     1       8.716  -4.125  -1.782  0.00  0.00    +0.010 C 
ATOM     12  C   UNL     1       9.560  -2.985  -3.839  0.00  0.00    +0.010 C 
ATOM     13  C   UNL     1       7.288  -2.443  -2.953  0.00  0.00    +0.010 C 
ENDBRANCH   9  10
ENDBRANCH   6   9
ENDBRANCH   4   6
ENDBRANCH   1   2
BRANCH   1  14
ATOM     14  N   UNL     1       2.148  -2.381  -3.118  0.00  0.00    -0.278 N 
ATOM     15  C   UNL     1       1.251  -3.363  -3.335  0.00  0.00    +0.255 C 
ATOM     16  O   UNL     1       1.483  -4.225  -4.161  0.00  0.00    -0.270 OA
BRANCH  15  17
ATOM     17  C   UNL     1      -0.008  -3.392  -2.574  0.00  0.00    +0.119 A 
ATOM     18  C   UNL     1      -1.146  -2.736  -3.065  0.00  0.00    +0.133 A 
ATOM     19  C   UNL     1      -2.326  -2.770  -2.340  0.00  0.00    +0.046 A 
ATOM     20  C   UNL     1      -2.385  -3.448  -1.137  0.00  0.00    +0.007 A 
ATOM     21  C   UNL     1      -1.269  -4.098  -0.643  0.00  0.00    +0.046 A 
ATOM     22  C   UNL     1      -0.080  -4.081  -1.354  0.00  0.00    +0.133 A 
BRANCH  22  23
ATOM     23  O   UNL     1       1.012  -4.725  -0.870  0.00  0.00    -0.506 OA
ATOM     24  H   UNL     1       1.571  -4.178  -0.301  0.00  0.00    +0.292 HD
ENDBRANCH  22  23
BRANCH  18  25
ATOM     25  O   UNL     1      -1.091  -2.069  -4.245  0.00  0.00    -0.506 OA
ATOM     26  H   UNL     1      -1.315  -2.612  -5.014  0.00  0.00    +0.292 HD
ENDBRANCH  18  25
ENDBRANCH  15  17
BRANCH  14  27
ATOM     27  C   UNL     1       1.870  -1.342  -2.123  0.00  0.00    +0.183 C 
BRANCH  27  32
ATOM     28  C   UNL     1       1.030   3.001  -4.548  0.00  0.00    +0.086 C 
ATOM     29  C   UNL     1       0.785   1.694  -3.837  0.00  0.00    +0.102 A 
ATOM     30  C   UNL     1      -0.419   1.151  -3.583  0.00  0.00    +0.045 A 
ATOM     31  C   UNL     1      -0.183  -0.066  -2.904  0.00  0.00    +0.046 A 
ATOM     32  C   UNL     1       1.150  -0.194  -2.783  0.00  0.00    +0.122 A 
ATOM     33  O   UNL     1       1.732   0.873  -3.356  0.00  0.00    -0.463 OA
ENDBRANCH  27  32
ENDBRANCH  14  27
ENDBRANCH   1  14
BRANCH   1  34
ATOM     34  C   UNL     1       3.091  -2.244  -5.370  0.00  0.00    +0.045 C 
ATOM     35  C   UNL     1       2.212  -1.018  -5.622  0.00  0.00    +0.015 C 
BRANCH  34  36
ATOM     36  C   UNL     1       4.378  -2.107  -6.142  0.00  0.00    -0.042 A 
ATOM     37  C   UNL     1       5.239  -1.059  -5.870  0.00  0.00    +0.004 A 
ATOM     38  C   UNL     1       6.419  -0.933  -6.578  0.00  0.00    +0.000 A 
ATOM     39  C   UNL     1       6.740  -1.854  -7.557  0.00  0.00    +0.000 A 
ATOM     40  C   UNL     1       5.880  -2.902  -7.828  0.00  0.00    +0.000 A 
ATOM     41  C   UNL     1       4.701  -3.031  -7.118  0.00  0.00    +0.004 A 
ENDBRANCH  34  36
ENDBRANCH   1  34
TORSDOF 12
