REMARK  Name = ZINC13112863
REMARK  6 active torsions:
REMARK  status: ('A' for Active; 'I' for Inactive)
REMARK    1  A    between atoms: C_1  and  C_2
REMARK    2  A    between atoms: C_2  and  N_3
REMARK    3  A    between atoms: C_8  and  C_29
REMARK    4  A    between atoms: C_12  and  S_13
REMARK    5  A    between atoms: S_13  and  C_14
REMARK    6  A    between atoms: C_14  and  C_15
REMARK                            x       y       z     vdW  Elec       q    Type
REMARK                         _______ _______ _______ _____ _____    ______ ____
ROOT
ATOM      1  N   UNL     1       0.711  -0.489   1.189  0.00  0.00    -0.288 N 
ATOM      2  C   UNL     1       2.040  -0.686   1.129  0.00  0.00    +0.263 A 
ATOM      3  O   UNL     1       2.651  -0.462   0.098  0.00  0.00    -0.267 OA
ATOM      4  C   UNL     1       2.730  -1.160   2.292  0.00  0.00    +0.073 A 
ATOM      5  C   UNL     1       4.099  -1.432   2.454  0.00  0.00    +0.031 A 
ATOM      6  C   UNL     1       4.563  -1.879   3.648  0.00  0.00    +0.022 A 
ATOM      7  S   UNL     1       3.085  -1.952   4.645  0.00  0.00    -0.068 S 
ATOM      8  C   UNL     1       1.924  -1.385   3.428  0.00  0.00    +0.117 A 
ATOM      9  N   UNL     1       0.616  -1.171   3.419  0.00  0.00    -0.216 NA
ATOM     10  C   UNL     1       0.010  -0.728   2.335  0.00  0.00    +0.173 A 
ENDROOT
BRANCH   6  11
ATOM     11  C   UNL     1       5.949  -2.223   4.028  0.00  0.00    -0.011 A 
ATOM     12  C   UNL     1       6.983  -2.094   3.099  0.00  0.00    +0.009 A 
ATOM     13  C   UNL     1       8.275  -2.416   3.460  0.00  0.00    +0.001 A 
ATOM     14  C   UNL     1       8.547  -2.865   4.740  0.00  0.00    +0.000 A 
ATOM     15  C   UNL     1       7.527  -2.995   5.666  0.00  0.00    +0.001 A 
ATOM     16  C   UNL     1       6.231  -2.671   5.319  0.00  0.00    +0.009 A 
ENDBRANCH   6  11
BRANCH   1  18
ATOM     17  C   UNL     1      -0.019   1.526   0.010  0.00  0.00    +0.027 C 
ATOM     18  C   UNL     1       0.002  -0.004   0.002  0.00  0.00    +0.124 C 
ENDBRANCH   1  18
BRANCH  10  19
ATOM     19  S   UNL     1      -1.730  -0.448   2.365  0.00  0.00    -0.080 S 
BRANCH  19  20
ATOM     20  C   UNL     1      -2.217  -0.891   4.055  0.00  0.00    +0.151 C 
BRANCH  20  21
ATOM     21  C   UNL     1      -3.702  -0.694   4.218  0.00  0.00    +0.121 A 
ATOM     22  N   UNL     1      -4.282  -0.963   5.416  0.00  0.00    -0.310 N 
ATOM     23  H   UNL     1      -3.732  -1.278   6.151  0.00  0.00    +0.170 HD
ATOM     24  C   UNL     1      -5.606  -0.802   5.605  0.00  0.00    +0.260 A 
ATOM     25  O   UNL     1      -6.113  -1.047   6.686  0.00  0.00    -0.267 OA
ATOM     26  C   UNL     1      -6.406  -0.336   4.512  0.00  0.00    +0.075 A 
ATOM     27  C   UNL     1      -7.856  -0.089   4.490  0.00  0.00    -0.023 A 
ATOM     28  C   UNL     1      -8.380   0.349   3.332  0.00  0.00    -0.004 A 
ATOM     29  S   UNL     1      -6.999   0.463   2.217  0.00  0.00    -0.073 S 
ATOM     30  C   UNL     1      -5.720  -0.085   3.316  0.00  0.00    +0.116 A 
ATOM     31  N   UNL     1      -4.406  -0.263   3.206  0.00  0.00    -0.226 NA
ATOM     32  C   UNL     1      -9.867   0.562   3.426  0.00  0.00    +0.043 C 
ATOM     33  C   UNL     1     -10.290  -0.216   4.691  0.00  0.00    +0.010 C 
ATOM     34  C   UNL     1      -8.987  -0.209   5.514  0.00  0.00    +0.037 C 
ENDBRANCH  20  21
ENDBRANCH  19  20
ENDBRANCH  10  19
TORSDOF 5
