REMARK  Name = ZINC39692029
REMARK  8 active torsions:
REMARK  status: ('A' for Active; 'I' for Inactive)
REMARK    1  A    between atoms: C_1  and  C_2
REMARK    2  A    between atoms: C_6  and  C_10
REMARK    3  A    between atoms: C_10  and  S_11
REMARK    4  A    between atoms: S_11  and  C_12
REMARK    5  A    between atoms: C_15  and  C_23
REMARK    6  A    between atoms: N_16  and  C_17
REMARK    7  A    between atoms: C_17  and  C_18
REMARK    8  A    between atoms: C_30  and  C_32
REMARK                            x       y       z     vdW  Elec       q    Type
REMARK                         _______ _______ _______ _____ _____    ______ ____
ROOT
ATOM      1  C   UNL     1       0.140  -3.345  -7.378  0.00  0.00    +0.193 A 
ATOM      2  N   UNL     1       0.251  -4.641  -7.185  0.00  0.00    -0.122 NA
ATOM      3  N   UNL     1       0.065  -5.269  -8.290  0.00  0.00    -0.128 NA
ATOM      4  C   UNL     1      -0.175  -4.414  -9.257  0.00  0.00    +0.167 A 
ATOM      5  N   UNL     1      -0.140  -3.156  -8.701  0.00  0.00    -0.295 N 
ENDROOT
BRANCH   4   6
ATOM      6  C   UNL     1      -0.439  -4.742 -10.674  0.00  0.00    +0.037 A 
ATOM      7  C   UNL     1      -0.820  -6.036 -11.047  0.00  0.00    +0.014 A 
ATOM      8  C   UNL     1      -1.055  -6.291 -12.386  0.00  0.00    +0.020 A 
ATOM      9  C   UNL     1      -0.908  -5.268 -13.306  0.00  0.00    +0.111 A 
ATOM     10  N   UNL     1      -0.548  -4.057 -12.926  0.00  0.00    -0.263 NA
ATOM     11  C   UNL     1      -0.318  -3.764 -11.663  0.00  0.00    +0.122 A 
ENDBRANCH   4   6
BRANCH   1  12
ATOM     12  S   UNL     1       0.314  -2.088  -6.156  0.00  0.00    -0.078 S 
BRANCH  12  13
ATOM     13  C   UNL     1       0.677  -3.003  -4.633  0.00  0.00    +0.151 C 
BRANCH  13  19
ATOM     14  C   UNL     1       1.244   1.992  -0.371  0.00  0.00    +0.041 C 
ATOM     15  C   UNL     1       1.346   0.490  -0.309  0.00  0.00    -0.034 C 
ATOM     16  C   UNL     1       1.170  -0.263  -1.405  0.00  0.00    +0.071 C 
ATOM     17  C   UNL     1       1.287  -1.729  -1.257  0.00  0.00    +0.112 C 
ATOM     18  N   UNL     1       1.124  -2.519  -2.292  0.00  0.00    -0.227 NA
ATOM     19  C   UNL     1       0.851  -2.033  -3.493  0.00  0.00    +0.134 C 
ATOM     20  N   UNL     1       0.725  -0.752  -3.743  0.00  0.00    -0.160 NA
ATOM     21  C   UNL     1       0.861   0.186  -2.800  0.00  0.00    +0.271 C 
ATOM     22  O   UNL     1       0.736   1.370  -3.067  0.00  0.00    -0.268 OA
ATOM     23  S   UNL     1       1.650  -1.981   0.462  0.00  0.00    -0.086 S 
ATOM     24  C   UNL     1       1.657  -0.220   0.989  0.00  0.00    +0.192 C 
BRANCH  24  25
ATOM     25  C   UNL     1       0.584   0.039   2.016  0.00  0.00    +0.373 C 
ATOM     26  O   UNL     1      -0.330  -0.755   2.155  0.00  0.00    -0.245 OA
ATOM     27  O   UNL     1       0.631   1.042   2.707  0.00  0.00    -0.245 OA
ENDBRANCH  24  25
ENDBRANCH  13  19
ENDBRANCH  12  13
ENDBRANCH   1  12
BRANCH   5  28
ATOM     28  C   UNL     1      -0.354  -1.879  -9.387  0.00  0.00    +0.200 C 
BRANCH  28  29
ATOM     29  C   UNL     1       0.977  -1.279  -9.758  0.00  0.00    +0.125 A 
ATOM     30  C   UNL     1       1.580  -1.382 -10.956  0.00  0.00    +0.046 A 
ATOM     31  C   UNL     1       2.800  -0.674 -10.864  0.00  0.00    +0.041 A 
ATOM     32  C   UNL     1       2.870  -0.180  -9.614  0.00  0.00    +0.195 A 
ATOM     33  O   UNL     1       1.760  -0.545  -8.951  0.00  0.00    -0.466 OA
ENDBRANCH  28  29
ENDBRANCH   5  28
TORSDOF 7
