REMARK  Name = ZINC63362564
REMARK  8 active torsions:
REMARK  status: ('A' for Active; 'I' for Inactive)
REMARK    1  A    between atoms: C_1  and  C_2
REMARK    2  A    between atoms: C_2  and  C_3
REMARK    3  A    between atoms: C_3  and  C_4
REMARK    4  A    between atoms: C_4  and  C_5
REMARK    5  A    between atoms: C_5  and  N_6
REMARK    6  A    between atoms: C_7  and  C_9
REMARK    7  A    between atoms: C_14  and  N_15
REMARK    8  A    between atoms: C_18  and  C_34
REMARK                            x       y       z     vdW  Elec       q    Type
REMARK                         _______ _______ _______ _____ _____    ______ ____
ROOT
ATOM      1  N   UNL     1       3.377  -6.168   5.547  0.00  0.00    -0.192 N 
ATOM      2  C   UNL     1       2.747  -5.813   6.686  0.00  0.00    +0.253 C 
ATOM      3  O   UNL     1       1.582  -5.996   6.966  0.00  0.00    -0.272 OA
ATOM      4  C   UNL     1       3.797  -5.139   7.540  0.00  0.00    +0.137 C 
ATOM      5  C   UNL     1       3.385  -3.706   7.872  0.00  0.00    +0.139 C 
ATOM      6  C   UNL     1       4.326  -2.776   7.120  0.00  0.00    -0.034 C 
ATOM      7  C   UNL     1       3.554  -1.980   6.386  0.00  0.00    -0.001 A 
ATOM      8  C   UNL     1       3.878  -0.846   5.506  0.00  0.00    +0.010 A 
ATOM      9  C   UNL     1       2.826  -0.248   4.887  0.00  0.00    +0.001 A 
ATOM     10  C   UNL     1       1.500  -0.661   5.053  0.00  0.00    +0.002 A 
ATOM     11  C   UNL     1       1.111  -1.691   5.846  0.00  0.00    +0.026 A 
ATOM     12  C   UNL     1       2.128  -2.395   6.554  0.00  0.00    +0.043 A 
ATOM     13  N   UNL     1       2.034  -3.401   7.394  0.00  0.00    -0.375 N 
ATOM     14  C   UNL     1       5.830  -2.867   7.199  0.00  0.00    +0.052 C 
ATOM     15  C   UNL     1       6.208  -4.336   6.922  0.00  0.00    +0.115 C 
ATOM     16  N   UNL     1       4.973  -5.075   6.647  0.00  0.00    -0.268 N 
ATOM     17  C   UNL     1       4.660  -5.779   5.550  0.00  0.00    +0.317 C 
ATOM     18  O   UNL     1       5.446  -6.031   4.659  0.00  0.00    -0.252 OA
ATOM     19  C   UNL     1       4.098  -5.953   8.800  0.00  0.00    +0.044 C 
ATOM     20  H   UNL     1       1.223  -3.866   7.652  0.00  0.00    +0.160 HD
ENDROOT
BRANCH   1  26
ATOM     21  C   UNL     1       2.145  -6.159   3.458  0.00  0.00    +0.059 A 
ATOM     22  C   UNL     1       1.546  -6.864   2.412  0.00  0.00    +0.015 A 
ATOM     23  C   UNL     1       1.569  -8.242   2.409  0.00  0.00    +0.001 A 
ATOM     24  C   UNL     1       2.182  -8.933   3.441  0.00  0.00    +0.002 A 
ATOM     25  C   UNL     1       2.778  -8.249   4.482  0.00  0.00    +0.025 A 
ATOM     26  C   UNL     1       2.770  -6.862   4.498  0.00  0.00    +0.058 A 
BRANCH  21  28
ATOM     27  N   UNL     1       1.523  -4.012   2.465  0.00  0.00    -0.311 N 
ATOM     28  C   UNL     1       2.125  -4.684   3.466  0.00  0.00    +0.246 C 
ATOM     29  O   UNL     1       2.652  -4.074   4.376  0.00  0.00    -0.270 OA
ATOM     30  H   UNL     1       1.102  -4.499   1.738  0.00  0.00    +0.149 HD
BRANCH  27  31
ATOM     31  C   UNL     1       1.503  -2.548   2.473  0.00  0.00    +0.104 C 
BRANCH  31  32
ATOM     32  C   UNL     1       0.763  -2.041   1.233  0.00  0.00    +0.019 C 
BRANCH  32  33
ATOM     33  C   UNL     1       0.742  -0.511   1.242  0.00  0.00    +0.001 C 
BRANCH  33  35
ATOM     34  C   UNL     1      -0.019   1.526   0.010  0.00  0.00    +0.004 C 
ATOM     35  C   UNL     1       0.002  -0.004   0.002  0.00  0.00    -0.003 C 
ENDBRANCH  33  35
ENDBRANCH  32  33
ENDBRANCH  31  32
ENDBRANCH  27  31
ENDBRANCH  21  28
ENDBRANCH   1  26
TORSDOF 6
