REMARK  Name = ZINC02308813
REMARK  8 active torsions:
REMARK  status: ('A' for Active; 'I' for Inactive)
REMARK    1  A    between atoms: C_1  and  C_2
REMARK    2  A    between atoms: C_5  and  C_8
REMARK    3  A    between atoms: C_9  and  C_14
REMARK    4  A    between atoms: N_15  and  N_16
REMARK    5  A    between atoms: C_17  and  C_27
REMARK    6  A    between atoms: C_27  and  O_28
REMARK    7  A    between atoms: O_28  and  C_29
REMARK    8  A    between atoms: C_34  and  C_35
REMARK                            x       y       z     vdW  Elec       q    Type
REMARK                         _______ _______ _______ _____ _____    ______ ____
ROOT
ATOM      1  N   UNL     1       2.445  -3.195   3.523  0.00  0.00    -0.178 N 
ATOM      2  C   UNL     1       2.508  -1.907   3.954  0.00  0.00    +0.172 A 
ATOM      3  N   UNL     1       3.206  -1.532   4.984  0.00  0.00    -0.228 NA
ATOM      4  C   UNL     1       3.931  -2.417   5.710  0.00  0.00    +0.078 A 
ATOM      5  C   UNL     1       4.681  -2.017   6.818  0.00  0.00    +0.028 A 
ATOM      6  C   UNL     1       5.401  -2.954   7.525  0.00  0.00    +0.002 A 
ATOM      7  C   UNL     1       5.390  -4.291   7.150  0.00  0.00    +0.001 A 
ATOM      8  C   UNL     1       4.663  -4.708   6.069  0.00  0.00    +0.015 A 
ATOM      9  C   UNL     1       3.925  -3.780   5.336  0.00  0.00    +0.067 A 
ATOM     10  C   UNL     1       3.122  -4.172   4.170  0.00  0.00    +0.282 A 
ATOM     11  O   UNL     1       3.070  -5.330   3.797  0.00  0.00    -0.265 OA
ENDROOT
BRANCH   1  13
ATOM     12  C   UNL     1       2.238  -3.930   1.312  0.00  0.00    +0.145 C 
ATOM     13  N   UNL     1       1.667  -3.514   2.402  0.00  0.00    -0.170 NA
BRANCH  12  15
ATOM     14  C   UNL     1      -0.042  -4.513   0.145  0.00  0.00    +0.101 A 
ATOM     15  C   UNL     1       1.417  -4.376   0.174  0.00  0.00    +0.040 A 
ATOM     16  C   UNL     1       1.868  -4.746  -1.075  0.00  0.00    +0.115 A 
ATOM     17  N   UNL     1       0.798  -5.082  -1.818  0.00  0.00    -0.284 N 
ATOM     18  H   UNL     1       0.829  -5.382  -2.740  0.00  0.00    +0.188 HD
ATOM     19  N   UNL     1      -0.365  -4.939  -1.056  0.00  0.00    -0.173 NA
BRANCH  14  24
ATOM     20  C   UNL     1      -3.671  -3.413   4.478  0.00  0.00    +0.044 C 
ATOM     21  C   UNL     1      -2.722  -3.701   3.344  0.00  0.00    -0.050 A 
ATOM     22  C   UNL     1      -3.030  -3.280   2.063  0.00  0.00    +0.004 A 
ATOM     23  C   UNL     1      -2.164  -3.541   1.021  0.00  0.00    +0.010 A 
ATOM     24  C   UNL     1      -0.976  -4.229   1.261  0.00  0.00    +0.003 A 
ATOM     25  C   UNL     1      -0.670  -4.650   2.554  0.00  0.00    +0.010 A 
ATOM     26  C   UNL     1      -1.542  -4.380   3.589  0.00  0.00    +0.004 A 
ENDBRANCH  14  24
ENDBRANCH  12  15
ENDBRANCH   1  13
BRANCH   2  27
ATOM     27  C   UNL     1       1.730  -0.861   3.198  0.00  0.00    +0.305 C 
BRANCH  27  28
ATOM     28  O   UNL     1       2.023   0.431   3.734  0.00  0.00    -0.484 OA
BRANCH  28  29
ATOM     29  C   UNL     1       1.346   1.486   3.208  0.00  0.00    +0.124 A 
ATOM     30  C   UNL     1       0.351   1.272   2.265  0.00  0.00    +0.046 A 
ATOM     31  C   UNL     1      -0.336   2.346   1.732  0.00  0.00    +0.004 A 
ATOM     32  C   UNL     1      -0.032   3.632   2.138  0.00  0.00    +0.000 A 
ATOM     33  C   UNL     1       0.959   3.848   3.078  0.00  0.00    +0.007 A 
ATOM     34  C   UNL     1       1.645   2.777   3.618  0.00  0.00    -0.009 A 
ATOM     35  C   UNL     1       2.721   3.012   4.646  0.00  0.00    +0.047 C 
ENDBRANCH  28  29
ENDBRANCH  27  28
ENDBRANCH   2  27
TORSDOF 6
