REMARK  Name = ZINC54644656
REMARK  9 active torsions:
REMARK  status: ('A' for Active; 'I' for Inactive)
REMARK    1  A    between atoms: C_1  and  C_2
REMARK    2  A    between atoms: C_2  and  O_3
REMARK    3  A    between atoms: O_3  and  C_4
REMARK    4  A    between atoms: C_4  and  C_6
REMARK    5  A    between atoms: C_7  and  C_24
REMARK    6  A    between atoms: C_10  and  N_11
REMARK    7  A    between atoms: C_12  and  C_14
REMARK    8  A    between atoms: C_27  and  C_31
REMARK    9  A    between atoms: C_28  and  C_30
REMARK                            x       y       z     vdW  Elec       q    Type
REMARK                         _______ _______ _______ _____ _____    ______ ____
ROOT
ATOM      1  C   UNL     1      -2.841  -2.416   0.016  0.00  0.00    +0.095 A 
ATOM      2  C   UNL     1      -3.552  -2.716  -1.214  0.00  0.00    +0.005 A 
ATOM      3  C   UNL     1      -4.791  -3.249  -1.056  0.00  0.00    +0.056 A 
ATOM      4  S   UNL     1      -4.976  -3.337   0.712  0.00  0.00    -0.080 S 
ATOM      5  C   UNL     1      -3.499  -2.710   1.200  0.00  0.00    +0.087 A 
ENDROOT
BRANCH   2   6
ATOM      6  C   UNL     1      -2.966  -2.457  -2.551  0.00  0.00    -0.016 A 
ATOM      7  C   UNL     1      -2.407  -1.213  -2.841  0.00  0.00    +0.009 A 
ATOM      8  C   UNL     1      -1.863  -0.978  -4.087  0.00  0.00    +0.004 A 
ATOM      9  C   UNL     1      -1.871  -1.974  -5.047  0.00  0.00    -0.048 A 
ATOM     10  C   UNL     1      -2.425  -3.210  -4.765  0.00  0.00    -0.047 A 
ATOM     11  C   UNL     1      -2.967  -3.458  -3.521  0.00  0.00    +0.012 A 
ATOM     12  C   UNL     1      -2.431  -4.289  -5.817  0.00  0.00    +0.044 C 
ATOM     13  C   UNL     1      -1.276  -1.711  -6.407  0.00  0.00    +0.044 C 
ENDBRANCH   2   6
BRANCH   5  14
ATOM     14  N   UNL     1      -3.042  -2.527   2.494  0.00  0.00    -0.273 N 
ATOM     15  C   UNL     1      -3.820  -2.871   3.539  0.00  0.00    +0.284 C 
ATOM     16  O   UNL     1      -4.924  -3.344   3.345  0.00  0.00    -0.266 OA
ATOM     17  H   UNL     1      -2.162  -2.150   2.648  0.00  0.00    +0.156 HD
BRANCH  15  18
ATOM     18  C   UNL     1      -3.335  -2.676   4.912  0.00  0.00    +0.191 A 
ATOM     19  C   UNL     1      -4.027  -2.991   6.038  0.00  0.00    +0.063 A 
ATOM     20  C   UNL     1      -3.161  -2.628   7.159  0.00  0.00    +0.022 A 
ATOM     21  C   UNL     1      -3.287  -2.699   8.549  0.00  0.00    +0.031 A 
ATOM     22  C   UNL     1      -2.265  -2.264   9.345  0.00  0.00    +0.042 A 
ATOM     23  C   UNL     1      -1.103  -1.752   8.781  0.00  0.00    +0.023 A 
ATOM     24  C   UNL     1      -0.960  -1.674   7.412  0.00  0.00    +0.048 A 
ATOM     25  C   UNL     1      -1.986  -2.111   6.583  0.00  0.00    +0.136 A 
ATOM     26  O   UNL     1      -2.132  -2.163   5.244  0.00  0.00    -0.450 OA
ATOM     27 CL   UNL     1      -2.419  -2.351  11.072  0.00  0.00    -0.084 Cl
ENDBRANCH  15  18
ENDBRANCH   5  14
BRANCH   1  28
ATOM     28  C   UNL     1      -1.497  -1.838   0.006  0.00  0.00    +0.342 C 
ATOM     29  O   UNL     1      -0.522  -2.566  -0.007  0.00  0.00    -0.245 OA
BRANCH  28  30
ATOM     30  O   UNL     1      -1.339  -0.499   0.012  0.00  0.00    -0.461 OA
BRANCH  30  32
ATOM     31  C   UNL     1      -0.019   1.526   0.010  0.00  0.00    +0.048 C 
ATOM     32  C   UNL     1       0.002  -0.004   0.002  0.00  0.00    +0.229 C 
ENDBRANCH  30  32
ENDBRANCH  28  30
ENDBRANCH   1  28
TORSDOF 6
