REMARK  Name = ZINC13272118
REMARK  12 active torsions:
REMARK  status: ('A' for Active; 'I' for Inactive)
REMARK    1  A    between atoms: C_1  and  C_2
REMARK    2  A    between atoms: C_2  and  C_3
REMARK    3  A    between atoms: C_2  and  C_4
REMARK    4  A    between atoms: C_4  and  C_6
REMARK    5  A    between atoms: C_4  and  N_8
REMARK    6  A    between atoms: C_9  and  C_28
REMARK    7  A    between atoms: C_12  and  S_13
REMARK    8  A    between atoms: S_13  and  C_14
REMARK    9  A    between atoms: C_14  and  C_15
REMARK   10  A    between atoms: N_17  and  C_18
REMARK   11  A    between atoms: C_23  and  S_24
REMARK   12  A    between atoms: S_24  and  C_27
REMARK                            x       y       z     vdW  Elec       q    Type
REMARK                         _______ _______ _______ _____ _____    ______ ____
ROOT
ATOM      1  N   UNL     1       0.003  -0.003   0.039  0.00  0.00    -0.287 N 
ATOM      2  C   UNL     1      -0.015   1.374   0.057  0.00  0.00    +0.172 A 
ATOM      3  N   UNL     1       1.237   1.775   0.047  0.00  0.00    -0.128 NA
ATOM      4  N   UNL     1       2.023   0.759   0.024  0.00  0.00    -0.122 NA
ATOM      5  C   UNL     1       1.325  -0.353   0.018  0.00  0.00    +0.193 A 
ENDROOT
BRANCH   2   6
ATOM      6  C   UNL     1      -1.210   2.233   0.077  0.00  0.00    +0.056 A 
ATOM      7  C   UNL     1      -1.309   3.569   0.376  0.00  0.00    +0.019 A 
ATOM      8  C   UNL     1      -2.549   4.167   0.325  0.00  0.00    +0.008 A 
ATOM      9  C   UNL     1      -3.631   3.418  -0.010  0.00  0.00    +0.046 A 
ATOM     10  S   UNL     1      -2.908   1.808  -0.274  0.00  0.00    -0.094 S 
ENDBRANCH   2   6
BRANCH   1  11
ATOM     11  C   UNL     1      -1.152  -0.904   0.040  0.00  0.00    +0.206 C 
BRANCH  11  13
ATOM     12  C   UNL     1      -2.331  -2.711  -1.220  0.00  0.00    +0.010 C 
ATOM     13  C   UNL     1      -1.125  -1.770  -1.221  0.00  0.00    +0.017 C 
ATOM     14  C   UNL     1      -1.181  -0.872  -2.458  0.00  0.00    +0.010 C 
ENDBRANCH  11  13
BRANCH  11  15
ATOM     15  C   UNL     1      -1.097  -1.789   1.258  0.00  0.00    +0.379 C 
ATOM     16  O   UNL     1      -1.042  -2.990   1.131  0.00  0.00    -0.244 OA
ATOM     17  O   UNL     1      -1.110  -1.244   2.485  0.00  0.00    -0.244 OA
ENDBRANCH  11  15
ENDBRANCH   1  11
BRANCH   5  18
ATOM     18  S   UNL     1       1.971  -1.992  -0.011  0.00  0.00    -0.077 S 
BRANCH  18  19
ATOM     19  C   UNL     1       3.744  -1.631  -0.028  0.00  0.00    +0.173 C 
BRANCH  19  20
ATOM     20  C   UNL     1       4.520  -2.923  -0.054  0.00  0.00    +0.228 C 
ATOM     21  O   UNL     1       3.931  -3.983  -0.060  0.00  0.00    -0.275 OA
ATOM     22  N   UNL     1       5.867  -2.900  -0.070  0.00  0.00    -0.283 N 
ATOM     23  H   UNL     1       6.337  -2.054  -0.145  0.00  0.00    +0.155 HD
BRANCH  22  24
ATOM     24  C   UNL     1       6.589  -4.095   0.023  0.00  0.00    +0.058 A 
ATOM     25  C   UNL     1       6.018  -5.207   0.628  0.00  0.00    +0.025 A 
ATOM     26  C   UNL     1       6.731  -6.387   0.714  0.00  0.00    +0.002 A 
ATOM     27  C   UNL     1       8.016  -6.458   0.206  0.00  0.00    +0.002 A 
ATOM     28  C   UNL     1       8.588  -5.352  -0.393  0.00  0.00    +0.029 A 
ATOM     29  C   UNL     1       7.879  -4.170  -0.486  0.00  0.00    +0.109 A 
BRANCH  29  30
ATOM     30  S   UNL     1       8.610  -2.760  -1.248  0.00  0.00    -0.004 S 
ATOM     31  O   UNL     1       8.431  -1.707  -0.310  0.00  0.00    -0.170 OA
ATOM     32  O   UNL     1       9.914  -3.184  -1.621  0.00  0.00    -0.170 OA
ATOM     33  C   UNL     1       7.605  -2.456  -2.727  0.00  0.00    +0.200 C 
ENDBRANCH  29  30
ENDBRANCH  22  24
ENDBRANCH  19  20
ENDBRANCH  18  19
ENDBRANCH   5  18
TORSDOF 9
