REMARK  Name = ZINC58994884
REMARK  9 active torsions:
REMARK  status: ('A' for Active; 'I' for Inactive)
REMARK    1  A    between atoms: C_1  and  O_2
REMARK    2  A    between atoms: O_2  and  C_3
REMARK    3  A    between atoms: C_5  and  C_10
REMARK    4  A    between atoms: C_8  and  O_9
REMARK    5  A    between atoms: N_11  and  N_12
REMARK    6  A    between atoms: C_15  and  S_18
REMARK    7  A    between atoms: S_18  and  C_19
REMARK    8  A    between atoms: C_19  and  C_20
REMARK    9  A    between atoms: N_22  and  C_23
REMARK                            x       y       z     vdW  Elec       q    Type
REMARK                         _______ _______ _______ _____ _____    ______ ____
ROOT
ATOM      1  N   UNL     1       3.634   0.471   6.202  0.00  0.00    -0.205 N 
ATOM      2  C   UNL     1       4.267  -0.159   7.257  0.00  0.00    +0.232 A 
ATOM      3  N   UNL     1       4.396  -1.460   7.418  0.00  0.00    -0.186 NA
ATOM      4  C   UNL     1       5.063  -1.710   8.549  0.00  0.00    +0.211 A 
ATOM      5  N   UNL     1       5.369  -0.571   9.124  0.00  0.00    -0.144 NA
ATOM      6  N   UNL     1       4.867   0.451   8.302  0.00  0.00    -0.245 N 
ATOM      7  H   UNL     1       3.594   1.439   6.169  0.00  0.00    +0.177 HD
ATOM      8  H   UNL     1       4.937   1.406   8.454  0.00  0.00    +0.192 HD
ENDROOT
BRANCH   1  10
ATOM      9  C   UNL     1       2.455   0.302   4.190  0.00  0.00    +0.138 C 
ATOM     10  N   UNL     1       3.050  -0.290   5.181  0.00  0.00    -0.188 NA
BRANCH   9  13
ATOM     11  C   UNL     1       0.626  -0.619   1.042  0.00  0.00    +0.162 A 
ATOM     12  C   UNL     1       1.200   0.137   2.048  0.00  0.00    +0.058 A 
ATOM     13  C   UNL     1       1.841  -0.498   3.115  0.00  0.00    -0.002 A 
ATOM     14  C   UNL     1       1.898  -1.894   3.160  0.00  0.00    +0.013 A 
ATOM     15  C   UNL     1       1.323  -2.640   2.154  0.00  0.00    +0.050 A 
ATOM     16  C   UNL     1       0.682  -2.010   1.097  0.00  0.00    +0.158 A 
BRANCH  11  18
ATOM     17  C   UNL     1      -0.017   1.425   0.010  0.00  0.00    +0.277 C 
ATOM     18  O   UNL     1       0.002  -0.004   0.002  0.00  0.00    -0.491 OA
ENDBRANCH  11  18
BRANCH  16  19
ATOM     19  O   UNL     1       0.112  -2.751   0.110  0.00  0.00    -0.503 OA
ATOM     20  H   UNL     1       0.708  -2.952  -0.624  0.00  0.00    +0.292 HD
ENDBRANCH  16  19
ENDBRANCH   9  13
ENDBRANCH   1  10
BRANCH   4  21
ATOM     21  S   UNL     1       5.468  -3.309   9.168  0.00  0.00    -0.075 S 
BRANCH  21  22
ATOM     22  C   UNL     1       6.360  -2.971  10.710  0.00  0.00    +0.173 C 
BRANCH  22  23
ATOM     23  C   UNL     1       6.768  -4.272  11.350  0.00  0.00    +0.224 C 
ATOM     24  O   UNL     1       6.486  -5.325  10.818  0.00  0.00    -0.275 OA
ATOM     25  N   UNL     1       7.448  -4.267  12.514  0.00  0.00    -0.311 N 
ATOM     26  H   UNL     1       7.674  -3.425  12.940  0.00  0.00    +0.149 HD
BRANCH  25  27
ATOM     27  C   UNL     1       7.845  -5.533  13.136  0.00  0.00    +0.079 C 
ATOM     28  C   UNL     1       6.690  -6.070  13.983  0.00  0.00    +0.010 C 
ATOM     29  C   UNL     1       7.105  -7.391  14.632  0.00  0.00    +0.009 C 
ATOM     30  C   UNL     1       8.326  -7.160  15.525  0.00  0.00    -0.010 C 
ATOM     31  C   UNL     1       7.976  -6.144  16.614  0.00  0.00    +0.007 C 
ATOM     32  C   UNL     1       7.561  -4.822  15.964  0.00  0.00    -0.010 C 
ATOM     33  C   UNL     1       6.340  -5.054  15.072  0.00  0.00    +0.009 C 
ATOM     34  C   UNL     1       8.717  -4.285  15.118  0.00  0.00    +0.009 C 
ATOM     35  C   UNL     1       9.067  -5.301  14.028  0.00  0.00    +0.010 C 
ATOM     36  C   UNL     1       9.482  -6.623  14.678  0.00  0.00    +0.009 C 
ENDBRANCH  25  27
ENDBRANCH  22  23
ENDBRANCH  21  22
ENDBRANCH   4  21
TORSDOF 8
