REMARK  Name = ZINC32097057
REMARK  6 active torsions:
REMARK  status: ('A' for Active; 'I' for Inactive)
REMARK    1  A    between atoms: C_4  and  C_7
REMARK    2  A    between atoms: C_7  and  O_8
REMARK    3  A    between atoms: O_8  and  C_9
REMARK    4  A    between atoms: C_18  and  C_19
REMARK    5  A    between atoms: C_19  and  C_21
REMARK    6  A    between atoms: C_19  and  N_24
REMARK                            x       y       z     vdW  Elec       q    Type
REMARK                         _______ _______ _______ _____ _____    ______ ____
ROOT
ATOM      1  C   UNL     1      -3.796   9.184  -0.923  0.00  0.00    +0.080 C 
ENDROOT
BRANCH   1   2
ATOM      2  N   UNL     1      -2.711   8.195  -0.858  0.00  0.00    +0.394 N 
ATOM      3  C   UNL     1      -1.785   8.501   0.241  0.00  0.00    -0.058 C 
ATOM      4  C   UNL     1      -0.629   7.497   0.225  0.00  0.00    +0.088 C 
ATOM      5  N   UNL     1      -1.165   6.135   0.355  0.00  0.00    -0.318 N 
ATOM      6  C   UNL     1      -2.092   5.829  -0.744  0.00  0.00    +0.088 C 
ATOM      7  C   UNL     1      -3.247   6.833  -0.728  0.00  0.00    -0.058 C 
ATOM      8  C   UNL     1      -0.135   5.196   0.417  0.00  0.00    +0.138 A 
ATOM      9  C   UNL     1       0.065   4.409   1.625  0.00  0.00    +0.031 A 
ATOM     10  C   UNL     1      -0.642   4.415   2.847  0.00  0.00    +0.012 A 
ATOM     11  C   UNL     1      -0.279   3.578   3.855  0.00  0.00    +0.001 A 
ATOM     12  C   UNL     1       0.794   2.705   3.724  0.00  0.00    +0.001 A 
ATOM     13  C   UNL     1       1.505   2.670   2.554  0.00  0.00    +0.017 A 
ATOM     14  C   UNL     1       1.148   3.507   1.518  0.00  0.00    +0.041 A 
ATOM     15  S   UNL     1       1.750   3.806  -0.122  0.00  0.00    +0.014 S 
ATOM     16  N   UNL     1       0.651   5.020  -0.606  0.00  0.00    -0.194 NA
ATOM     17  H   UNL     1      -2.149   8.250  -1.802  0.00  0.00    -0.080 HD
ENDBRANCH   1   2
BRANCH   1  27
ATOM     18  C   UNL     1      -4.429   9.337  -6.269  0.00  0.00    +0.123 A 
ATOM     19  C   UNL     1      -3.324   9.782  -5.547  0.00  0.00    +0.046 A 
ATOM     20  C   UNL     1      -3.300   9.681  -4.186  0.00  0.00    +0.014 A 
ATOM     21  C   UNL     1      -4.389   9.127  -3.510  0.00  0.00    +0.002 A 
ATOM     22  C   UNL     1      -5.509   8.676  -4.231  0.00  0.00    +0.050 A 
ATOM     23  C   UNL     1      -5.517   8.786  -5.618  0.00  0.00    +0.071 A 
ATOM     24  N   UNL     1      -6.413   8.187  -3.315  0.00  0.00    -0.360 N 
ATOM     25  H   UNL     1      -7.376   7.780  -3.656  0.00  0.00    +0.165 HD
ATOM     26  C   UNL     1      -5.904   8.309  -2.049  0.00  0.00    +0.086 A 
ATOM     27  C   UNL     1      -4.688   8.874  -2.098  0.00  0.00    -0.025 A 
BRANCH  18  28
ATOM     28  O   UNL     1      -4.438   9.445  -7.624  0.00  0.00    -0.487 OA
BRANCH  28  29
ATOM     29  C   UNL     1      -3.283  10.022  -8.236  0.00  0.00    +0.264 C 
BRANCH  29  33
ATOM     30  C   UNL     1      -3.819  10.128 -12.473  0.00  0.00    +0.000 A 
ATOM     31  C   UNL     1      -4.228  11.197 -11.697  0.00  0.00    +0.000 A 
ATOM     32  C   UNL     1      -4.055  11.162 -10.326  0.00  0.00    +0.007 A 
ATOM     33  C   UNL     1      -3.472  10.059  -9.730  0.00  0.00    -0.010 A 
ATOM     34  C   UNL     1      -3.058   8.993 -10.506  0.00  0.00    +0.007 A 
ATOM     35  C   UNL     1      -3.236   9.025 -11.877  0.00  0.00    +0.000 A 
ENDBRANCH  29  33
ENDBRANCH  28  29
ENDBRANCH  18  28
ENDBRANCH   1  27
BRANCH   1  36
ATOM     36  C   UNL     1      -4.603   9.128   0.348  0.00  0.00    +0.347 C 
ATOM     37  O   UNL     1      -4.304   8.346   1.220  0.00  0.00    -0.248 OA
ATOM     38  O   UNL     1      -5.652   9.948   0.514  0.00  0.00    -0.248 OA
ENDBRANCH   1  36
TORSDOF 6
