REMARK  Name = ZINC24145428
REMARK  9 active torsions:
REMARK  status: ('A' for Active; 'I' for Inactive)
REMARK    1  A    between atoms: C_1  and  C_2
REMARK    2  A    between atoms: C_5  and  C_8
REMARK    3  A    between atoms: C_11  and  S_14
REMARK    4  A    between atoms: N_12  and  C_13
REMARK    5  A    between atoms: S_14  and  C_15
REMARK    6  A    between atoms: C_15  and  C_16
REMARK    7  A    between atoms: N_18  and  C_19
REMARK    8  A    between atoms: N_23  and  C_25
REMARK    9  A    between atoms: C_25  and  C_26
REMARK                            x       y       z     vdW  Elec       q    Type
REMARK                         _______ _______ _______ _____ _____    ______ ____
ROOT
ATOM      1  C   UNL     1       1.558   9.655   1.262  0.00  0.00    +0.223 C 
ATOM      2  O   UNL     1       2.659   9.793   1.752  0.00  0.00    -0.275 OA
ATOM      3  N   UNL     1       0.732  10.714   1.149  0.00  0.00    -0.314 N 
ATOM      4  H   UNL     1      -0.266  10.589   0.706  0.00  0.00    +0.149 HD
ENDROOT
BRANCH   3   5
ATOM      5  C   UNL     1       1.165  12.033   1.618  0.00  0.00    +0.055 C 
ATOM      6  C   UNL     1       1.920  12.780   0.495  0.00  0.00    +0.002 C 
ATOM      7  C   UNL     1       0.817  13.684  -0.118  0.00  0.00    -0.077 C 
ATOM      8  N   UNL     1       0.025  14.104   1.067  0.00  0.00    +0.384 N 
ATOM      9  C   UNL     1      -0.056  12.913   1.940  0.00  0.00    -0.056 C 
ATOM     10  H   UNL     1       0.487  14.955   1.588  0.00  0.00    -0.081 HD
BRANCH   8  11
ATOM     11  C   UNL     1      -1.315  14.558   0.670  0.00  0.00    -0.043 C 
BRANCH  11  12
ATOM     12  C   UNL     1      -1.192  15.608  -0.404  0.00  0.00    -0.064 A 
ATOM     13  C   UNL     1      -1.100  16.943  -0.058  0.00  0.00    +0.002 A 
ATOM     14  C   UNL     1      -0.983  17.906  -1.044  0.00  0.00    +0.000 A 
ATOM     15  C   UNL     1      -0.967  17.534  -2.375  0.00  0.00    +0.000 A 
ATOM     16  C   UNL     1      -1.063  16.199  -2.721  0.00  0.00    +0.000 A 
ATOM     17  C   UNL     1      -1.176  15.236  -1.735  0.00  0.00    +0.002 A 
ENDBRANCH  11  12
ENDBRANCH   8  11
ENDBRANCH   3   5
BRANCH   1  18
ATOM     18  C   UNL     1       1.112   8.298   0.780  0.00  0.00    +0.173 C 
BRANCH  18  19
ATOM     19  S   UNL     1       2.431   7.092   1.067  0.00  0.00    -0.077 S 
BRANCH  19  23
ATOM     20  C   UNL     1       1.249   3.587  -0.191  0.00  0.00    +0.165 A 
ATOM     21  N   UNL     1       0.217   4.353  -0.460  0.00  0.00    -0.128 NA
ATOM     22  N   UNL     1       0.459   5.560  -0.090  0.00  0.00    -0.122 NA
ATOM     23  C   UNL     1       1.663   5.641   0.429  0.00  0.00    +0.192 A 
ATOM     24  N   UNL     1       2.208   4.389   0.384  0.00  0.00    -0.305 N 
ATOM     25  C   UNL     1       3.537   3.985   0.849  0.00  0.00    +0.153 C 
BRANCH  20  30
ATOM     26  C   UNL     1       1.688  -2.054  -1.238  0.00  0.00    +0.044 C 
ATOM     27  C   UNL     1       1.573  -0.577  -0.964  0.00  0.00    -0.050 A 
ATOM     28  C   UNL     1       0.324   0.014  -0.886  0.00  0.00    +0.004 A 
ATOM     29  C   UNL     1       0.212   1.366  -0.635  0.00  0.00    +0.012 A 
ATOM     30  C   UNL     1       1.362   2.138  -0.460  0.00  0.00    +0.019 A 
ATOM     31  C   UNL     1       2.618   1.536  -0.540  0.00  0.00    +0.012 A 
ATOM     32  C   UNL     1       2.716   0.183  -0.791  0.00  0.00    +0.004 A 
ENDBRANCH  20  30
ENDBRANCH  19  23
ENDBRANCH  18  19
ENDBRANCH   1  18
TORSDOF 7
