REMARK  Name = ZINC37511616
REMARK  13 active torsions:
REMARK  status: ('A' for Active; 'I' for Inactive)
REMARK    1  A    between atoms: C_1  and  C_2
REMARK    2  A    between atoms: C_2  and  C_3
REMARK    3  A    between atoms: C_3  and  C_5
REMARK    4  A    between atoms: C_3  and  N_6
REMARK    5  A    between atoms: C_7  and  C_9
REMARK    6  A    between atoms: C_12  and  C_14
REMARK    7  A    between atoms: C_14  and  N_15
REMARK    8  A    between atoms: C_18  and  C_26
REMARK    9  A    between atoms: C_26  and  C_28
REMARK   10  A    between atoms: C_28  and  O_29
REMARK   11  A    between atoms: O_29  and  C_30
REMARK   12  A    between atoms: C_32  and  C_37
REMARK   13  A    between atoms: C_34  and  C_36
REMARK                            x       y       z     vdW  Elec       q    Type
REMARK                         _______ _______ _______ _____ _____    ______ ____
ROOT
ATOM      1  N   UNL     1      -3.986   0.102  -6.974  0.00  0.00    -0.258 N 
ATOM      2  C   UNL     1      -3.914  -0.334  -8.305  0.00  0.00    +0.079 A 
ATOM      3  C   UNL     1      -2.957   0.174  -9.159  0.00  0.00    +0.038 A 
ATOM      4  C   UNL     1      -2.902  -0.274 -10.485  0.00  0.00    +0.023 A 
ATOM      5  C   UNL     1      -3.819  -1.233 -10.935  0.00  0.00    +0.015 A 
ATOM      6  C   UNL     1      -4.770  -1.735 -10.075  0.00  0.00    +0.048 A 
ATOM      7  C   UNL     1      -4.824  -1.292  -8.760  0.00  0.00    +0.143 A 
ATOM      8  O   UNL     1      -5.757  -1.783  -7.905  0.00  0.00    -0.481 OA
ATOM      9  C   UNL     1      -5.375  -1.896  -6.532  0.00  0.00    +0.325 C 
ATOM     10  C   UNL     1      -4.698  -0.625  -6.085  0.00  0.00    +0.258 C 
ATOM     11  O   UNL     1      -4.796  -0.255  -4.934  0.00  0.00    -0.271 OA
ENDROOT
BRANCH   4  12
ATOM     12  C   UNL     1      -1.888   0.261 -11.402  0.00  0.00    +0.200 C 
ATOM     13  O   UNL     1      -1.095   1.092 -11.012  0.00  0.00    -0.288 OA
BRANCH  12  14
ATOM     14  C   UNL     1      -1.831  -0.222 -12.829  0.00  0.00    +0.308 C 
BRANCH  14  15
ATOM     15  O   UNL     1      -0.768   0.441 -13.515  0.00  0.00    -0.484 OA
BRANCH  15  16
ATOM     16  C   UNL     1      -0.579   0.117 -14.821  0.00  0.00    +0.122 A 
ATOM     17  C   UNL     1      -1.404  -0.816 -15.431  0.00  0.00    +0.049 A 
ATOM     18  C   UNL     1      -1.211  -1.144 -16.759  0.00  0.00    -0.047 A 
ATOM     19  C   UNL     1      -0.195  -0.543 -17.480  0.00  0.00    +0.007 A 
ATOM     20  C   UNL     1       0.629   0.387 -16.874  0.00  0.00    -0.047 A 
ATOM     21  C   UNL     1       0.436   0.723 -15.548  0.00  0.00    +0.049 A 
ATOM     22  C   UNL     1       1.735   1.040 -17.662  0.00  0.00    +0.044 C 
ATOM     23  C   UNL     1      -2.107  -2.158 -17.423  0.00  0.00    +0.044 C 
ENDBRANCH  15  16
ENDBRANCH  14  15
ENDBRANCH  12  14
ENDBRANCH   4  12
BRANCH   1  24
ATOM     24  C   UNL     1      -3.295   1.322  -6.552  0.00  0.00    +0.188 C 
BRANCH  24  28
ATOM     25  C   UNL     1      -0.213   0.412  -4.816  0.00  0.00    +0.189 A 
ATOM     26  C   UNL     1       0.282   0.584  -6.077  0.00  0.00    +0.055 A 
ATOM     27  C   UNL     1      -0.802   0.946  -6.891  0.00  0.00    +0.047 A 
ATOM     28  C   UNL     1      -1.898   0.979  -6.101  0.00  0.00    +0.124 A 
ATOM     29  O   UNL     1      -1.540   0.652  -4.853  0.00  0.00    -0.453 OA
BRANCH  25  31
ATOM     30  N   UNL     1      -0.055  -0.114  -2.441  0.00  0.00    -0.306 N 
ATOM     31  C   UNL     1       0.561   0.028  -3.631  0.00  0.00    +0.280 C 
ATOM     32  O   UNL     1       1.760  -0.163  -3.722  0.00  0.00    -0.267 OA
ATOM     33  H   UNL     1      -1.010   0.038  -2.368  0.00  0.00    +0.149 HD
BRANCH  30  34
ATOM     34  C   UNL     1       0.718  -0.497  -1.257  0.00  0.00    +0.070 C 
ATOM     35  C   UNL     1       0.849  -2.021  -1.205  0.00  0.00    +0.028 C 
BRANCH  34  37
ATOM     36  C   UNL     1      -0.019   1.526   0.010  0.00  0.00    +0.005 C 
ATOM     37  C   UNL     1       0.002  -0.004   0.002  0.00  0.00    +0.018 C 
ENDBRANCH  34  37
ENDBRANCH  30  34
ENDBRANCH  25  31
ENDBRANCH  24  28
ENDBRANCH   1  24
TORSDOF 9
