REMARK  Name = ZINC36068373
REMARK  12 active torsions:
REMARK  status: ('A' for Active; 'I' for Inactive)
REMARK    1  A    between atoms: C_1  and  C_2
REMARK    2  A    between atoms: C_5  and  C_9
REMARK    3  A    between atoms: C_6  and  C_8
REMARK    4  A    between atoms: C_9  and  N_10
REMARK    5  A    between atoms: N_10  and  C_11
REMARK    6  A    between atoms: N_10  and  C_21
REMARK    7  A    between atoms: C_11  and  C_12
REMARK    8  A    between atoms: C_21  and  C_22
REMARK    9  A    between atoms: C_24  and  C_27
REMARK   10  A    between atoms: N_29  and  C_30
REMARK   11  A    between atoms: C_30  and  C_31
REMARK   12  A    between atoms: C_31  and  C_32
REMARK                            x       y       z     vdW  Elec       q    Type
REMARK                         _______ _______ _______ _____ _____    ______ ____
ROOT
ATOM      1  N   UNL     1      -1.252  -4.557   0.576  0.00  0.00    +0.391 N 
ATOM      2  H   UNL     1      -1.788  -4.167   1.337  0.00  0.00    -0.080 HD
ENDROOT
BRANCH   1   3
ATOM      3  C   UNL     1      -0.025  -3.771   0.390  0.00  0.00    -0.042 C 
BRANCH   3   8
ATOM      4  C   UNL     1      -1.399   1.790  -0.371  0.00  0.00    +0.044 C 
ATOM      5  C   UNL     1      -1.040   0.340  -0.173  0.00  0.00    -0.050 A 
ATOM      6  C   UNL     1      -0.738  -0.453  -1.264  0.00  0.00    +0.003 A 
ATOM      7  C   UNL     1      -0.410  -1.783  -1.083  0.00  0.00    +0.002 A 
ATOM      8  C   UNL     1      -0.382  -2.321   0.191  0.00  0.00    -0.061 A 
ATOM      9  C   UNL     1      -0.683  -1.528   1.282  0.00  0.00    -0.049 A 
ATOM     10  C   UNL     1      -1.008  -0.196   1.101  0.00  0.00    +0.007 A 
ATOM     11  C   UNL     1      -0.654  -2.113   2.671  0.00  0.00    +0.044 C 
ENDBRANCH   3   8
ENDBRANCH   1   3
BRANCH   1  12
ATOM     12  C   UNL     1      -2.050  -4.518  -0.656  0.00  0.00    -0.042 C 
BRANCH  12  13
ATOM     13  C   UNL     1      -3.370  -5.208  -0.422  0.00  0.00    -0.060 A 
ATOM     14  C   UNL     1      -3.525  -6.536  -0.772  0.00  0.00    +0.005 A 
ATOM     15  C   UNL     1      -4.733  -7.173  -0.559  0.00  0.00    +0.050 A 
ATOM     16  C   UNL     1      -5.792  -6.481   0.007  0.00  0.00    +0.166 A 
ATOM     17  C   UNL     1      -5.635  -5.144   0.360  0.00  0.00    +0.166 A 
ATOM     18  C   UNL     1      -4.420  -4.513   0.148  0.00  0.00    +0.051 A 
ATOM     19  O   UNL     1      -6.809  -4.692   0.891  0.00  0.00    -0.453 OA
ATOM     20  C   UNL     1      -7.807  -5.647   0.485  0.00  0.00    +0.466 C 
ATOM     21  O   UNL     1      -7.064  -6.868   0.317  0.00  0.00    -0.453 OA
ENDBRANCH  12  13
ENDBRANCH   1  12
BRANCH   1  22
ATOM     22  C   UNL     1      -0.900  -5.948   0.888  0.00  0.00    +0.020 C 
BRANCH  22  23
ATOM     23  C   UNL     1      -0.186  -6.001   2.215  0.00  0.00    +0.179 A 
ATOM     24  N   UNL     1      -0.764  -6.042   3.378  0.00  0.00    -0.210 NA
ATOM     25  C   UNL     1       0.201  -6.082   4.337  0.00  0.00    +0.163 A 
ATOM     26  C   UNL     1       1.402  -6.064   3.697  0.00  0.00    +0.230 A 
ATOM     27  O   UNL     1       1.144  -6.018   2.381  0.00  0.00    -0.449 OA
BRANCH  25  28
ATOM     28  C   UNL     1      -0.014  -6.135   5.794  0.00  0.00    +0.266 C 
ATOM     29  O   UNL     1       0.935  -6.073   6.552  0.00  0.00    -0.268 OA
ATOM     30  N   UNL     1      -1.263  -6.253   6.287  0.00  0.00    -0.310 N 
ATOM     31  H   UNL     1      -2.012  -6.381   5.684  0.00  0.00    +0.149 HD
BRANCH  30  32
ATOM     32  C   UNL     1      -1.489  -6.187   7.733  0.00  0.00    +0.110 C 
BRANCH  32  33
ATOM     33  C   UNL     1      -2.983  -6.347   8.024  0.00  0.00    +0.074 C 
BRANCH  33  34
ATOM     34  C   UNL     1      -3.216  -6.280   9.511  0.00  0.00    +0.043 A 
ATOM     35  C   UNL     1      -4.118  -5.365  10.021  0.00  0.00    +0.023 A 
ATOM     36  C   UNL     1      -4.324  -5.311  11.390  0.00  0.00    +0.003 A 
ATOM     37  C   UNL     1      -3.613  -6.183  12.200  0.00  0.00    +0.020 A 
ATOM     38  C   UNL     1      -2.727  -7.071  11.619  0.00  0.00    +0.111 A 
ATOM     39  N   UNL     1      -2.560  -7.098  10.311  0.00  0.00    -0.260 NA
ENDBRANCH  33  34
ENDBRANCH  32  33
ENDBRANCH  30  32
ENDBRANCH  25  28
ENDBRANCH  22  23
ENDBRANCH   1  22
TORSDOF 10
