REMARK  Name = ZINC09544258
REMARK  10 active torsions:
REMARK  status: ('A' for Active; 'I' for Inactive)
REMARK    1  A    between atoms: C_1  and  C_2
REMARK    2  A    between atoms: C_2  and  C_34
REMARK    3  A    between atoms: N_5  and  C_9
REMARK    4  A    between atoms: C_9  and  C_10
REMARK    5  A    between atoms: C_10  and  O_12
REMARK    6  A    between atoms: O_12  and  C_13
REMARK    7  A    between atoms: C_13  and  C_14
REMARK    8  A    between atoms: N_16  and  C_17
REMARK    9  A    between atoms: C_21  and  S_23
REMARK   10  A    between atoms: S_23  and  N_26
REMARK                            x       y       z     vdW  Elec       q    Type
REMARK                         _______ _______ _______ _____ _____    ______ ____
ROOT
ATOM      1  C   UNL     1      -4.334  -7.887  -0.117  0.00  0.00    +0.255 C 
ATOM      2  O   UNL     1      -4.803  -8.758  -0.818  0.00  0.00    -0.272 OA
ATOM      3  N   UNL     1      -4.875  -7.628   1.090  0.00  0.00    -0.283 N 
ATOM      4  H   UNL     1      -4.460  -6.979   1.678  0.00  0.00    +0.155 HD
ENDROOT
BRANCH   3   5
ATOM      5  C   UNL     1      -6.036  -8.296   1.493  0.00  0.00    +0.035 A 
ATOM      6  C   UNL     1      -6.987  -7.637   2.262  0.00  0.00    +0.023 A 
ATOM      7  C   UNL     1      -8.132  -8.299   2.659  0.00  0.00    +0.004 A 
ATOM      8  C   UNL     1      -8.332  -9.618   2.292  0.00  0.00    +0.029 A 
ATOM      9  C   UNL     1      -7.388 -10.277   1.527  0.00  0.00    +0.114 A 
ATOM     10  C   UNL     1      -6.244  -9.618   1.121  0.00  0.00    +0.052 A 
BRANCH   9  11
ATOM     11  S   UNL     1      -7.648 -11.956   1.062  0.00  0.00    +0.100 S 
ATOM     12  O   UNL     1      -6.365 -12.511   0.808  0.00  0.00    -0.146 OA
ATOM     13  O   UNL     1      -8.541 -12.509   2.020  0.00  0.00    -0.146 OA
BRANCH  11  14
ATOM     14  N   UNL     1      -8.454 -11.945  -0.384  0.00  0.00    -0.118 NA
ATOM     15  C   UNL     1      -8.773 -13.060  -0.955  0.00  0.00    +0.117 C 
ATOM     16  C   UNL     1      -8.413 -14.389  -0.295  0.00  0.00    +0.073 C 
ATOM     17  C   UNL     1      -9.707 -15.026   0.168  0.00  0.00    +0.008 C 
ATOM     18  C   UNL     1     -10.372 -15.898  -0.898  0.00  0.00    +0.002 C 
ATOM     19  C   UNL     1     -10.354 -15.262  -2.289  0.00  0.00    +0.019 C 
ATOM     20  C   UNL     1     -10.687 -13.787  -2.275  0.00  0.00    +0.102 C 
ATOM     21  N   UNL     1      -9.415 -13.053  -2.107  0.00  0.00    -0.331 N 
ATOM     22  H   UNL     1      -9.047 -12.561  -2.857  0.00  0.00    +0.147 HD
ENDBRANCH  11  14
ENDBRANCH   9  11
ENDBRANCH   3   5
BRANCH   1  23
ATOM     23  C   UNL     1      -3.145  -7.094  -0.595  0.00  0.00    +0.328 C 
BRANCH  23  24
ATOM     24  O   UNL     1      -2.758  -7.551  -1.893  0.00  0.00    -0.454 OA
BRANCH  24  25
ATOM     25  C   UNL     1      -1.706  -6.944  -2.465  0.00  0.00    +0.326 C 
ATOM     26  O   UNL     1      -1.134  -6.053  -1.883  0.00  0.00    -0.249 OA
BRANCH  25  27
ATOM     27  C   UNL     1      -1.240  -7.372  -3.832  0.00  0.00    +0.238 C 
BRANCH  27  32
ATOM     28  C   UNL     1       2.960  -6.317  -5.651  0.00  0.00    +0.041 C 
ATOM     29  C   UNL     1       2.031  -5.773  -4.564  0.00  0.00    +0.107 C 
ATOM     30  C   UNL     1       1.194  -6.889  -3.970  0.00  0.00    +0.246 C 
ATOM     31  O   UNL     1       1.595  -7.871  -3.382  0.00  0.00    -0.273 OA
ATOM     32  N   UNL     1      -0.087  -6.562  -4.231  0.00  0.00    -0.213 N 
ATOM     33  C   UNL     1      -0.175  -5.407  -4.900  0.00  0.00    +0.310 C 
ATOM     34  O   UNL     1      -1.226  -4.906  -5.248  0.00  0.00    -0.252 OA
ATOM     35  N   UNL     1       1.030  -4.862  -5.145  0.00  0.00    -0.285 N 
ATOM     36  C   UNL     1       2.838  -5.063  -3.475  0.00  0.00    +0.041 C 
ATOM     37  H   UNL     1       1.206  -4.030  -5.612  0.00  0.00    +0.151 HD
ENDBRANCH  27  32
ENDBRANCH  25  27
ENDBRANCH  24  25
ENDBRANCH  23  24
ENDBRANCH   1  23
TORSDOF 8
