REMARK  Name = ZINC25058723
REMARK  7 active torsions:
REMARK  status: ('A' for Active; 'I' for Inactive)
REMARK    1  A    between atoms: C_4  and  C_7
REMARK    2  A    between atoms: N_9  and  C_10
REMARK    3  A    between atoms: C_10  and  C_11
REMARK    4  A    between atoms: C_13  and  C_16
REMARK    5  A    between atoms: C_16  and  S_17
REMARK    6  A    between atoms: S_17  and  C_18
REMARK    7  A    between atoms: N_28  and  C_29
REMARK                            x       y       z     vdW  Elec       q    Type
REMARK                         _______ _______ _______ _____ _____    ______ ____
ROOT
ATOM      1  S   UNL     1      -0.700  -1.660  -2.331  0.00  0.00    -0.078 S 
ENDROOT
BRANCH   1   2
ATOM      2  C   UNL     1      -1.815  -1.292  -1.017  0.00  0.00    +0.173 A 
ATOM      3  N   UNL     1      -3.028  -1.784  -1.071  0.00  0.00    -0.223 NA
ATOM      4  C   UNL     1      -3.934  -1.538  -0.103  0.00  0.00    +0.079 A 
ATOM      5  C   UNL     1      -5.230  -2.058  -0.163  0.00  0.00    +0.028 A 
ATOM      6  C   UNL     1      -6.117  -1.782   0.840  0.00  0.00    +0.002 A 
ATOM      7  C   UNL     1      -5.750  -0.991   1.921  0.00  0.00    +0.001 A 
ATOM      8  C   UNL     1      -4.489  -0.468   2.008  0.00  0.00    +0.015 A 
ATOM      9  C   UNL     1      -3.564  -0.733   0.999  0.00  0.00    +0.065 A 
ATOM     10  C   UNL     1      -2.196  -0.198   1.039  0.00  0.00    +0.263 A 
ATOM     11  O   UNL     1      -1.819   0.500   1.962  0.00  0.00    -0.267 OA
ATOM     12  N   UNL     1      -1.372  -0.511   0.012  0.00  0.00    -0.284 N 
BRANCH  12  13
ATOM     13  C   UNL     1       0.002  -0.004   0.002  0.00  0.00    +0.093 C 
ATOM     14  C   UNL     1      -0.019   1.526   0.010  0.00  0.00    +0.025 C 
ATOM     15  C   UNL     1       1.417   2.055  -0.000  0.00  0.00    +0.002 C 
ATOM     16  C   UNL     1       2.157   1.548   1.239  0.00  0.00    +0.000 C 
ATOM     17  C   UNL     1       2.178   0.019   1.231  0.00  0.00    +0.002 C 
ATOM     18  C   UNL     1       0.742  -0.511   1.242  0.00  0.00    +0.025 C 
ENDBRANCH  12  13
ENDBRANCH   1   2
BRANCH   1  19
ATOM     19  C   UNL     1      -1.770  -2.683  -3.373  0.00  0.00    +0.176 C 
BRANCH  19  22
ATOM     20  C   UNL     1       0.201  -4.195  -5.965  0.00  0.00    +0.189 A 
ATOM     21  N   UNL     1      -0.288  -4.218  -4.712  0.00  0.00    -0.194 NA
ATOM     22  C   UNL     1      -1.006  -3.127  -4.594  0.00  0.00    +0.238 A 
ATOM     23  O   UNL     1      -0.936  -2.487  -5.765  0.00  0.00    -0.337 OA
ATOM     24  N   UNL     1      -0.235  -3.112  -6.534  0.00  0.00    -0.060 NA
BRANCH  20  25
ATOM     25  C   UNL     1       1.093  -5.235  -6.592  0.00  0.00    +0.184 C 
BRANCH  25  28
ATOM     26  C   UNL     1       0.855  -7.293  -7.875  0.00  0.00    +0.244 C 
ATOM     27  O   UNL     1       2.067  -7.380  -7.905  0.00  0.00    -0.270 OA
ATOM     28  N   UNL     1       0.269  -6.256  -7.244  0.00  0.00    -0.304 N 
ATOM     29  H   UNL     1      -0.828  -6.178  -7.217  0.00  0.00    +0.149 HD
BRANCH  26  33
ATOM     30  C   UNL     1      -1.534 -10.254  -9.763  0.00  0.00    +0.000 A 
ATOM     31  C   UNL     1      -0.155 -10.357  -9.799  0.00  0.00    +0.001 A 
ATOM     32  C   UNL     1       0.627  -9.398  -9.188  0.00  0.00    +0.013 A 
ATOM     33  C   UNL     1       0.023  -8.324  -8.533  0.00  0.00    +0.037 A 
ATOM     34  C   UNL     1      -1.369  -8.229  -8.496  0.00  0.00    +0.013 A 
ATOM     35  C   UNL     1      -2.139  -9.192  -9.115  0.00  0.00    +0.001 A 
ENDBRANCH  26  33
ENDBRANCH  25  28
ENDBRANCH  20  25
ENDBRANCH  19  22
ENDBRANCH   1  19
TORSDOF 7
