REMARK  Name = ZINC15988642
REMARK  6 active torsions:
REMARK  status: ('A' for Active; 'I' for Inactive)
REMARK    1  A    between atoms: C_3  and  C_6
REMARK    2  A    between atoms: C_6  and  C_8
REMARK    3  A    between atoms: C_6  and  N_61
REMARK    4  A    between atoms: C_8  and  N_9
REMARK    5  A    between atoms: C_10  and  C_12
REMARK    6  A    between atoms: C_18  and  C_20
REMARK                            x       y       z     vdW  Elec       q    Type
REMARK                         _______ _______ _______ _____ _____    ______ ____
ROOT
ATOM      1  N   UNL     1       6.992   6.393  -1.692  0.00  0.00    -0.316 N 
ATOM      2  C   UNL     1       5.896   7.129  -1.420  0.00  0.00    +0.216 C 
ATOM      3  O   UNL     1       5.657   8.125  -2.069  0.00  0.00    -0.276 OA
ATOM      4  H   UNL     1       7.183   5.597  -1.173  0.00  0.00    +0.149 HD
ENDROOT
BRANCH   2   5
ATOM      5  C   UNL     1       4.968   6.714  -0.307  0.00  0.00    +0.078 C 
ATOM      6  C   UNL     1       3.812   7.713  -0.209  0.00  0.00    +0.032 C 
ATOM      7  C   UNL     1       2.889   7.308   0.944  0.00  0.00    +0.109 C 
ATOM      8  N   UNL     1       2.467   5.914   0.745  0.00  0.00    -0.297 N 
ATOM      9  C   UNL     1       3.498   4.885   0.555  0.00  0.00    +0.109 C 
ATOM     10  C   UNL     1       4.414   5.318  -0.600  0.00  0.00    +0.032 C 
ATOM     11  C   UNL     1       1.160   5.586   0.743  0.00  0.00    +0.247 C 
ATOM     12  O   UNL     1       0.314   6.459   0.785  0.00  0.00    -0.270 OA
BRANCH  11  13
ATOM     13  C   UNL     1       0.755   4.166   0.691  0.00  0.00    +0.037 A 
ATOM     14  C   UNL     1      -0.374   3.786  -0.038  0.00  0.00    +0.014 A 
ATOM     15  C   UNL     1      -0.747   2.459  -0.084  0.00  0.00    +0.021 A 
ATOM     16  C   UNL     1      -0.005   1.504   0.592  0.00  0.00    +0.041 A 
ATOM     17  C   UNL     1       1.115   1.876   1.317  0.00  0.00    +0.021 A 
ATOM     18  C   UNL     1       1.498   3.199   1.370  0.00  0.00    +0.014 A 
ATOM     19 CL   UNL     1      -0.481  -0.164   0.530  0.00  0.00    -0.084 Cl
ENDBRANCH  11  13
ENDBRANCH   2   5
BRANCH   1  20
ATOM     20  C   UNL     1       7.895   6.796  -2.773  0.00  0.00    +0.096 C 
BRANCH  20  21
ATOM     21  C   UNL     1       9.050   5.798  -2.872  0.00  0.00    +0.016 C 
BRANCH  21  27
ATOM     22  C   UNL     1      10.187   6.997  -1.102  0.00  0.00    -0.078 C 
ATOM     23  C   UNL     1      10.739   6.867   0.319  0.00  0.00    -0.019 C 
ATOM     24  C   UNL     1      11.890   5.857   0.324  0.00  0.00    -0.004 C 
ATOM     25  C   UNL     1      11.383   4.514  -0.209  0.00  0.00    -0.019 C 
ATOM     26  C   UNL     1      10.811   4.712  -1.615  0.00  0.00    -0.078 C 
ATOM     27  N   UNL     1       9.692   5.676  -1.547  0.00  0.00    +0.387 N 
ATOM     28  H   UNL     1       8.999   5.335  -0.870  0.00  0.00    -0.081 HD
ENDBRANCH  21  27
BRANCH  21  31
ATOM     29  C   UNL     1      11.248   6.502  -5.745  0.00  0.00    +0.041 A 
ATOM     30  C   UNL     1      10.227   5.747  -5.122  0.00  0.00    +0.043 A 
ATOM     31  C   UNL     1      10.042   6.278  -3.900  0.00  0.00    +0.093 A 
ATOM     32  O   UNL     1      10.887   7.311  -3.753  0.00  0.00    -0.469 OA
ATOM     33  C   UNL     1      11.625   7.448  -4.867  0.00  0.00    +0.195 A 
ENDBRANCH  21  31
ENDBRANCH  20  21
ENDBRANCH   1  20
TORSDOF 6
