REMARK  Name = ZINC34734723
REMARK  8 active torsions:
REMARK  status: ('A' for Active; 'I' for Inactive)
REMARK    1  A    between atoms: C_1  and  C_2
REMARK    2  A    between atoms: C_2  and  C_4
REMARK    3  A    between atoms: C_4  and  N_5
REMARK    4  A    between atoms: C_20  and  C_22
REMARK    5  A    between atoms: C_20  and  C_23
REMARK    6  A    between atoms: N_26  and  C_27
REMARK    7  A    between atoms: C_27  and  C_28
REMARK    8  A    between atoms: N_30  and  C_31
REMARK                            x       y       z     vdW  Elec       q    Type
REMARK                         _______ _______ _______ _____ _____    ______ ____
ROOT
ATOM      1  N   UNL     1      -2.376  -0.207  -1.022  0.00  0.00    +0.384 N 
ATOM      2  C   UNL     1      -3.829  -0.172  -1.226  0.00  0.00    -0.059 C 
ATOM      3  C   UNL     1      -4.175  -0.862  -2.550  0.00  0.00    +0.089 C 
ATOM      4  N   UNL     1      -3.396  -0.226  -3.624  0.00  0.00    -0.304 N 
ATOM      5  C   UNL     1      -1.946  -0.071  -3.430  0.00  0.00    +0.089 C 
ATOM      6  C   UNL     1      -1.705   0.581  -2.064  0.00  0.00    -0.059 C 
ATOM      7  C   UNL     1      -4.005   0.209  -4.774  0.00  0.00    +0.202 A 
ATOM      8  N   UNL     1      -4.551   1.407  -4.807  0.00  0.00    -0.208 NA
ATOM      9  C   UNL     1      -5.146   1.854  -5.906  0.00  0.00    +0.118 A 
ATOM     10  C   UNL     1      -5.225   1.083  -7.080  0.00  0.00    +0.076 A 
ATOM     11  C   UNL     1      -5.912   1.710  -8.206  0.00  0.00    -0.018 A 
ATOM     12  C   UNL     1      -6.400   2.955  -8.014  0.00  0.00    +0.021 A 
ATOM     13  S   UNL     1      -5.978   3.361  -6.344  0.00  0.00    -0.071 S 
ATOM     14  C   UNL     1      -7.133   3.785  -9.022  0.00  0.00    +0.203 C 
ATOM     15  O   UNL     1      -6.957   3.174 -10.310  0.00  0.00    -0.368 OA
ATOM     16  C   UNL     1      -7.210   1.766 -10.313  0.00  0.00    +0.068 C 
ATOM     17  C   UNL     1      -6.098   1.029  -9.560  0.00  0.00    +0.071 C 
ATOM     18  C   UNL     1      -8.552   1.491  -9.633  0.00  0.00    +0.041 C 
ATOM     19  C   UNL     1      -7.263   1.264 -11.757  0.00  0.00    +0.041 C 
ATOM     20  C   UNL     1      -4.622  -0.213  -7.014  0.00  0.00    +0.264 A 
ATOM     21  O   UNL     1      -4.640  -0.952  -7.983  0.00  0.00    -0.267 OA
ATOM     22  N   UNL     1      -4.030  -0.602  -5.870  0.00  0.00    -0.271 N 
ATOM     23  H   UNL     1      -2.055  -1.163  -1.066  0.00  0.00    -0.081 HD
ENDROOT
BRANCH   1  24
ATOM     24  C   UNL     1      -2.054   0.355   0.297  0.00  0.00    -0.048 C 
BRANCH  24  26
ATOM     25  C   UNL     1      -1.864  -1.758   1.817  0.00  0.00    +0.036 C 
ATOM     26  C   UNL     1      -2.622  -0.533   1.373  0.00  0.00    -0.096 C 
ATOM     27  C   UNL     1      -3.775  -0.241   1.924  0.00  0.00    +0.005 C 
ENDBRANCH  24  26
ENDBRANCH   1  24
BRANCH  22  28
ATOM     28  C   UNL     1      -3.406  -1.926  -5.799  0.00  0.00    +0.224 C 
BRANCH  28  29
ATOM     29  C   UNL     1      -4.451  -2.955  -5.451  0.00  0.00    +0.237 C 
ATOM     30  O   UNL     1      -5.603  -2.617  -5.279  0.00  0.00    -0.274 OA
ATOM     31  N   UNL     1      -4.104  -4.252  -5.330  0.00  0.00    -0.284 N 
ATOM     32  H   UNL     1      -3.172  -4.513  -5.393  0.00  0.00    +0.155 HD
BRANCH  31  33
ATOM     33  C   UNL     1      -5.090  -5.222  -5.115  0.00  0.00    +0.033 A 
ATOM     34  C   UNL     1      -4.817  -6.325  -4.316  0.00  0.00    +0.023 A 
ATOM     35  C   UNL     1      -5.792  -7.281  -4.106  0.00  0.00    +0.002 A 
ATOM     36  C   UNL     1      -7.037  -7.141  -4.689  0.00  0.00    +0.000 A 
ATOM     37  C   UNL     1      -7.312  -6.043  -5.485  0.00  0.00    +0.002 A 
ATOM     38  C   UNL     1      -6.343  -5.081  -5.694  0.00  0.00    +0.023 A 
ENDBRANCH  31  33
ENDBRANCH  28  29
ENDBRANCH  22  28
TORSDOF 5
