REMARK  Name = ZINC06279918
REMARK  9 active torsions:
REMARK  status: ('A' for Active; 'I' for Inactive)
REMARK    1  A    between atoms: C_1  and  C_2
REMARK    2  A    between atoms: C_5  and  C_8
REMARK    3  A    between atoms: N_11  and  C_13
REMARK    4  A    between atoms: C_13  and  C_14
REMARK    5  A    between atoms: N_16  and  C_17
REMARK    6  A    between atoms: N_16  and  C_24
REMARK    7  A    between atoms: C_24  and  C_26
REMARK    8  A    between atoms: C_24  and  C_32
REMARK    9  A    between atoms: N_34  and  C_35
REMARK                            x       y       z     vdW  Elec       q    Type
REMARK                         _______ _______ _______ _____ _____    ______ ____
ROOT
ATOM      1  C   UNL     1      -3.989   3.877   1.962  0.00  0.00    +0.244 C 
ATOM      2  O   UNL     1      -3.623   5.006   2.210  0.00  0.00    -0.273 OA
ATOM      3  N   UNL     1      -3.526   3.245   0.866  0.00  0.00    -0.254 N 
ENDROOT
BRANCH   3   4
ATOM      4  C   UNL     1      -3.875   1.910   0.627  0.00  0.00    +0.038 A 
ATOM      5  C   UNL     1      -5.147   1.595   0.168  0.00  0.00    +0.026 A 
ATOM      6  C   UNL     1      -5.487   0.278  -0.073  0.00  0.00    +0.040 A 
ATOM      7  C   UNL     1      -4.565  -0.729   0.156  0.00  0.00    +0.124 A 
ATOM      8  C   UNL     1      -3.298  -0.418   0.620  0.00  0.00    +0.040 A 
ATOM      9  C   UNL     1      -2.952   0.898   0.856  0.00  0.00    +0.026 A 
ATOM     10  F   UNL     1      -4.902  -2.017  -0.074  0.00  0.00    -0.205 F 
ENDBRANCH   3   4
BRANCH   1  11
ATOM     11  C   UNL     1      -4.962   3.181   2.878  0.00  0.00    +0.264 C 
BRANCH  11  15
ATOM     12  C   UNL     1      -5.422   5.139   5.777  0.00  0.00    +0.205 A 
ATOM     13  N   UNL     1      -6.437   5.557   5.007  0.00  0.00    -0.108 NA
ATOM     14  N   UNL     1      -6.372   4.900   3.899  0.00  0.00    -0.045 NA
ATOM     15  N   UNL     1      -5.367   4.098   3.947  0.00  0.00    -0.154 N 
ATOM     16  N   UNL     1      -4.776   4.222   5.086  0.00  0.00    -0.130 NA
BRANCH  12  21
ATOM     17  C   UNL     1      -4.151   6.975  11.087  0.00  0.00    +0.044 C 
ATOM     18  C   UNL     1      -4.484   6.495   9.698  0.00  0.00    -0.050 A 
ATOM     19  C   UNL     1      -5.570   7.027   9.027  0.00  0.00    +0.004 A 
ATOM     20  C   UNL     1      -5.879   6.590   7.754  0.00  0.00    +0.012 A 
ATOM     21  C   UNL     1      -5.094   5.613   7.146  0.00  0.00    +0.023 A 
ATOM     22  C   UNL     1      -4.005   5.077   7.829  0.00  0.00    +0.012 A 
ATOM     23  C   UNL     1      -3.702   5.524   9.099  0.00  0.00    +0.004 A 
ENDBRANCH  12  21
ENDBRANCH  11  15
ENDBRANCH   1  11
BRANCH   3  24
ATOM     24  C   UNL     1      -2.657   3.954  -0.077  0.00  0.00    +0.197 C 
BRANCH  24  25
ATOM     25  C   UNL     1      -2.192   3.000  -1.147  0.00  0.00    -0.015 A 
ATOM     26  C   UNL     1      -3.106   2.308  -1.927  0.00  0.00    +0.025 A 
ATOM     27  C   UNL     1      -2.643   1.438  -2.896  0.00  0.00    +0.111 A 
ATOM     28  N   UNL     1      -1.349   1.271  -3.088  0.00  0.00    -0.263 NA
ATOM     29  C   UNL     1      -0.451   1.915  -2.369  0.00  0.00    +0.111 A 
ATOM     30  C   UNL     1      -0.840   2.797  -1.379  0.00  0.00    +0.025 A 
ENDBRANCH  24  25
BRANCH  24  31
ATOM     31  C   UNL     1      -3.423   5.086  -0.712  0.00  0.00    +0.239 C 
ATOM     32  O   UNL     1      -4.580   5.281  -0.407  0.00  0.00    -0.273 OA
ATOM     33  N   UNL     1      -2.821   5.882  -1.618  0.00  0.00    -0.311 N 
ATOM     34  H   UNL     1      -1.895   5.726  -1.862  0.00  0.00    +0.149 HD
BRANCH  33  35
ATOM     35  C   UNL     1      -3.566   6.982  -2.235  0.00  0.00    +0.073 C 
ATOM     36  C   UNL     1      -4.308   6.480  -3.491  0.00  0.00    +0.022 C 
ATOM     37  C   UNL     1      -4.206   7.660  -4.489  0.00  0.00    +0.002 C 
ATOM     38  C   UNL     1      -2.777   8.201  -4.234  0.00  0.00    +0.002 C 
ATOM     39  C   UNL     1      -2.593   8.077  -2.708  0.00  0.00    +0.022 C 
ENDBRANCH  33  35
ENDBRANCH  24  31
ENDBRANCH   3  24
TORSDOF 8
