REMARK  Name = ZINC06202714
REMARK  5 active torsions:
REMARK  status: ('A' for Active; 'I' for Inactive)
REMARK    1  A    between atoms: C_1  and  C_2
REMARK    2  A    between atoms: C_5  and  C_7
REMARK    3  A    between atoms: C_5  and  O_10
REMARK    4  A    between atoms: C_11  and  C_13
REMARK    5  A    between atoms: C_18  and  O_19
REMARK                            x       y       z     vdW  Elec       q    Type
REMARK                         _______ _______ _______ _____ _____    ______ ____
ROOT
ATOM      1  C   UNL     1      -0.623   8.385   0.301  0.00  0.00    +0.062 C 
ATOM      2  C   UNL     1      -1.655   7.288   0.269  0.00  0.00    +0.039 C 
ATOM      3  N   UNL     1      -1.401   6.049   0.157  0.00  0.00    -0.184 NA
ATOM      4  N   UNL     1      -2.527   5.227   0.152  0.00  0.00    -0.151 N 
ATOM      5  C   UNL     1      -3.727   6.070   0.277  0.00  0.00    +0.222 C 
ATOM      6  C   UNL     1      -3.150   7.497   0.366  0.00  0.00    +0.115 C 
ATOM      7  C   UNL     1      -2.518   3.884   0.044  0.00  0.00    +0.272 C 
ATOM      8  O   UNL     1      -3.566   3.274  -0.044  0.00  0.00    -0.268 OA
ENDROOT
BRANCH   7   9
ATOM      9  C   UNL     1      -1.236   3.153   0.033  0.00  0.00    +0.080 A 
ATOM     10  C   UNL     1      -0.028   3.854   0.005  0.00  0.00    +0.017 A 
ATOM     11  C   UNL     1       1.165   3.166  -0.006  0.00  0.00    +0.001 A 
ATOM     12  C   UNL     1       1.174   1.781   0.010  0.00  0.00    +0.004 A 
ATOM     13  C   UNL     1      -0.013   1.075   0.038  0.00  0.00    +0.046 A 
ATOM     14  C   UNL     1      -1.224   1.752   0.044  0.00  0.00    +0.129 A 
BRANCH  14  15
ATOM     15  O   UNL     1      -2.390   1.060   0.066  0.00  0.00    -0.506 OA
ATOM     16  H   UNL     1      -2.719   0.869   0.955  0.00  0.00    +0.292 HD
ENDBRANCH  14  15
ENDBRANCH   7   9
BRANCH   5  17
ATOM     17  C   UNL     1      -4.621   5.923  -0.956  0.00  0.00    +0.393 C 
ATOM     18  F   UNL     1      -5.736   6.758  -0.826  0.00  0.00    -0.204 F 
ATOM     19  F   UNL     1      -3.901   6.282  -2.100  0.00  0.00    -0.204 F 
ENDBRANCH   5  17
BRANCH   5  20
ATOM     20  O   UNL     1      -4.449   5.745   1.467  0.00  0.00    -0.365 OA
ATOM     21  H   UNL     1      -4.772   4.834   1.495  0.00  0.00    +0.212 HD
ENDBRANCH   5  20
TORSDOF 4
