REMARK  Name = ZINC32734802
REMARK  12 active torsions:
REMARK  status: ('A' for Active; 'I' for Inactive)
REMARK    1  A    between atoms: C_1  and  C_2
REMARK    2  A    between atoms: C_2  and  C_3
REMARK    3  A    between atoms: C_6  and  C_9
REMARK    4  A    between atoms: C_9  and  C_11
REMARK    5  A    between atoms: C_9  and  N_34
REMARK    6  A    between atoms: C_11  and  N_12
REMARK    7  A    between atoms: C_13  and  C_15
REMARK    8  A    between atoms: C_20  and  S_21
REMARK    9  A    between atoms: S_21  and  C_22
REMARK   10  A    between atoms: C_22  and  C_23
REMARK   11  A    between atoms: N_34  and  C_35
REMARK   12  A    between atoms: N_34  and  C_36
REMARK                            x       y       z     vdW  Elec       q    Type
REMARK                         _______ _______ _______ _____ _____    ______ ____
ROOT
ATOM      1  C   UNL     1       7.707  -1.359  -0.258  0.00  0.00    +0.050 A 
ATOM      2  C   UNL     1       7.853  -2.713  -0.573  0.00  0.00    +0.014 A 
ATOM      3  C   UNL     1       6.737  -3.493  -0.784  0.00  0.00    +0.001 A 
ATOM      4  C   UNL     1       5.468  -2.943  -0.685  0.00  0.00    +0.001 A 
ATOM      5  C   UNL     1       5.307  -1.610  -0.369  0.00  0.00    +0.015 A 
ATOM      6  C   UNL     1       6.421  -0.805  -0.158  0.00  0.00    +0.020 A 
ENDROOT
BRANCH   1   8
ATOM      7  N   UNL     1      10.129  -1.055  -0.127  0.00  0.00    -0.313 N 
ATOM      8  C   UNL     1       8.896  -0.518  -0.030  0.00  0.00    +0.245 C 
ATOM      9  O   UNL     1       8.765   0.659   0.244  0.00  0.00    -0.270 OA
ATOM     10  H   UNL     1      10.248  -2.120  -0.375  0.00  0.00    +0.149 HD
BRANCH   7  11
ATOM     11  C   UNL     1      11.311  -0.219   0.099  0.00  0.00    +0.094 C 
BRANCH  11  12
ATOM     12  C   UNL     1      12.574  -1.066  -0.070  0.00  0.00    -0.021 C 
BRANCH  12  16
ATOM     13  C   UNL     1      16.020   1.439   0.246  0.00  0.00    -0.048 A 
ATOM     14  C   UNL     1      14.993   1.780  -0.615  0.00  0.00    +0.004 A 
ATOM     15  C   UNL     1      13.878   0.970  -0.717  0.00  0.00    +0.002 A 
ATOM     16  C   UNL     1      13.790  -0.182   0.041  0.00  0.00    -0.059 A 
ATOM     17  C   UNL     1      14.814  -0.521   0.906  0.00  0.00    +0.002 A 
ATOM     18  C   UNL     1      15.931   0.286   1.004  0.00  0.00    +0.004 A 
BRANCH  13  20
ATOM     19  C   UNL     1      17.008   3.366   1.453  0.00  0.00    +0.009 C 
ATOM     20  C   UNL     1      17.235   2.323   0.357  0.00  0.00    +0.032 C 
ENDBRANCH  13  20
ENDBRANCH  12  16
BRANCH  12  21
ATOM     21  N   UNL     1      12.557  -1.712  -1.389  0.00  0.00    +0.382 N 
ATOM     22  C   UNL     1      12.498  -0.713  -2.464  0.00  0.00    -0.096 C 
ATOM     23  C   UNL     1      13.718  -2.598  -1.556  0.00  0.00    -0.096 C 
ATOM     24  H   UNL     1      11.649  -2.330  -1.451  0.00  0.00    -0.082 HD
ENDBRANCH  12  21
ENDBRANCH  11  12
ENDBRANCH   7  11
ENDBRANCH   1   8
BRANCH   6  25
ATOM     25  S   UNL     1       6.219   0.900   0.238  0.00  0.00    -0.115 S 
BRANCH  25  26
ATOM     26  C   UNL     1       4.420   1.137   0.251  0.00  0.00    +0.170 C 
BRANCH  26  27
ATOM     27  C   UNL     1       4.106   2.574   0.582  0.00  0.00    +0.230 C 
ATOM     28  O   UNL     1       5.006   3.359   0.789  0.00  0.00    -0.274 OA
ATOM     29  N   UNL     1       2.824   2.985   0.647  0.00  0.00    -0.270 N 
ATOM     30  C   UNL     1       2.394   4.350   0.960  0.00  0.00    +0.118 C 
ATOM     31  C   UNL     1       0.858   4.311   0.914  0.00  0.00    +0.056 C 
ATOM     32  C   UNL     1       0.524   2.877   0.567  0.00  0.00    -0.024 A 
ATOM     33  C   UNL     1       1.708   2.170   0.428  0.00  0.00    +0.039 A 
ATOM     34  C   UNL     1       1.653   0.813   0.105  0.00  0.00    +0.024 A 
ATOM     35  C   UNL     1       0.437   0.189  -0.072  0.00  0.00    +0.002 A 
ATOM     36  C   UNL     1      -0.739   0.903   0.069  0.00  0.00    +0.000 A 
ATOM     37  C   UNL     1      -0.692   2.248   0.388  0.00  0.00    +0.005 A 
ENDBRANCH  26  27
ENDBRANCH  25  26
ENDBRANCH   6  25
TORSDOF 9
