REMARK  Name = ZINC09147288
REMARK  9 active torsions:
REMARK  status: ('A' for Active; 'I' for Inactive)
REMARK    1  A    between atoms: C_1  and  O_2
REMARK    2  A    between atoms: O_2  and  C_3
REMARK    3  A    between atoms: C_8  and  O_9
REMARK    4  A    between atoms: O_9  and  C_10
REMARK    5  A    between atoms: N_13  and  C_14
REMARK    6  A    between atoms: C_14  and  C_16
REMARK    7  A    between atoms: C_16  and  C_17
REMARK    8  A    between atoms: N_27  and  C_28
REMARK    9  A    between atoms: C_28  and  C_29
REMARK                            x       y       z     vdW  Elec       q    Type
REMARK                         _______ _______ _______ _____ _____    ______ ____
ROOT
ATOM      1  C   UNL     1      -1.976   1.163   1.348  0.00  0.00    +0.164 A 
ATOM      2  C   UNL     1      -2.575   0.369   0.394  0.00  0.00    +0.076 A 
ATOM      3  C   UNL     1      -3.907  -0.048   0.539  0.00  0.00    +0.062 A 
ATOM      4  C   UNL     1      -4.588   0.390   1.684  0.00  0.00    +0.043 A 
ATOM      5  C   UNL     1      -3.997   1.187   2.637  0.00  0.00    +0.066 A 
ATOM      6  C   UNL     1      -2.678   1.583   2.477  0.00  0.00    +0.163 A 
ATOM      7  S   UNL     1      -6.202  -0.326   1.497  0.00  0.00    -0.052 S 
ATOM      8  C   UNL     1      -5.944  -1.141  -0.011  0.00  0.00    +0.167 A 
ATOM      9  N   UNL     1      -6.805  -1.883  -0.706  0.00  0.00    -0.156 NA
ATOM     10  N   UNL     1      -4.654  -0.842  -0.314  0.00  0.00    -0.309 N 
ENDROOT
BRANCH   1  12
ATOM     11  C   UNL     1      -0.013   1.086   0.008  0.00  0.00    +0.277 C 
ATOM     12  O   UNL     1      -0.682   1.547   1.184  0.00  0.00    -0.491 OA
ENDBRANCH   1  12
BRANCH   6  13
ATOM     13  O   UNL     1      -2.076   2.370   3.409  0.00  0.00    -0.491 OA
ATOM     14  C   UNL     1      -2.864   2.758   4.536  0.00  0.00    +0.277 C 
ENDBRANCH   6  13
BRANCH   9  15
ATOM     15  C   UNL     1      -8.039  -2.070  -0.251  0.00  0.00    +0.243 C 
ATOM     16  O   UNL     1      -8.383  -1.562   0.799  0.00  0.00    -0.273 OA
BRANCH  15  17
ATOM     17  C   UNL     1      -9.013  -2.909  -1.038  0.00  0.00    +0.133 C 
BRANCH  17  18
ATOM     18  C   UNL     1     -10.332  -2.962  -0.310  0.00  0.00    -0.031 A 
ATOM     19  C   UNL     1     -10.615  -4.003   0.519  0.00  0.00    +0.005 A 
ATOM     20  C   UNL     1     -11.826  -4.066   1.205  0.00  0.00    +0.001 A 
ATOM     21  C   UNL     1     -12.767  -3.094   1.056  0.00  0.00    +0.008 A 
ATOM     22  C   UNL     1     -12.514  -2.006   0.203  0.00  0.00    -0.018 A 
ATOM     23  C   UNL     1     -11.279  -1.939  -0.489  0.00  0.00    -0.014 A 
ATOM     24  C   UNL     1     -11.026  -0.852  -1.343  0.00  0.00    +0.009 A 
ATOM     25  C   UNL     1     -11.967   0.120  -1.492  0.00  0.00    +0.001 A 
ATOM     26  C   UNL     1     -13.181   0.054  -0.812  0.00  0.00    +0.001 A 
ATOM     27  C   UNL     1     -13.461  -0.984   0.023  0.00  0.00    +0.008 A 
ENDBRANCH  17  18
ENDBRANCH  15  17
ENDBRANCH   9  15
BRANCH  10  28
ATOM     28  C   UNL     1      -4.053  -1.361  -1.545  0.00  0.00    +0.212 C 
BRANCH  28  29
ATOM     29  C   UNL     1      -4.274  -0.404  -2.641  0.00  0.00    -0.084 C 
ATOM     30  C   UNL     1      -4.451   0.360  -3.514  0.00  0.00    +0.005 C 
ENDBRANCH  28  29
ENDBRANCH  10  28
TORSDOF 7
