REMARK  Name = ZINC28286211
REMARK  6 active torsions:
REMARK  status: ('A' for Active; 'I' for Inactive)
REMARK    1  A    between atoms: C_4  and  C_7
REMARK    2  A    between atoms: C_7  and  N_8
REMARK    3  A    between atoms: C_11  and  C_14
REMARK    4  A    between atoms: C_11  and  C_29
REMARK    5  A    between atoms: C_14  and  N_15
REMARK    6  A    between atoms: C_16  and  C_18
REMARK                            x       y       z     vdW  Elec       q    Type
REMARK                         _______ _______ _______ _____ _____    ______ ____
ROOT
ATOM      1  N   UNL     1       1.861   2.107  -0.274  0.00  0.00    +0.382 N 
ATOM      2  C   UNL     1       2.567   1.763   0.967  0.00  0.00    -0.077 C 
ATOM      3  C   UNL     1       3.965   2.386   0.949  0.00  0.00    -0.006 C 
ATOM      4  C   UNL     1       3.838   3.907   0.817  0.00  0.00    +0.008 C 
ATOM      5  C   UNL     1       3.057   4.237  -0.458  0.00  0.00    -0.006 C 
ATOM      6  C   UNL     1       1.686   3.560  -0.400  0.00  0.00    -0.077 C 
ATOM      7  H   UNL     1       2.481   1.770  -1.117  0.00  0.00    -0.081 HD
ENDROOT
BRANCH   4   8
ATOM      8  C   UNL     1       5.212   4.521   0.739  0.00  0.00    -0.040 A 
ATOM      9  C   UNL     1       5.351   5.876   0.502  0.00  0.00    +0.005 A 
ATOM     10  C   UNL     1       6.610   6.441   0.436  0.00  0.00    +0.020 A 
ATOM     11  C   UNL     1       7.733   5.649   0.595  0.00  0.00    +0.041 A 
ATOM     12  C   UNL     1       7.594   4.292   0.827  0.00  0.00    +0.020 A 
ATOM     13  C   UNL     1       6.334   3.729   0.898  0.00  0.00    +0.005 A 
ATOM     14 CL   UNL     1       9.316   6.356   0.506  0.00  0.00    -0.084 Cl
ENDBRANCH   4   8
BRANCH   1  15
ATOM     15  C   UNL     1       0.569   1.413  -0.354  0.00  0.00    -0.043 C 
BRANCH  15  19
ATOM     16  C   UNL     1       1.231  -2.795  -0.678  0.00  0.00    +0.000 A 
ATOM     17  C   UNL     1       1.101  -2.209   0.568  0.00  0.00    +0.000 A 
ATOM     18  C   UNL     1       0.887  -0.848   0.672  0.00  0.00    +0.002 A 
ATOM     19  C   UNL     1       0.803  -0.071  -0.468  0.00  0.00    -0.064 A 
ATOM     20  C   UNL     1       0.927  -0.658  -1.714  0.00  0.00    +0.002 A 
ATOM     21  C   UNL     1       1.146  -2.019  -1.819  0.00  0.00    +0.000 A 
ENDBRANCH  15  19
ENDBRANCH   1  15
BRANCH   4  22
ATOM     22  C   UNL     1       3.095   4.466   2.031  0.00  0.00    +0.115 C 
BRANCH  22  23
ATOM     23  N   UNL     1       3.893   4.240   3.239  0.00  0.00    -0.312 N 
ATOM     24  C   UNL     1       3.392   4.562   4.448  0.00  0.00    +0.246 C 
ATOM     25  O   UNL     1       2.319   5.121   4.530  0.00  0.00    -0.273 OA
ATOM     26  H   UNL     1       4.901   3.807   3.159  0.00  0.00    +0.149 HD
BRANCH  24  27
ATOM     27  C   UNL     1       4.165   4.226   5.697  0.00  0.00    +0.234 C 
ATOM     28  C   UNL     1       4.638   5.500   6.348  0.00  0.00    -0.007 A 
ATOM     29  C   UNL     1       3.755   6.565   6.448  0.00  0.00    +0.007 A 
ATOM     30  C   UNL     1       4.153   7.746   7.042  0.00  0.00    +0.000 A 
ATOM     31  C   UNL     1       5.437   7.869   7.540  0.00  0.00    +0.000 A 
ATOM     32  C   UNL     1       6.317   6.810   7.439  0.00  0.00    +0.004 A 
ATOM     33  C   UNL     1       5.919   5.624   6.843  0.00  0.00    -0.039 A 
ATOM     34  C   UNL     1       6.909   4.492   6.748  0.00  0.00    +0.063 C 
ATOM     35  C   UNL     1       6.173   3.183   6.455  0.00  0.00    +0.166 C 
ATOM     36  O   UNL     1       5.279   3.402   5.357  0.00  0.00    -0.362 OA
ENDBRANCH  24  27
ENDBRANCH  22  23
ENDBRANCH   4  22
TORSDOF 6
