REMARK  Name = ZINC02112446
REMARK  14 active torsions:
REMARK  status: ('A' for Active; 'I' for Inactive)
REMARK    1  A    between atoms: C_1  and  C_2
REMARK    2  A    between atoms: C_6  and  O_21
REMARK    3  A    between atoms: C_7  and  C_20
REMARK    4  A    between atoms: C_12  and  C_13
REMARK    5  A    between atoms: C_13  and  C_14
REMARK    6  A    between atoms: O_21  and  C_22
REMARK    7  A    between atoms: C_22  and  C_23
REMARK    8  A    between atoms: N_25  and  C_26
REMARK    9  A    between atoms: C_26  and  C_27
REMARK   10  A    between atoms: N_29  and  CA_30
REMARK   11  A    between atoms: CA_30  and  CB_32
REMARK   12  A    between atoms: CA_30  and  C_35
REMARK   13  A    between atoms: CB_32  and  CG1_33
REMARK   14  A    between atoms: CB_32  and  CG2_34
REMARK                            x       y       z     vdW  Elec       q    Type
REMARK                         _______ _______ _______ _____ _____    ______ ____
ROOT
ATOM      1  C   UNK A   0      11.466  -3.776  -6.141  0.00  0.00    +0.045 C 
ATOM      2  C   UNK A   0      11.851  -2.520  -5.402  0.00  0.00    -0.030 A 
ATOM      3  C   UNK A   0      10.856  -1.761  -4.642  0.00  0.00    +0.021 A 
ATOM      4  C   UNK A   0       9.521  -2.179  -4.582  0.00  0.00    +0.015 A 
ATOM      5  C   UNK A   0       8.614  -1.452  -3.868  0.00  0.00    +0.047 A 
ATOM      6  C   UNK A   0       9.007  -0.295  -3.197  0.00  0.00    +0.128 A 
ATOM      7  C   UNK A   0      10.322   0.136  -3.250  0.00  0.00    +0.034 A 
ATOM      8  C   UNK A   0      11.259  -0.594  -3.967  0.00  0.00    +0.146 A 
ATOM      9  O   UNK A   0      12.547  -0.193  -4.028  0.00  0.00    -0.422 OA
ATOM     10  C   UNK A   0      13.464  -0.885  -4.722  0.00  0.00    +0.341 A 
ATOM     11  O   UNK A   0      14.614  -0.485  -4.748  0.00  0.00    -0.245 OA
ATOM     12  C   UNK A   0      13.129  -2.062  -5.422  0.00  0.00    +0.045 A 
ATOM     13  C   UNK A   0      10.736   1.392  -2.526  0.00  0.00    +0.051 C 
ENDROOT
BRANCH  12  14
ATOM     14  C   UNK A   0      14.188  -2.811  -6.190  0.00  0.00    +0.077 C 
BRANCH  14  15
ATOM     15  C   UNK A   0      14.246  -2.289  -7.603  0.00  0.00    -0.043 A 
ATOM     16  C   UNK A   0      13.462  -2.864  -8.585  0.00  0.00    +0.004 A 
ATOM     17  C   UNK A   0      13.512  -2.382  -9.880  0.00  0.00    +0.000 A 
ATOM     18  C   UNK A   0      14.354  -1.331 -10.194  0.00  0.00    +0.000 A 
ATOM     19  C   UNK A   0      15.142  -0.760  -9.213  0.00  0.00    +0.000 A 
ATOM     20  C   UNK A   0      15.088  -1.239  -7.917  0.00  0.00    +0.004 A 
ENDBRANCH  14  15
ENDBRANCH  12  14
BRANCH   6  21
ATOM     21  O   UNK A   0       8.093   0.417  -2.491  0.00  0.00    -0.482 OA
BRANCH  21  22
ATOM     22  C   UNK A   0       6.752  -0.077  -2.481  0.00  0.00    +0.324 C 
BRANCH  22  23
ATOM     23  C   UNK A   0       5.886   0.836  -1.653  0.00  0.00    +0.251 C 
ATOM     24  O   UNK A   0       6.369   1.815  -1.123  0.00  0.00    -0.272 OA
ATOM     25  N   UNK A   0       4.574   0.566  -1.500  0.00  0.00    -0.304 N 
ATOM     26  H   UNK A   0       4.188  -0.216  -1.924  0.00  0.00    +0.149 HD
BRANCH  25  27
ATOM     27  C   UNK A   0       3.732   1.454  -0.695  0.00  0.00    +0.200 C 
BRANCH  27  28
ATOM     28  C   UNK A   0       2.318   0.933  -0.685  0.00  0.00    +0.231 C 
ATOM     29  O   UNK A   0       2.042  -0.081  -1.290  0.00  0.00    -0.274 OA
ATOM     30  N   VAL A   1       1.362   1.593  -0.002  0.00  0.00    -0.301 N 
ATOM     31  H   VAL A   1       1.583   2.404   0.482  0.00  0.00    +0.150 HD
BRANCH  30  32
ATOM     32  CA  VAL A   1      -0.013   1.086   0.008  0.00  0.00    +0.189 C 
BRANCH  32  33
ATOM     33  CB  VAL A   1      -0.729   1.579   1.267  0.00  0.00    +0.014 C 
ATOM     34  CG1 VAL A   1      -2.164   1.050   1.278  0.00  0.00    +0.009 C 
ATOM     35  CG2 VAL A   1       0.011   1.072   2.506  0.00  0.00    +0.009 C 
ENDBRANCH  32  33
BRANCH  32  36
ATOM     36  C   VAL A   1      -0.742   1.585  -1.213  0.00  0.00    +0.376 C 
ATOM     37  O   VAL A   1      -0.172   2.292  -2.010  0.00  0.00    -0.244 OA
ATOM     38  OXT VAL A   1      -2.024   1.244  -1.415  0.00  0.00    -0.244 OA
ENDBRANCH  32  36
ENDBRANCH  30  32
ENDBRANCH  27  28
ENDBRANCH  25  27
ENDBRANCH  22  23
ENDBRANCH  21  22
ENDBRANCH   6  21
TORSDOF 10
