REMARK  Name = ZINC32503192
REMARK  7 active torsions:
REMARK  status: ('A' for Active; 'I' for Inactive)
REMARK    1  A    between atoms: C_1  and  C_2
REMARK    2  A    between atoms: C_5  and  C_8
REMARK    3  A    between atoms: C_8  and  N_9
REMARK    4  A    between atoms: N_21  and  C_22
REMARK    5  A    between atoms: C_22  and  C_24
REMARK    6  A    between atoms: C_24  and  O_25
REMARK    7  A    between atoms: O_25  and  C_26
REMARK                            x       y       z     vdW  Elec       q    Type
REMARK                         _______ _______ _______ _____ _____    ______ ____
ROOT
ATOM      1  N   UNL     1       1.059   2.148   0.004  0.00  0.00    -0.302 N 
ATOM      2  C   UNL     1       0.875   3.586   0.062  0.00  0.00    +0.111 C 
ATOM      3  C   UNL     1       1.629   4.145   1.291  0.00  0.00    +0.189 C 
ATOM      4  S   UNL     1       0.522   5.523   1.819  0.00  0.00    -0.028 S 
ATOM      5  O   UNL     1       0.530   5.617   3.237  0.00  0.00    -0.174 OA
ATOM      6  O   UNL     1       0.798   6.675   1.034  0.00  0.00    -0.174 OA
ATOM      7  C   UNL     1      -1.070   4.772   1.264  0.00  0.00    +0.182 C 
ATOM      8  C   UNL     1      -0.607   3.979   0.042  0.00  0.00    +0.097 C 
ATOM      9  S   UNL     1      -1.417   2.338   0.021  0.00  0.00    -0.086 S 
ATOM     10  C   UNL     1      -0.016   1.324   0.009  0.00  0.00    +0.150 C 
ATOM     11  N   UNL     1       0.002  -0.004   0.002  0.00  0.00    -0.156 NA
ENDROOT
BRANCH  11  12
ATOM     12  C   UNL     1      -1.141  -0.685   0.009  0.00  0.00    +0.276 C 
ATOM     13  O   UNL     1      -2.202  -0.092   0.023  0.00  0.00    -0.270 OA
BRANCH  12  14
ATOM     14  C   UNL     1      -1.121  -2.192   0.001  0.00  0.00    +0.326 C 
BRANCH  14  15
ATOM     15  O   UNL     1      -2.461  -2.687   0.011  0.00  0.00    -0.483 OA
BRANCH  15  16
ATOM     16  C   UNL     1      -2.621  -4.036   0.005  0.00  0.00    +0.121 A 
ATOM     17  C   UNL     1      -1.510  -4.867  -0.015  0.00  0.00    +0.047 A 
ATOM     18  C   UNL     1      -1.675  -6.239  -0.017  0.00  0.00    +0.023 A 
ATOM     19  C   UNL     1      -2.946  -6.784  -0.007  0.00  0.00    +0.041 A 
ATOM     20  C   UNL     1      -4.056  -5.957   0.008  0.00  0.00    +0.023 A 
ATOM     21  C   UNL     1      -3.895  -4.585   0.015  0.00  0.00    +0.047 A 
ATOM     22 CL   UNL     1      -3.151  -8.508  -0.015  0.00  0.00    -0.084 Cl
ENDBRANCH  15  16
ENDBRANCH  14  15
ENDBRANCH  12  14
ENDBRANCH  11  12
BRANCH   1  23
ATOM     23  C   UNL     1       2.411   1.586  -0.063  0.00  0.00    +0.142 C 
BRANCH  23  28
ATOM     24  C   UNL     1       4.004   1.046  -5.591  0.00  0.00    +0.044 C 
ATOM     25  C   UNL     1       3.589   1.187  -4.149  0.00  0.00    -0.050 A 
ATOM     26  C   UNL     1       3.858   2.356  -3.464  0.00  0.00    +0.003 A 
ATOM     27  C   UNL     1       3.477   2.485  -2.141  0.00  0.00    +0.005 A 
ATOM     28  C   UNL     1       2.826   1.445  -1.504  0.00  0.00    -0.030 A 
ATOM     29  C   UNL     1       2.561   0.274  -2.189  0.00  0.00    +0.005 A 
ATOM     30  C   UNL     1       2.938   0.146  -3.513  0.00  0.00    +0.003 A 
ENDBRANCH  23  28
ENDBRANCH   1  23
TORSDOF 6
