REMARK  Name = ZINC02112683
REMARK  11 active torsions:
REMARK  status: ('A' for Active; 'I' for Inactive)
REMARK    1  A    between atoms: C_1  and  C_2
REMARK    2  A    between atoms: C_12  and  C_13
REMARK    3  A    between atoms: C_13  and  C_14
REMARK    4  A    between atoms: C_23  and  C_24
REMARK    5  A    between atoms: C_23  and  N_65
REMARK    6  A    between atoms: C_26  and  O_34
REMARK    7  A    between atoms: C_27  and  O_32
REMARK    8  A    between atoms: C_28  and  O_30
REMARK    9  A    between atoms: O_30  and  C_31
REMARK   10  A    between atoms: O_32  and  C_33
REMARK   11  A    between atoms: O_34  and  C_35
REMARK                            x       y       z     vdW  Elec       q    Type
REMARK                         _______ _______ _______ _____ _____    ______ ____
ROOT
ATOM      1  C   UNL     1       6.615   9.109   4.584  0.00  0.00    +0.045 C 
ATOM      2  C   UNL     1       5.184   8.938   4.144  0.00  0.00    -0.030 A 
ATOM      3  C   UNL     1       4.833   8.052   3.032  0.00  0.00    +0.021 A 
ATOM      4  C   UNL     1       5.821   7.338   2.345  0.00  0.00    +0.015 A 
ATOM      5  C   UNL     1       5.470   6.519   1.313  0.00  0.00    +0.046 A 
ATOM      6  C   UNL     1       4.133   6.387   0.935  0.00  0.00    +0.123 A 
ATOM      7  C   UNL     1       3.144   7.085   1.605  0.00  0.00    +0.021 A 
ATOM      8  C   UNL     1       3.483   7.926   2.659  0.00  0.00    +0.144 A 
ATOM      9  O   UNL     1       2.524   8.611   3.313  0.00  0.00    -0.422 OA
ATOM     10  C   UNL     1       2.847   9.419   4.328  0.00  0.00    +0.341 A 
ATOM     11  O   UNL     1       1.957  10.024   4.898  0.00  0.00    -0.245 OA
ATOM     12  C   UNL     1       4.173   9.602   4.766  0.00  0.00    +0.045 A 
ATOM     13  C   UNL     1       1.696   6.944   1.212  0.00  0.00    -0.030 C 
ATOM     14  C   UNL     1       2.454   5.164  -0.227  0.00  0.00    +0.158 C 
ATOM     15  O   UNL     1       3.821   5.563  -0.101  0.00  0.00    -0.509 OA
ATOM     16  N   UNL     1       1.617   6.377  -0.148  0.00  0.00    +0.408 N 
ATOM     17  H   UNL     1       1.965   7.070  -0.822  0.00  0.00    -0.076 HD
ENDROOT
BRANCH  12  18
ATOM     18  C   UNL     1       4.470  10.529   5.917  0.00  0.00    +0.077 C 
BRANCH  18  19
ATOM     19  C   UNL     1       4.720  11.919   5.391  0.00  0.00    -0.043 A 
ATOM     20  C   UNL     1       6.002  12.310   5.054  0.00  0.00    +0.004 A 
ATOM     21  C   UNL     1       6.230  13.584   4.567  0.00  0.00    +0.000 A 
ATOM     22  C   UNL     1       5.178  14.469   4.427  0.00  0.00    +0.000 A 
ATOM     23  C   UNL     1       3.897  14.079   4.769  0.00  0.00    +0.000 A 
ATOM     24  C   UNL     1       3.667  12.804   5.251  0.00  0.00    +0.004 A 
ENDBRANCH  18  19
ENDBRANCH  12  18
BRANCH  16  25
ATOM     25  C   UNL     1       0.211   6.048  -0.479  0.00  0.00    -0.037 C 
BRANCH  25  26
ATOM     26  C   UNL     1      -0.365   5.119   0.559  0.00  0.00    -0.057 A 
ATOM     27  C   UNL     1      -0.999   5.638   1.672  0.00  0.00    +0.051 A 
ATOM     28  C   UNL     1      -1.531   4.787   2.629  0.00  0.00    +0.165 A 
ATOM     29  C   UNL     1      -1.426   3.410   2.467  0.00  0.00    +0.204 A 
ATOM     30  C   UNL     1      -0.787   2.893   1.346  0.00  0.00    +0.165 A 
ATOM     31  C   UNL     1      -0.254   3.751   0.397  0.00  0.00    +0.051 A 
BRANCH  30  32
ATOM     32  O   UNL     1      -0.682   1.547   1.184  0.00  0.00    -0.491 OA
ATOM     33  C   UNL     1      -0.013   1.086   0.008  0.00  0.00    +0.277 C 
ENDBRANCH  30  32
BRANCH  29  34
ATOM     34  O   UNL     1      -1.947   2.571   3.404  0.00  0.00    -0.488 OA
ATOM     35  C   UNL     1      -1.087   2.182   4.476  0.00  0.00    +0.277 C 
ENDBRANCH  29  34
BRANCH  28  36
ATOM     36  O   UNL     1      -2.155   5.298   3.724  0.00  0.00    -0.491 OA
ATOM     37  C   UNL     1      -2.226   6.721   3.825  0.00  0.00    +0.277 C 
ENDBRANCH  28  36
ENDBRANCH  25  26
ENDBRANCH  16  25
TORSDOF 7
