REMARK  Name = ZINC16901484
REMARK  7 active torsions:
REMARK  status: ('A' for Active; 'I' for Inactive)
REMARK    1  A    between atoms: C_1  and  O_2
REMARK    2  A    between atoms: O_2  and  C_3
REMARK    3  A    between atoms: C_5  and  C_10
REMARK    4  A    between atoms: C_8  and  O_9
REMARK    5  A    between atoms: C_15  and  N_17
REMARK    6  A    between atoms: N_17  and  C_18
REMARK    7  A    between atoms: C_23  and  C_24
REMARK                            x       y       z     vdW  Elec       q    Type
REMARK                         _______ _______ _______ _____ _____    ______ ____
ROOT
ATOM      1  C   UNL     1       2.351   0.287   4.232  0.00  0.00    +0.028 C 
ATOM      2  C   UNL     1       2.917  -0.328   5.302  0.00  0.00    +0.079 C 
ATOM      3  C   UNL     1       3.547   0.256   6.509  0.00  0.00    +0.276 C 
ATOM      4  O   UNL     1       3.627   1.463   6.674  0.00  0.00    -0.267 OA
ATOM      5  N   UNL     1       4.016  -0.597   7.393  0.00  0.00    -0.152 NA
ATOM      6  C   UNL     1       3.936  -1.907   7.226  0.00  0.00    +0.175 C 
ATOM      7  S   UNL     1       3.104  -2.071   5.654  0.00  0.00    -0.050 S 
ENDROOT
BRANCH   1  10
ATOM      8  C   UNL     1       0.878  -0.640   0.911  0.00  0.00    +0.162 A 
ATOM      9  C   UNL     1       1.246   0.105   2.013  0.00  0.00    +0.057 A 
ATOM     10  C   UNL     1       1.957  -0.499   3.057  0.00  0.00    -0.020 A 
ATOM     11  C   UNL     1       2.292  -1.857   2.976  0.00  0.00    +0.012 A 
ATOM     12  C   UNL     1       1.921  -2.592   1.872  0.00  0.00    +0.050 A 
ATOM     13  C   UNL     1       1.210  -1.992   0.840  0.00  0.00    +0.158 A 
BRANCH   8  15
ATOM     14  C   UNL     1      -0.119   1.333   0.033  0.00  0.00    +0.277 C 
ATOM     15  O   UNL     1       0.188  -0.056  -0.105  0.00  0.00    -0.491 OA
ENDBRANCH   8  15
BRANCH  13  16
ATOM     16  O   UNL     1       0.842  -2.724  -0.243  0.00  0.00    -0.503 OA
ATOM     17  H   UNL     1       1.496  -2.729  -0.955  0.00  0.00    +0.292 HD
ENDBRANCH  13  16
ENDBRANCH   1  10
BRANCH   6  18
ATOM     18  N   UNL     1       4.381  -2.900   8.061  0.00  0.00    -0.191 NA
BRANCH  18  19
ATOM     19  C   UNL     1       4.857  -2.579   9.336  0.00  0.00    +0.067 A 
ATOM     20  C   UNL     1       4.440  -1.411   9.962  0.00  0.00    +0.026 A 
ATOM     21  C   UNL     1       4.912  -1.098  11.221  0.00  0.00    +0.002 A 
ATOM     22  C   UNL     1       5.798  -1.946  11.860  0.00  0.00    +0.001 A 
ATOM     23  C   UNL     1       6.215  -3.110  11.240  0.00  0.00    +0.014 A 
ATOM     24  C   UNL     1       5.742  -3.432   9.983  0.00  0.00    +0.078 A 
BRANCH  24  25
ATOM     25  C   UNL     1       6.192  -4.704   9.311  0.00  0.00    +0.419 C 
ATOM     26  F   UNL     1       7.075  -5.389  10.153  0.00  0.00    -0.166 F 
ATOM     27  F   UNL     1       5.079  -5.510   9.047  0.00  0.00    -0.166 F 
ATOM     28  F   UNL     1       6.838  -4.393   8.110  0.00  0.00    -0.166 F 
ENDBRANCH  24  25
ENDBRANCH  18  19
ENDBRANCH   6  18
TORSDOF 6
