REMARK  Name = ZINC39666508
REMARK  7 active torsions:
REMARK  status: ('A' for Active; 'I' for Inactive)
REMARK    1  A    between atoms: C_1  and  C_2
REMARK    2  A    between atoms: C_2  and  C_4
REMARK    3  A    between atoms: C_2  and  O_29
REMARK    4  A    between atoms: C_4  and  N_5
REMARK    5  A    between atoms: C_6  and  C_8
REMARK    6  A    between atoms: C_19  and  C_21
REMARK    7  A    between atoms: O_29  and  C_30
REMARK                            x       y       z     vdW  Elec       q    Type
REMARK                         _______ _______ _______ _____ _____    ______ ____
ROOT
ATOM      1  C   UNL     1      -2.386  -7.587   1.626  0.00  0.00    +0.100 C 
ATOM      2  C   UNL     1      -2.545  -6.894   2.998  0.00  0.00    +0.121 C 
ATOM      3  N   UNL     1      -3.608  -5.883   2.785  0.00  0.00    -0.296 N 
ATOM      4  C   UNL     1      -4.592  -6.561   1.907  0.00  0.00    +0.115 C 
ATOM      5  C   UNL     1      -3.732  -7.369   0.915  0.00  0.00    -0.004 C 
ATOM      6  C   UNL     1      -3.528  -6.576  -0.372  0.00  0.00    -0.010 C 
ATOM      7  C   UNL     1      -4.872  -6.421  -1.090  0.00  0.00    -0.082 C 
ATOM      8  N   UNL     1      -5.423  -7.748  -1.391  0.00  0.00    +0.379 N 
ATOM      9  C   UNL     1      -5.703  -8.470  -0.144  0.00  0.00    -0.082 C 
ATOM     10  C   UNL     1      -4.394  -8.710   0.614  0.00  0.00    -0.010 C 
ATOM     11  C   UNL     1      -3.667  -4.630   3.279  0.00  0.00    +0.249 C 
ATOM     12  O   UNL     1      -4.644  -3.938   3.066  0.00  0.00    -0.270 OA
ATOM     13  H   UNL     1      -6.278  -7.644  -1.917  0.00  0.00    -0.086 HD
ATOM     14  H   UNL     1      -4.756  -8.271  -1.939  0.00  0.00    -0.086 HD
ENDROOT
BRANCH  11  15
ATOM     15  C   UNL     1      -2.545  -4.098   4.078  0.00  0.00    +0.073 A 
ATOM     16  C   UNL     1      -1.348  -3.739   3.455  0.00  0.00    +0.016 A 
ATOM     17  C   UNL     1      -0.304  -3.242   4.206  0.00  0.00    +0.002 A 
ATOM     18  C   UNL     1      -0.439  -3.097   5.576  0.00  0.00    +0.023 A 
ATOM     19  C   UNL     1      -1.620  -3.449   6.203  0.00  0.00    +0.077 A 
ATOM     20  C   UNL     1      -2.679  -3.945   5.461  0.00  0.00    +0.154 A 
ATOM     21  F   UNL     1      -3.835  -4.284   6.072  0.00  0.00    -0.203 F 
ATOM     22 CL   UNL     1      -1.778  -3.264   7.922  0.00  0.00    -0.081 Cl
ENDBRANCH  11  15
BRANCH   1  24
ATOM     23  N   UNL     1      -0.652  -7.639  -0.138  0.00  0.00    -0.312 N 
ATOM     24  C   UNL     1      -1.269  -6.948   0.841  0.00  0.00    +0.218 C 
ATOM     25  O   UNL     1      -0.925  -5.812   1.091  0.00  0.00    -0.275 OA
ATOM     26  H   UNL     1      -0.877  -8.570  -0.289  0.00  0.00    +0.149 HD
BRANCH  23  27
ATOM     27  C   UNL     1       0.357  -6.983  -0.973  0.00  0.00    +0.148 C 
BRANCH  27  29
ATOM     28  C   UNL     1       1.761  -7.215  -3.026  0.00  0.00    +0.053 C 
ATOM     29  C   UNL     1       0.808  -7.943  -2.076  0.00  0.00    +0.187 C 
BRANCH  29  30
ATOM     30  O   UNL     1       1.480  -9.059  -1.490  0.00  0.00    -0.486 OA
BRANCH  30  31
ATOM     31  C   UNL     1       1.487 -10.218  -2.201  0.00  0.00    +0.139 A 
ATOM     32  C   UNL     1       0.960 -10.249  -3.483  0.00  0.00    +0.047 A 
ATOM     33  C   UNL     1       0.968 -11.428  -4.204  0.00  0.00    +0.004 A 
ATOM     34  C   UNL     1       1.501 -12.576  -3.648  0.00  0.00    +0.002 A 
ATOM     35  C   UNL     1       2.027 -12.549  -2.370  0.00  0.00    +0.023 A 
ATOM     36  C   UNL     1       2.027 -11.371  -1.647  0.00  0.00    +0.083 A 
ATOM     37 CL   UNL     1       2.693 -11.335  -0.044  0.00  0.00    -0.080 Cl
ENDBRANCH  30  31
ENDBRANCH  29  30
ENDBRANCH  27  29
ENDBRANCH  23  27
ENDBRANCH   1  24
TORSDOF 6
