REMARK  Name = ZINC37205634
REMARK  6 active torsions:
REMARK  status: ('A' for Active; 'I' for Inactive)
REMARK    1  A    between atoms: C_1  and  N_2
REMARK    2  A    between atoms: N_2  and  C_3
REMARK    3  A    between atoms: C_11  and  C_13
REMARK    4  A    between atoms: C_13  and  S_14
REMARK    5  A    between atoms: S_14  and  C_15
REMARK    6  A    between atoms: C_20  and  N_21
REMARK                            x       y       z     vdW  Elec       q    Type
REMARK                         _______ _______ _______ _____ _____    ______ ____
ROOT
ATOM      1  C   UNL     1      -0.023   0.089  -2.470  0.00  0.00    +0.170 C 
ENDROOT
BRANCH   1   4
ATOM      2  C   UNL     1      -0.018   1.461   0.010  0.00  0.00    +0.132 C 
ATOM      3  N   UNL     1       0.002  -0.004   0.002  0.00  0.00    -0.299 N 
ATOM      4  C   UNL     1       0.000  -0.672  -1.169  0.00  0.00    +0.226 C 
ATOM      5  O   UNL     1       0.017  -1.884  -1.175  0.00  0.00    -0.275 OA
BRANCH   3   6
ATOM      6  C   UNL     1       0.024  -0.743   1.267  0.00  0.00    +0.098 C 
ATOM      7  C   UNL     1      -1.209  -0.372   2.107  0.00  0.00    +0.046 C 
ATOM      8  C   UNL     1      -1.036  -0.889   3.555  0.00  0.00    +0.168 C 
ATOM      9  S   UNL     1       0.791  -0.893   3.767  0.00  0.00    -0.029 S 
ATOM     10  O   UNL     1       1.229  -2.228   3.981  0.00  0.00    -0.174 OA
ATOM     11  O   UNL     1       1.151   0.119   4.698  0.00  0.00    -0.174 OA
ATOM     12  C   UNL     1       1.295  -0.360   2.077  0.00  0.00    +0.188 C 
ENDBRANCH   3   6
ENDBRANCH   1   4
BRANCH   1  13
ATOM     13  S   UNL     1      -0.020  -1.082  -3.855  0.00  0.00    -0.114 S 
BRANCH  13  14
ATOM     14  C   UNL     1      -0.047  -0.052  -5.284  0.00  0.00    +0.029 A 
ATOM     15  C   UNL     1      -0.059   1.328  -5.147  0.00  0.00    +0.017 A 
ATOM     16  C   UNL     1      -0.081   2.134  -6.269  0.00  0.00    +0.016 A 
ATOM     17  C   UNL     1      -0.090   1.569  -7.532  0.00  0.00    +0.020 A 
ATOM     18  C   UNL     1      -0.078   0.193  -7.678  0.00  0.00    +0.039 A 
ATOM     19  C   UNL     1      -0.052  -0.623  -6.558  0.00  0.00    +0.039 A 
ATOM     20 BR   UNL     1      -0.120   2.680  -9.062  0.00  0.00    -0.050 Br
BRANCH  19  21
ATOM     21  N   UNL     1      -0.035  -2.015  -6.703  0.00  0.00    -0.357 N 
ATOM     22  H   UNL     1      -0.020  -2.585  -5.918  0.00  0.00    +0.142 HD
ATOM     23  H   UNL     1      -0.038  -2.410  -7.589  0.00  0.00    +0.142 HD
ENDBRANCH  19  21
ENDBRANCH  13  14
ENDBRANCH   1  13
TORSDOF 5
