REMARK  Name = ZINC12274980
REMARK  8 active torsions:
REMARK  status: ('A' for Active; 'I' for Inactive)
REMARK    1  A    between atoms: C_1  and  C_2
REMARK    2  A    between atoms: C_2  and  O_3
REMARK    3  A    between atoms: O_3  and  C_4
REMARK    4  A    between atoms: C_7  and  C_10
REMARK    5  A    between atoms: C_10  and  O_33
REMARK    6  A    between atoms: C_14  and  C_31
REMARK    7  A    between atoms: C_15  and  C_21
REMARK    8  A    between atoms: C_24  and  C_27
REMARK                            x       y       z     vdW  Elec       q    Type
REMARK                         _______ _______ _______ _____ _____    ______ ____
ROOT
ATOM      1  C   UNL     1      -4.256  -0.665   0.198  0.00  0.00    +0.175 C 
ATOM      2  C   UNL     1      -4.718  -1.126   1.591  0.00  0.00    +0.136 C 
ATOM      3  S   UNL     1      -3.122  -1.225   2.486  0.00  0.00    -0.104 S 
ATOM      4  C   UNL     1      -2.033  -0.721   1.185  0.00  0.00    +0.087 C 
ATOM      5  C   UNL     1      -0.693  -0.522   1.242  0.00  0.00    +0.065 C 
ATOM      6  C   UNL     1       0.002  -0.004   0.002  0.00  0.00    +0.070 C 
ATOM      7  C   UNL     1      -0.708  -0.513  -1.249  0.00  0.00    +0.110 C 
ATOM      8  C   UNL     1      -2.198  -0.324  -1.149  0.00  0.00    +0.224 C 
ATOM      9  O   UNL     1      -2.841   0.026  -2.116  0.00  0.00    -0.275 OA
ATOM     10  N   UNL     1      -2.815  -0.554   0.051  0.00  0.00    -0.231 N 
ENDROOT
BRANCH   1  14
ATOM     11  C   UNL     1      -5.705  -3.448  -2.703  0.00  0.00    +0.121 A 
ATOM     12  C   UNL     1      -6.513  -2.405  -2.277  0.00  0.00    +0.046 A 
ATOM     13  C   UNL     1      -6.042  -1.506  -1.340  0.00  0.00    +0.012 A 
ATOM     14  C   UNL     1      -4.767  -1.646  -0.826  0.00  0.00    +0.004 A 
ATOM     15  C   UNL     1      -3.957  -2.682  -1.253  0.00  0.00    +0.012 A 
ATOM     16  C   UNL     1      -4.425  -3.587  -2.186  0.00  0.00    +0.046 A 
BRANCH  11  17
ATOM     17  O   UNL     1      -6.165  -4.333  -3.626  0.00  0.00    -0.492 OA
BRANCH  17  19
ATOM     18  C   UNL     1      -5.966  -6.272  -5.056  0.00  0.00    +0.048 C 
ATOM     19  C   UNL     1      -5.278  -5.383  -4.018  0.00  0.00    +0.225 C 
ENDBRANCH  17  19
ENDBRANCH  11  17
ENDBRANCH   1  14
BRANCH   6  20
ATOM     20  C   UNL     1      -0.018   1.503   0.010  0.00  0.00    -0.039 A 
ATOM     21  C   UNL     1      -1.225   2.178   0.020  0.00  0.00    +0.005 A 
ATOM     22  C   UNL     1      -1.244   3.560   0.032  0.00  0.00    +0.012 A 
ATOM     23  C   UNL     1      -0.056   4.267   0.025  0.00  0.00    +0.055 A 
ATOM     24  C   UNL     1       1.151   3.592   0.010  0.00  0.00    +0.012 A 
ATOM     25  C   UNL     1       1.169   2.210   0.003  0.00  0.00    +0.005 A 
BRANCH  23  26
ATOM     26  C   UNL     1      -0.076   5.774   0.035  0.00  0.00    +0.417 C 
ATOM     27  F   UNL     1      -0.094   6.248  -1.282  0.00  0.00    -0.166 F 
ATOM     28  F   UNL     1      -1.219   6.221   0.707  0.00  0.00    -0.166 F 
ATOM     29  F   UNL     1       1.065   6.252   0.687  0.00  0.00    -0.166 F 
ENDBRANCH  23  26
ENDBRANCH   6  20
BRANCH   5  30
ATOM     30  C   UNL     1       0.043  -0.794   2.440  0.00  0.00    +0.098 C 
ATOM     31  N   UNL     1       0.627  -1.010   3.390  0.00  0.00    -0.191 NA
ENDBRANCH   5  30
BRANCH   1  32
ATOM     32  O   UNL     1      -4.839   0.611  -0.075  0.00  0.00    -0.366 OA
ATOM     33  H   UNL     1      -5.803   0.627   0.000  0.00  0.00    +0.212 HD
ENDBRANCH   1  32
TORSDOF 7
