REMARK  Name = ZINC28118940
REMARK  11 active torsions:
REMARK  status: ('A' for Active; 'I' for Inactive)
REMARK    1  A    between atoms: C_1  and  C_2
REMARK    2  A    between atoms: C_4  and  C_37
REMARK    3  A    between atoms: C_5  and  S_9
REMARK    4  A    between atoms: C_7  and  C_8
REMARK    5  A    between atoms: S_9  and  N_12
REMARK    6  A    between atoms: N_12  and  C_13
REMARK    7  A    between atoms: C_16  and  C_27
REMARK    8  A    between atoms: C_17  and  C_26
REMARK    9  A    between atoms: C_27  and  O_29
REMARK   10  A    between atoms: O_29  and  C_30
REMARK   11  A    between atoms: C_30  and  C_31
REMARK                            x       y       z     vdW  Elec       q    Type
REMARK                         _______ _______ _______ _____ _____    ______ ____
ROOT
ATOM      1  C   UNL     1       0.305   5.307   5.231  0.00  0.00    +0.057 A 
ATOM      2  C   UNL     1       0.061   4.218   4.448  0.00  0.00    +0.037 A 
ATOM      3  C   UNL     1      -0.992   3.342   4.750  0.00  0.00    +0.037 A 
ATOM      4  C   UNL     1      -1.504   2.109   4.118  0.00  0.00    +0.107 A 
ATOM      5  C   UNL     1      -2.561   1.716   4.882  0.00  0.00    +0.117 A 
ATOM      6  O   UNL     1      -2.726   2.571   5.895  0.00  0.00    -0.459 OA
ATOM      7  C   UNL     1      -1.811   3.562   5.854  0.00  0.00    +0.144 A 
ATOM      8  C   UNL     1      -1.571   4.684   6.676  0.00  0.00    +0.027 A 
ATOM      9  C   UNL     1      -0.506   5.562   6.361  0.00  0.00    +0.008 A 
ATOM     10  C   UNL     1      -0.271   6.678   7.179  0.00  0.00    +0.010 A 
ATOM     11  C   UNL     1      -1.067   6.901   8.262  0.00  0.00    +0.001 A 
ATOM     12  C   UNL     1      -2.115   6.038   8.571  0.00  0.00    +0.001 A 
ATOM     13  C   UNL     1      -2.372   4.945   7.799  0.00  0.00    +0.012 A 
ATOM     14  C   UNL     1      -3.413   0.499   4.625  0.00  0.00    +0.087 C 
ENDROOT
BRANCH   1  15
ATOM     15  N   UNL     1       1.357   6.171   4.917  0.00  0.00    -0.216 N 
ATOM     16  H   UNL     1       1.936   6.646   5.722  0.00  0.00    +0.174 HD
BRANCH  15  17
ATOM     17  S   UNL     1       1.730   6.479   3.333  0.00  0.00    +0.073 S 
ATOM     18  O   UNL     1       2.732   7.487   3.341  0.00  0.00    -0.150 OA
ATOM     19  O   UNL     1       1.924   5.217   2.709  0.00  0.00    -0.150 OA
BRANCH  17  24
ATOM     20  C   UNL     1      -3.161   8.930   0.789  0.00  0.00    +0.044 C 
ATOM     21  C   UNL     1      -1.939   8.318   1.425  0.00  0.00    -0.047 A 
ATOM     22  C   UNL     1      -1.275   8.989   2.435  0.00  0.00    +0.009 A 
ATOM     23  C   UNL     1      -0.154   8.428   3.017  0.00  0.00    -0.024 A 
ATOM     24  C   UNL     1       0.302   7.195   2.591  0.00  0.00    +0.112 A 
ATOM     25  C   UNL     1      -0.359   6.526   1.578  0.00  0.00    +0.032 A 
ATOM     26  C   UNL     1      -1.482   7.085   0.998  0.00  0.00    -0.046 A 
ATOM     27  C   UNL     1      -2.206   6.353  -0.102  0.00  0.00    +0.044 C 
ATOM     28  C   UNL     1       0.570   9.160   4.118  0.00  0.00    +0.046 C 
ENDBRANCH  17  24
ENDBRANCH  15  17
ENDBRANCH   1  15
BRANCH   4  29
ATOM     29  C   UNL     1      -0.984   1.448   2.913  0.00  0.00    +0.343 C 
ATOM     30  O   UNL     1      -0.119   0.599   3.010  0.00  0.00    -0.245 OA
BRANCH  29  31
ATOM     31  O   UNL     1      -1.467   1.782   1.700  0.00  0.00    -0.456 OA
BRANCH  31  32
ATOM     32  C   UNL     1      -0.908   1.088   0.553  0.00  0.00    +0.268 C 
BRANCH  32  33
ATOM     33  C   UNL     1      -1.564   1.589  -0.707  0.00  0.00    -0.010 A 
ATOM     34  C   UNL     1      -2.703   0.970  -1.187  0.00  0.00    +0.007 A 
ATOM     35  C   UNL     1      -3.308   1.433  -2.340  0.00  0.00    +0.000 A 
ATOM     36  C   UNL     1      -2.768   2.509  -3.020  0.00  0.00    +0.000 A 
ATOM     37  C   UNL     1      -1.626   3.125  -2.543  0.00  0.00    +0.000 A 
ATOM     38  C   UNL     1      -1.024   2.665  -1.387  0.00  0.00    +0.007 A 
ENDBRANCH  32  33
ENDBRANCH  31  32
ENDBRANCH  29  31
ENDBRANCH   4  29
TORSDOF 7
