REMARK  Name = ZINC39685856
REMARK  16 active torsions:
REMARK  status: ('A' for Active; 'I' for Inactive)
REMARK    1  A    between atoms: C_1  and  C_2
REMARK    2  A    between atoms: C_2  and  C_3
REMARK    3  A    between atoms: C_3  and  C_4
REMARK    4  A    between atoms: C_4  and  C_5
REMARK    5  A    between atoms: C_5  and  C_7
REMARK    6  A    between atoms: C_5  and  C_8
REMARK    7  A    between atoms: C_12  and  C_21
REMARK    8  A    between atoms: N_23  and  C_24
REMARK    9  A    between atoms: C_24  and  C_26
REMARK   10  A    between atoms: C_24  and  C_29
REMARK   11  A    between atoms: C_26  and  C_27
REMARK   12  A    between atoms: C_26  and  C_28
REMARK   13  A    between atoms: N_31  and  C_32
REMARK   14  A    between atoms: C_32  and  C_33
REMARK   15  A    between atoms: C_32  and  C_34
REMARK   16  A    between atoms: C_32  and  C_35
REMARK                            x       y       z     vdW  Elec       q    Type
REMARK                         _______ _______ _______ _____ _____    ______ ____
ROOT
ATOM      1  C   UNL     1       1.271  -3.973  -2.512  0.00  0.00    +0.218 C 
ATOM      2  O   UNL     1       0.553  -4.832  -2.045  0.00  0.00    -0.275 OA
ATOM      3  N   UNL     1       1.950  -4.209  -3.653  0.00  0.00    -0.300 N 
ATOM      4  C   UNL     1       2.945  -3.333  -4.315  0.00  0.00    +0.121 C 
ATOM      5  C   UNL     1       4.035  -4.299  -4.829  0.00  0.00    +0.100 C 
ATOM      6  C   UNL     1       3.324  -5.655  -4.968  0.00  0.00    -0.004 C 
ATOM      7  C   UNL     1       1.875  -5.407  -4.524  0.00  0.00    +0.115 C 
ATOM      8  C   UNL     1       3.360  -6.125  -6.419  0.00  0.00    -0.010 C 
ATOM      9  C   UNL     1       2.698  -7.502  -6.521  0.00  0.00    -0.082 C 
ATOM     10  N   UNL     1       3.410  -8.454  -5.660  0.00  0.00    +0.379 N 
ATOM     11  C   UNL     1       3.292  -8.045  -4.256  0.00  0.00    -0.082 C 
ATOM     12  C   UNL     1       3.979  -6.691  -4.058  0.00  0.00    -0.010 C 
ATOM     13  H   UNL     1       3.010  -9.374  -5.776  0.00  0.00    -0.086 HD
ATOM     14  H   UNL     1       4.384  -8.479  -5.922  0.00  0.00    -0.086 HD
ENDROOT
BRANCH   5  15
ATOM     15  C   UNL     1       5.163  -4.394  -3.833  0.00  0.00    +0.219 C 
ATOM     16  O   UNL     1       4.956  -4.171  -2.659  0.00  0.00    -0.275 OA
ATOM     17  N   UNL     1       6.401  -4.728  -4.248  0.00  0.00    -0.303 N 
ATOM     18  H   UNL     1       6.569  -4.896  -5.188  0.00  0.00    +0.149 HD
BRANCH  17  19
ATOM     19  C   UNL     1       7.494  -4.836  -3.278  0.00  0.00    +0.161 C 
BRANCH  19  20
ATOM     20  C   UNL     1       8.786  -4.410  -3.927  0.00  0.00    +0.234 C 
ATOM     21  O   UNL     1       8.881  -4.396  -5.136  0.00  0.00    -0.274 OA
ATOM     22  N   UNL     1       9.835  -4.044  -3.164  0.00  0.00    -0.309 N 
ATOM     23  H   UNL     1       9.779  -4.114  -2.198  0.00  0.00    +0.149 HD
BRANCH  22  24
ATOM     24  C   UNL     1      11.058  -3.541  -3.793  0.00  0.00    +0.026 C 
ATOM     25  C   UNL     1      10.735  -2.284  -4.603  0.00  0.00    +0.031 C 
ATOM     26  C   UNL     1      12.085  -3.200  -2.711  0.00  0.00    +0.031 C 
ATOM     27  C   UNL     1      11.632  -4.613  -4.721  0.00  0.00    +0.031 C 
ENDBRANCH  22  24
ENDBRANCH  19  20
BRANCH  19  28
ATOM     28  C   UNL     1       7.615  -6.286  -2.806  0.00  0.00    +0.012 C 
ATOM     29  C   UNL     1       6.374  -6.663  -1.994  0.00  0.00    +0.009 C 
ATOM     30  C   UNL     1       7.730  -7.210  -4.020  0.00  0.00    +0.009 C 
ENDBRANCH  19  28
ENDBRANCH  17  19
ENDBRANCH   5  15
BRANCH   1  31
ATOM     31  C   UNL     1       1.404  -2.643  -1.818  0.00  0.00    +0.072 C 
ATOM     32  C   UNL     1       1.289  -2.843  -0.305  0.00  0.00    +0.017 C 
BRANCH  31  33
ATOM     33  C   UNL     1       0.292  -1.705  -2.294  0.00  0.00    +0.012 C 
BRANCH  33  34
ATOM     34  C   UNL     1       0.500  -0.317  -1.685  0.00  0.00    +0.000 C 
BRANCH  34  36
ATOM     35  C   UNL     1      -0.405   2.008  -1.552  0.00  0.00    +0.004 C 
ATOM     36  C   UNL     1      -0.612   0.620  -2.161  0.00  0.00    -0.003 C 
ENDBRANCH  34  36
ENDBRANCH  33  34
ENDBRANCH  31  33
ENDBRANCH   1  31
TORSDOF 9
