REMARK  Name = ZINC32770356
REMARK  4 active torsions:
REMARK  status: ('A' for Active; 'I' for Inactive)
REMARK    1  A    between atoms: C_1  and  C_2
REMARK    2  A    between atoms: C_4  and  O_5
REMARK    3  A    between atoms: N_13  and  C_14
REMARK    4  A    between atoms: C_14  and  C_15
REMARK                            x       y       z     vdW  Elec       q    Type
REMARK                         _______ _______ _______ _____ _____    ______ ____
ROOT
ATOM      1  C   UNL     1       4.514   5.096  -2.602  0.00  0.00    +0.045 C 
ATOM      2  C   UNL     1       4.534   3.618  -2.308  0.00  0.00    -0.033 A 
ATOM      3  C   UNL     1       5.675   2.893  -2.447  0.00  0.00    +0.091 A 
ATOM      4  C   UNL     1       5.667   1.512  -2.166  0.00  0.00    +0.285 A 
ATOM      5  O   UNL     1       4.554   0.881  -1.760  0.00  0.00    -0.425 OA
ATOM      6  C   UNL     1       3.387   1.542  -1.601  0.00  0.00    +0.141 A 
ATOM      7  C   UNL     1       3.323   2.924  -1.864  0.00  0.00    +0.021 A 
ATOM      8  C   UNL     1       2.116   3.614  -1.700  0.00  0.00    +0.014 A 
ATOM      9  C   UNL     1       1.002   2.943  -1.291  0.00  0.00    +0.026 A 
ATOM     10  C   UNL     1       1.059   1.575  -1.023  0.00  0.00    +0.039 A 
ATOM     11  C   UNL     1       2.248   0.876  -1.180  0.00  0.00    +0.072 A 
ATOM     12  N   UNL     1      -0.085   0.905  -0.601  0.00  0.00    -0.376 N 
ATOM     13  H   UNL     1      -0.044  -0.174  -0.389  0.00  0.00    +0.160 HD
ENDROOT
BRANCH   4  14
ATOM     14  O   UNL     1       6.697   0.875  -2.296  0.00  0.00    -0.480 OA
ATOM     15  H   UNL     1       6.707  -0.204  -2.080  0.00  0.00    +0.295 HD
ENDBRANCH   4  14
BRANCH  12  16
ATOM     16  C   UNL     1      -1.344   1.636  -0.439  0.00  0.00    +0.209 C 
BRANCH  16  17
ATOM     17  C   UNL     1      -2.422   0.686   0.017  0.00  0.00    +0.239 C 
ATOM     18  O   UNL     1      -2.143  -0.463   0.285  0.00  0.00    -0.273 OA
ATOM     19  N   UNL     1      -3.695   1.114   0.127  0.00  0.00    -0.267 N 
ATOM     20  C   UNL     1      -4.001   2.551   0.144  0.00  0.00    +0.114 C 
ATOM     21  C   UNL     1      -5.020   2.804   1.258  0.00  0.00    +0.024 C 
ATOM     22  C   UNL     1      -6.309   2.051   0.933  0.00  0.00    +0.038 C 
ATOM     23  C   UNL     1      -6.014   0.608   0.623  0.00  0.00    -0.023 A 
ATOM     24  C   UNL     1      -4.750   0.195   0.234  0.00  0.00    +0.075 A 
ATOM     25  C   UNL     1      -4.513  -1.145  -0.057  0.00  0.00    +0.145 A 
ATOM     26  C   UNL     1      -5.539  -2.066   0.046  0.00  0.00    +0.040 A 
ATOM     27  C   UNL     1      -6.799  -1.653   0.438  0.00  0.00    +0.003 A 
ATOM     28  C   UNL     1      -7.035  -0.322   0.724  0.00  0.00    +0.005 A 
ATOM     29  F   UNL     1      -3.281  -1.546  -0.439  0.00  0.00    -0.204 F 
ENDBRANCH  16  17
ENDBRANCH  12  16
TORSDOF 3
