REMARK  Name = ZINC04729928
REMARK  9 active torsions:
REMARK  status: ('A' for Active; 'I' for Inactive)
REMARK    1  A    between atoms: C_1  and  C_2
REMARK    2  A    between atoms: C_2  and  O_3
REMARK    3  A    between atoms: O_3  and  C_4
REMARK    4  A    between atoms: C_8  and  C_11
REMARK    5  A    between atoms: C_9  and  O_10
REMARK    6  A    between atoms: C_14  and  C_25
REMARK    7  A    between atoms: C_16  and  C_18
REMARK    8  A    between atoms: C_28  and  O_31
REMARK    9  A    between atoms: O_31  and  C_32
REMARK                            x       y       z     vdW  Elec       q    Type
REMARK                         _______ _______ _______ _____ _____    ______ ____
ROOT
ATOM      1  C   UNL     1      -4.944   0.852  -0.361  0.00  0.00    -0.028 C 
ATOM      2  C   UNL     1      -3.790   1.780   0.030  0.00  0.00    +0.044 C 
ATOM      3  C   UNL     1      -2.500   1.008   0.019  0.00  0.00    +0.040 C 
ATOM      4  N   UNL     1      -2.451  -0.272   0.007  0.00  0.00    -0.299 NA
ATOM      5  C   UNL     1      -3.626  -1.135   0.002  0.00  0.00    +0.081 C 
ATOM      6  N   UNL     1      -4.823  -0.392   0.424  0.00  0.00    +0.401 N 
ATOM      7  H   UNL     1      -5.656  -0.974   0.272  0.00  0.00    -0.081 HD
ATOM      8  H   UNL     1      -4.746  -0.160   1.421  0.00  0.00    -0.081 HD
ENDROOT
BRANCH   5   9
ATOM      9  C   UNL     1      -3.403  -2.288   0.947  0.00  0.00    -0.038 A 
ATOM     10  C   UNL     1      -4.480  -2.882   1.577  0.00  0.00    +0.004 A 
ATOM     11  C   UNL     1      -4.278  -3.943   2.441  0.00  0.00    +0.003 A 
ATOM     12  C   UNL     1      -2.997  -4.403   2.682  0.00  0.00    +0.038 A 
ATOM     13  C   UNL     1      -1.917  -3.805   2.055  0.00  0.00    +0.124 A 
ATOM     14  C   UNL     1      -2.122  -2.746   1.187  0.00  0.00    +0.042 A 
ATOM     15  F   UNL     1      -0.665  -4.254   2.291  0.00  0.00    -0.205 F 
ENDBRANCH   5   9
BRANCH   1  20
ATOM     16  C   UNL     1      -8.044   3.002  -0.679  0.00  0.00    +0.162 A 
ATOM     17  C   UNL     1      -8.680   2.740   0.524  0.00  0.00    +0.049 A 
ATOM     18  C   UNL     1      -8.107   1.871   1.434  0.00  0.00    +0.004 A 
ATOM     19  C   UNL     1      -6.902   1.258   1.145  0.00  0.00    +0.006 A 
ATOM     20  C   UNL     1      -6.260   1.518  -0.051  0.00  0.00    -0.016 A 
ATOM     21  C   UNL     1      -6.829   2.388  -0.968  0.00  0.00    +0.160 A 
BRANCH  21  22
ATOM     22  O   UNL     1      -6.200   2.642  -2.147  0.00  0.00    -0.503 OA
ATOM     23  H   UNL     1      -6.448   2.040  -2.862  0.00  0.00    +0.292 HD
ENDBRANCH  21  22
BRANCH  16  24
ATOM     24  O   UNL     1      -8.606   3.856  -1.576  0.00  0.00    -0.489 OA
BRANCH  24  26
ATOM     25  C   UNL     1     -10.327   5.372  -2.337  0.00  0.00    +0.048 C 
ATOM     26  C   UNL     1      -9.854   4.449  -1.212  0.00  0.00    +0.226 C 
ENDBRANCH  24  26
ENDBRANCH  16  24
ENDBRANCH   1  20
BRANCH   3  27
ATOM     27  C   UNL     1      -1.232   1.759   0.017  0.00  0.00    -0.004 A 
ATOM     28  C   UNL     1      -0.013   1.076   0.008  0.00  0.00    +0.013 A 
ATOM     29  C   UNL     1       1.170   1.782   0.001  0.00  0.00    +0.046 A 
ATOM     30  C   UNL     1       1.152   3.171   0.008  0.00  0.00    +0.120 A 
ATOM     31  C   UNL     1      -0.058   3.854   0.023  0.00  0.00    +0.046 A 
ATOM     32  C   UNL     1      -1.245   3.156   0.030  0.00  0.00    +0.013 A 
BRANCH  30  33
ATOM     33  O   UNL     1       2.321   3.863   0.001  0.00  0.00    -0.495 OA
ATOM     34  C   UNL     1       2.230   5.289   0.009  0.00  0.00    +0.277 C 
ENDBRANCH  30  33
ENDBRANCH   3  27
TORSDOF 7
