REMARK  Name = ZINC05851463
REMARK  5 active torsions:
REMARK  status: ('A' for Active; 'I' for Inactive)
REMARK    1  A    between atoms: C_4  and  C_7
REMARK    2  A    between atoms: N_17  and  N_18
REMARK    3  A    between atoms: C_19  and  C_32
REMARK    4  A    between atoms: C_22  and  C_23
REMARK    5  A    between atoms: C_26  and  O_29
REMARK                            x       y       z     vdW  Elec       q    Type
REMARK                         _______ _______ _______ _____ _____    ______ ____
ROOT
ATOM      1  N   UNL     1       4.186   4.095   0.054  0.00  0.00    -0.148 N 
ATOM      2  C   UNL     1       4.445   2.746  -0.010  0.00  0.00    +0.155 C 
ATOM      3  N   UNL     1       5.724   2.508   0.113  0.00  0.00    -0.225 NA
ATOM      4  C   UNL     1       6.388   3.688   0.271  0.00  0.00    +0.130 C 
ATOM      5  C   UNL     1       7.747   3.860   0.433  0.00  0.00    +0.041 C 
ATOM      6  C   UNL     1       5.359   4.742   0.235  0.00  0.00    +0.289 C 
ATOM      7  O   UNL     1       5.529   5.943   0.341  0.00  0.00    -0.266 OA
ENDROOT
BRANCH   1  18
ATOM      8  C   UNL     1       2.113   4.762   1.052  0.00  0.00    +0.162 A 
ATOM      9  N   UNL     1       0.924   5.307   1.029  0.00  0.00    -0.227 NA
ATOM     10  C   UNL     1       0.413   5.845  -0.096  0.00  0.00    +0.079 A 
ATOM     11  C   UNL     1      -0.858   6.426  -0.117  0.00  0.00    +0.028 A 
ATOM     12  C   UNL     1      -1.341   6.961  -1.277  0.00  0.00    +0.002 A 
ATOM     13  C   UNL     1      -0.588   6.938  -2.443  0.00  0.00    +0.001 A 
ATOM     14  C   UNL     1       0.669   6.372  -2.455  0.00  0.00    +0.015 A 
ATOM     15  C   UNL     1       1.182   5.821  -1.282  0.00  0.00    +0.066 A 
ATOM     16  C   UNL     1       2.518   5.208  -1.232  0.00  0.00    +0.280 A 
ATOM     17  O   UNL     1       3.228   5.161  -2.219  0.00  0.00    -0.265 OA
ATOM     18  N   UNL     1       2.924   4.694  -0.048  0.00  0.00    -0.196 N 
BRANCH   8  22
ATOM     19  C   UNL     1       3.521   3.127   4.710  0.00  0.00    +0.000 A 
ATOM     20  C   UNL     1       4.350   3.935   3.953  0.00  0.00    +0.001 A 
ATOM     21  C   UNL     1       3.899   4.469   2.763  0.00  0.00    +0.011 A 
ATOM     22  C   UNL     1       2.603   4.192   2.325  0.00  0.00    +0.019 A 
ATOM     23  C   UNL     1       1.770   3.381   3.096  0.00  0.00    +0.011 A 
ATOM     24  C   UNL     1       2.235   2.849   4.281  0.00  0.00    +0.001 A 
ENDBRANCH   8  22
ENDBRANCH   1  18
BRANCH   5  25
ATOM     25  C   UNL     1       8.616   2.695   0.615  0.00  0.00    -0.023 A 
ATOM     26  C   UNL     1      10.010   2.847   0.596  0.00  0.00    +0.011 A 
ATOM     27  C   UNL     1      10.818   1.754   0.773  0.00  0.00    +0.046 A 
ATOM     28  C   UNL     1      10.258   0.494   0.959  0.00  0.00    +0.117 A 
ATOM     29  C   UNL     1       8.876   0.336   0.972  0.00  0.00    +0.046 A 
ATOM     30  C   UNL     1       8.058   1.422   0.802  0.00  0.00    +0.011 A 
BRANCH  28  31
ATOM     31  O   UNL     1      11.064  -0.585   1.128  0.00  0.00    -0.507 OA
ATOM     32  H   UNL     1      11.304  -1.030   0.303  0.00  0.00    +0.292 HD
ENDBRANCH  28  31
ENDBRANCH   5  25
BRANCH   2  33
ATOM     33  C   UNL     1       3.415   1.704  -0.200  0.00  0.00    +0.017 A 
ATOM     34  C   UNL     1       2.071   2.061  -0.320  0.00  0.00    +0.011 A 
ATOM     35  C   UNL     1       1.114   1.083  -0.496  0.00  0.00    +0.001 A 
ATOM     36  C   UNL     1       1.484  -0.249  -0.553  0.00  0.00    +0.000 A 
ATOM     37  C   UNL     1       2.814  -0.610  -0.434  0.00  0.00    +0.001 A 
ATOM     38  C   UNL     1       3.781   0.357  -0.257  0.00  0.00    +0.011 A 
ENDBRANCH   2  33
TORSDOF 5
