REMARK  Name = ZINC17794193
REMARK  12 active torsions:
REMARK  status: ('A' for Active; 'I' for Inactive)
REMARK    1  A    between atoms: C_1  and  N_65
REMARK    2  A    between atoms: C_2  and  N_65
REMARK    3  A    between atoms: C_3  and  C_5
REMARK    4  A    between atoms: C_3  and  C_12
REMARK    5  A    between atoms: C_3  and  N_65
REMARK    6  A    between atoms: C_5  and  C_6
REMARK    7  A    between atoms: C_12  and  N_13
REMARK    8  A    between atoms: C_14  and  C_16
REMARK    9  A    between atoms: C_16  and  C_17
REMARK   10  A    between atoms: N_19  and  C_31
REMARK   11  A    between atoms: C_21  and  C_22
REMARK   12  A    between atoms: C_25  and  N_28
REMARK                            x       y       z     vdW  Elec       q    Type
REMARK                         _______ _______ _______ _____ _____    ______ ____
ROOT
ATOM      1  C   UNL     1       2.350   3.598   0.081  0.00  0.00    +0.007 A 
ATOM      2  C   UNL     1       1.789   4.779  -0.255  0.00  0.00    +0.119 A 
ATOM      3  N   UNL     1       0.501   4.767   0.178  0.00  0.00    -0.239 N 
ATOM      4  N   UNL     1       0.264   3.532   0.796  0.00  0.00    -0.166 NA
ATOM      5  C   UNL     1       1.375   2.828   0.745  0.00  0.00    +0.097 A 
ENDROOT
BRANCH   5   6
ATOM      6  C   UNL     1       1.564   1.459   1.285  0.00  0.00    +0.003 A 
ATOM      7  C   UNL     1       2.384   0.551   0.618  0.00  0.00    +0.012 A 
ATOM      8  C   UNL     1       2.562  -0.719   1.129  0.00  0.00    +0.033 A 
ATOM      9  C   UNL     1       1.919  -1.095   2.294  0.00  0.00    +0.126 A 
ATOM     10  C   UNL     1       1.099  -0.200   2.957  0.00  0.00    +0.033 A 
ATOM     11  C   UNL     1       0.919   1.075   2.459  0.00  0.00    +0.012 A 
BRANCH   9  12
ATOM     12  N   UNL     1       2.108  -2.460   2.833  0.00  0.00    +0.056 N 
ATOM     13  O   UNL     1       1.542  -2.794   3.859  0.00  0.00    -0.126 OA
ATOM     14  O   UNL     1       2.830  -3.250   2.252  0.00  0.00    -0.126 OA
ENDBRANCH   9  12
ENDBRANCH   5   6
BRANCH   3  15
ATOM     15  C   UNL     1      -0.429   5.804   0.028  0.00  0.00    +0.065 A 
ATOM     16  C   UNL     1      -0.060   6.982  -0.609  0.00  0.00    +0.028 A 
ATOM     17  C   UNL     1      -0.980   8.000  -0.761  0.00  0.00    +0.002 A 
ATOM     18  C   UNL     1      -2.264   7.853  -0.270  0.00  0.00    +0.000 A 
ATOM     19  C   UNL     1      -2.633   6.684   0.370  0.00  0.00    +0.002 A 
ATOM     20  C   UNL     1      -1.719   5.659   0.520  0.00  0.00    +0.028 A 
ENDBRANCH   3  15
BRANCH   1  21
ATOM     21  C   UNL     1       3.769   3.177  -0.205  0.00  0.00    +0.134 C 
BRANCH  21  23
ATOM     22  N   UNL     1       4.981   1.898  -1.940  0.00  0.00    -0.317 N 
ATOM     23  C   UNL     1       3.809   2.381  -1.484  0.00  0.00    +0.217 C 
ATOM     24  O   UNL     1       2.786   2.176  -2.103  0.00  0.00    -0.275 OA
ATOM     25  H   UNL     1       5.799   2.062  -1.445  0.00  0.00    +0.149 HD
BRANCH  22  26
ATOM     26  C   UNL     1       5.020   1.124  -3.184  0.00  0.00    +0.089 C 
BRANCH  26  27
ATOM     27  C   UNL     1       6.424   0.549  -3.383  0.00  0.00    -0.048 C 
BRANCH  27  30
ATOM     28  C   UNL     1       6.904   0.175  -1.039  0.00  0.00    -0.096 C 
ATOM     29  C   UNL     1       5.608  -1.448  -2.283  0.00  0.00    -0.096 C 
ATOM     30  N   UNL     1       6.716  -0.472  -2.355  0.00  0.00    +0.379 N 
ATOM     31  H   UNL     1       7.579  -0.966  -2.610  0.00  0.00    -0.082 HD
ENDBRANCH  27  30
BRANCH  27  32
ATOM     32  C   UNL     1       6.517  -0.102  -4.764  0.00  0.00    +0.021 C 
BRANCH  32  33
ATOM     33  C   UNL     1       7.891  -0.694  -4.949  0.00  0.00    -0.049 A 
ATOM     34  C   UNL     1       8.932   0.101  -5.391  0.00  0.00    +0.003 A 
ATOM     35  C   UNL     1      10.193  -0.440  -5.556  0.00  0.00    +0.000 A 
ATOM     36  C   UNL     1      10.411  -1.779  -5.289  0.00  0.00    +0.000 A 
ATOM     37  C   UNL     1       9.369  -2.575  -4.852  0.00  0.00    +0.000 A 
ATOM     38  C   UNL     1       8.109  -2.033  -4.682  0.00  0.00    +0.003 A 
ENDBRANCH  32  33
ENDBRANCH  27  32
ENDBRANCH  26  27
ENDBRANCH  22  26
ENDBRANCH  21  23
ENDBRANCH   1  21
TORSDOF 10
