REMARK  Name = ZINC63392733
REMARK  8 active torsions:
REMARK  status: ('A' for Active; 'I' for Inactive)
REMARK    1  A    between atoms: C_1  and  C_2
REMARK    2  A    between atoms: C_2  and  O_3
REMARK    3  A    between atoms: O_3  and  C_4
REMARK    4  A    between atoms: C_10  and  C_21
REMARK    5  A    between atoms: C_12  and  C_15
REMARK    6  A    between atoms: N_23  and  C_24
REMARK    7  A    between atoms: C_24  and  C_25
REMARK    8  A    between atoms: C_25  and  C_26
REMARK                            x       y       z     vdW  Elec       q    Type
REMARK                         _______ _______ _______ _____ _____    ______ ____
ROOT
ATOM      1  C   UNL     1      -1.498  -1.849   0.006  0.00  0.00    +0.121 A 
ATOM      2  C   UNL     1      -0.390  -2.682  -0.003  0.00  0.00    +0.049 A 
ATOM      3  C   UNL     1      -0.549  -4.052  -0.004  0.00  0.00    +0.049 A 
ATOM      4  C   UNL     1      -1.824  -4.612   0.004  0.00  0.00    +0.126 A 
ATOM      5  C   UNL     1      -2.928  -3.769   0.005  0.00  0.00    +0.013 A 
ATOM      6  C   UNL     1      -2.772  -2.401   0.016  0.00  0.00    +0.053 A 
ATOM      7  C   UNL     1      -4.161  -4.652  -0.011  0.00  0.00    +0.153 C 
ATOM      8  C   UNL     1      -3.569  -6.022  -0.419  0.00  0.00    +0.220 C 
ATOM      9  O   UNL     1      -2.203  -5.920   0.017  0.00  0.00    -0.483 OA
ENDROOT
BRANCH   8  10
ATOM     10  C   UNL     1      -3.644  -6.213  -1.913  0.00  0.00    -0.006 A 
ATOM     11  C   UNL     1      -2.644  -5.711  -2.724  0.00  0.00    +0.007 A 
ATOM     12  C   UNL     1      -2.713  -5.886  -4.094  0.00  0.00    +0.000 A 
ATOM     13  C   UNL     1      -3.781  -6.563  -4.651  0.00  0.00    +0.000 A 
ATOM     14  C   UNL     1      -4.781  -7.065  -3.839  0.00  0.00    +0.000 A 
ATOM     15  C   UNL     1      -4.710  -6.894  -2.470  0.00  0.00    +0.007 A 
ENDBRANCH   8  10
BRANCH   7  16
ATOM     16  C   UNL     1      -4.791  -4.723   1.356  0.00  0.00    +0.225 C 
ATOM     17  O   UNL     1      -4.879  -5.788   1.929  0.00  0.00    -0.275 OA
ATOM     18  N   UNL     1      -5.257  -3.602   1.942  0.00  0.00    -0.314 N 
ATOM     19  H   UNL     1      -5.186  -2.750   1.484  0.00  0.00    +0.149 HD
BRANCH  18  20
ATOM     20  C   UNL     1      -5.869  -3.670   3.271  0.00  0.00    +0.108 C 
BRANCH  20  21
ATOM     21  C   UNL     1      -6.309  -2.270   3.702  0.00  0.00    +0.052 C 
BRANCH  21  22
ATOM     22  C   UNL     1      -6.939  -2.340   5.070  0.00  0.00    -0.040 C 
ATOM     23  C   UNL     1      -6.332  -2.116   6.257  0.00  0.00    -0.001 A 
ATOM     24  C   UNL     1      -4.956  -1.755   6.618  0.00  0.00    +0.010 A 
ATOM     25  C   UNL     1      -4.640  -1.597   7.923  0.00  0.00    +0.001 A 
ATOM     26  C   UNL     1      -5.591  -1.768   8.938  0.00  0.00    +0.002 A 
ATOM     27  C   UNL     1      -6.875  -2.100   8.685  0.00  0.00    +0.026 A 
ATOM     28  C   UNL     1      -7.318  -2.292   7.347  0.00  0.00    +0.043 A 
ATOM     29  N   UNL     1      -8.489  -2.611   6.853  0.00  0.00    -0.380 N 
ATOM     30  C   UNL     1      -8.380  -2.669   5.391  0.00  0.00    +0.144 C 
ATOM     31  H   UNL     1      -9.295  -2.778   7.367  0.00  0.00    +0.160 HD
ENDBRANCH  21  22
ENDBRANCH  20  21
ENDBRANCH  18  20
ENDBRANCH   7  16
BRANCH   1  32
ATOM     32  O   UNL     1      -1.339  -0.499   0.012  0.00  0.00    -0.492 OA
BRANCH  32  34
ATOM     33  C   UNL     1      -0.019   1.526   0.010  0.00  0.00    +0.048 C 
ATOM     34  C   UNL     1       0.002  -0.004   0.002  0.00  0.00    +0.225 C 
ENDBRANCH  32  34
ENDBRANCH   1  32
TORSDOF 7
