REMARK  Name = ZINC13500089
REMARK  15 active torsions:
REMARK  status: ('A' for Active; 'I' for Inactive)
REMARK    1  A    between atoms: C_1  and  C_2
REMARK    2  A    between atoms: C_2  and  C_3
REMARK    3  A    between atoms: C_3  and  C_4
REMARK    4  A    between atoms: C_4  and  C_6
REMARK    5  A    between atoms: C_4  and  N_74
REMARK    6  A    between atoms: N_10  and  C_11
REMARK    7  A    between atoms: C_11  and  C_12
REMARK    8  A    between atoms: C_12  and  O_14
REMARK    9  A    between atoms: O_14  and  C_15
REMARK   10  A    between atoms: C_15  and  C_16
REMARK   11  A    between atoms: C_17  and  C_18
REMARK   12  A    between atoms: C_17  and  N_74
REMARK   13  A    between atoms: C_22  and  C_31
REMARK   14  A    between atoms: C_24  and  C_30
REMARK   15  A    between atoms: C_32  and  N_74
REMARK                            x       y       z     vdW  Elec       q    Type
REMARK                         _______ _______ _______ _____ _____    ______ ____
ROOT
ATOM      1  N   UNL     1      -1.049   7.897  -1.218  0.00  0.00    +0.391 N 
ATOM      2  H   UNL     1      -0.403   7.383  -1.828  0.00  0.00    -0.080 HD
ENDROOT
BRANCH   1   3
ATOM      3  C   UNL     1      -2.429   7.439  -1.486  0.00  0.00    -0.067 C 
ATOM      4  C   UNL     1      -2.369   6.015  -2.041  0.00  0.00    -0.015 C 
ATOM      5  C   UNL     1      -3.787   5.523  -2.337  0.00  0.00    -0.002 C 
ATOM      6  C   UNL     1      -4.441   6.445  -3.368  0.00  0.00    -0.000 C 
ATOM      7  C   UNL     1      -4.501   7.869  -2.813  0.00  0.00    -0.002 C 
ATOM      8  C   UNL     1      -3.083   8.361  -2.516  0.00  0.00    -0.015 C 
ENDBRANCH   1   3
BRANCH   1   9
ATOM      9  C   UNL     1      -0.932   9.342  -1.505  0.00  0.00    +0.003 C 
BRANCH   9  10
ATOM     10  C   UNL     1      -1.728  10.145  -0.509  0.00  0.00    +0.139 A 
ATOM     11  N   UNL     1      -1.933   9.848   0.751  0.00  0.00    -0.115 NA
ATOM     12  N   UNL     1      -2.660  10.778   1.267  0.00  0.00    -0.023 NA
ATOM     13  N   UNL     1      -2.924  11.662   0.369  0.00  0.00    -0.043 NA
ATOM     14  N   UNL     1      -2.362  11.310  -0.739  0.00  0.00    -0.220 N 
BRANCH  14  15
ATOM     15  C   UNL     1      -2.409  12.039  -2.008  0.00  0.00    +0.267 C 
BRANCH  15  16
ATOM     16  C   UNL     1      -3.685  11.700  -2.735  0.00  0.00    +0.329 C 
ATOM     17  O   UNL     1      -4.532  11.032  -2.191  0.00  0.00    -0.249 OA
BRANCH  16  18
ATOM     18  O   UNL     1      -3.881  12.140  -3.988  0.00  0.00    -0.464 OA
BRANCH  18  19
ATOM     19  C   UNL     1      -5.167  11.848  -4.596  0.00  0.00    +0.229 C 
ATOM     20  C   UNL     1      -5.160  12.316  -6.053  0.00  0.00    +0.048 C 
ENDBRANCH  18  19
ENDBRANCH  16  18
ENDBRANCH  15  16
ENDBRANCH  14  15
ENDBRANCH   9  10
BRANCH   9  21
ATOM     21  C   UNL     1       0.542   9.745  -1.422  0.00  0.00    -0.008 C 
BRANCH  21  23
ATOM     22  C   UNL     1       2.825   9.308  -2.338  0.00  0.00    +0.004 C 
ATOM     23  C   UNL     1       1.336   8.997  -2.495  0.00  0.00    -0.005 C 
ENDBRANCH  21  23
ENDBRANCH   9  21
ENDBRANCH   1   9
BRANCH   1  24
ATOM     24  C   UNL     1      -0.693   7.632   0.192  0.00  0.00    -0.036 C 
BRANCH  24  25
ATOM     25  C   UNL     1      -0.366   6.168   0.340  0.00  0.00    +0.001 A 
ATOM     26  C   UNL     1       0.915   5.745   0.207  0.00  0.00    +0.017 A 
ATOM     27  C   UNL     1       1.200   4.317   0.357  0.00  0.00    -0.001 A 
ATOM     28  C   UNL     1       2.502   3.821   0.231  0.00  0.00    +0.013 A 
ATOM     29  C   UNL     1       2.733   2.483   0.375  0.00  0.00    -0.050 A 
ATOM     30  C   UNL     1       1.688   1.610   0.647  0.00  0.00    +0.008 A 
ATOM     31  C   UNL     1       0.397   2.075   0.770  0.00  0.00    -0.026 A 
ATOM     32  C   UNL     1       0.138   3.435   0.632  0.00  0.00    +0.052 A 
ATOM     33  N   UNL     1      -1.144   3.929   0.755  0.00  0.00    -0.322 N 
ATOM     34  H   UNL     1      -1.875   3.320   0.945  0.00  0.00    +0.169 HD
ATOM     35  C   UNL     1      -1.395   5.242   0.616  0.00  0.00    +0.251 A 
ATOM     36  O   UNL     1      -2.540   5.644   0.732  0.00  0.00    -0.268 OA
ATOM     37  C   UNL     1      -0.728   1.116   1.059  0.00  0.00    +0.046 C 
ATOM     38  C   UNL     1       4.136   1.949   0.239  0.00  0.00    +0.044 C 
ENDBRANCH  24  25
ENDBRANCH   1  24
TORSDOF 11
