REMARK  Name = ZINC44169959
REMARK  8 active torsions:
REMARK  status: ('A' for Active; 'I' for Inactive)
REMARK    1  A    between atoms: C_1  and  C_2
REMARK    2  A    between atoms: C_2  and  C_3
REMARK    3  A    between atoms: C_8  and  C_9
REMARK    4  A    between atoms: C_14  and  C_17
REMARK    5  A    between atoms: C_31  and  C_37
REMARK    6  A    between atoms: C_31  and  C_38
REMARK    7  A    between atoms: C_34  and  C_35
REMARK    8  A    between atoms: C_34  and  C_36
REMARK                            x       y       z     vdW  Elec       q    Type
REMARK                         _______ _______ _______ _____ _____    ______ ____
ROOT
ATOM      1  C   UNL     1      -1.462  -0.285  -2.474  0.00  0.00    -0.030 C 
ATOM      2  C   UNL     1      -0.639  -1.474  -2.985  0.00  0.00    +0.058 C 
ATOM      3  S   UNL     1       0.188  -0.975  -4.528  0.00  0.00    -0.163 S 
ATOM      4  C   UNL     1      -1.175  -0.258  -5.497  0.00  0.00    +0.062 C 
ATOM      5  C   UNL     1      -1.917   0.749  -4.611  0.00  0.00    +0.027 C 
ATOM      6  N   UNL     1      -2.494   0.061  -3.454  0.00  0.00    +0.392 N 
ATOM      7  H   UNL     1      -2.952  -0.783  -3.764  0.00  0.00    -0.084 HD
ATOM      8  H   UNL     1      -3.175   0.664  -3.017  0.00  0.00    -0.084 HD
ENDROOT
BRANCH   1  14
ATOM      9  C   UNL     1      -1.418  -0.513   0.019  0.00  0.00    -0.046 A 
ATOM     10  C   UNL     1      -2.023  -0.849   1.212  0.00  0.00    +0.008 A 
ATOM     11  C   UNL     1      -3.326  -1.329   1.232  0.00  0.00    -0.038 A 
ATOM     12  C   UNL     1      -4.020  -1.467   0.051  0.00  0.00    -0.038 A 
ATOM     13  C   UNL     1      -3.408  -1.132  -1.149  0.00  0.00    +0.006 A 
ATOM     14  C   UNL     1      -2.114  -0.652  -1.167  0.00  0.00    -0.057 A 
ATOM     15  C   UNL     1      -5.440  -1.966  -0.001  0.00  0.00    -0.010 C 
ATOM     16  C   UNL     1      -5.807  -2.681   1.298  0.00  0.00    +0.012 C 
ATOM     17  C   UNL     1      -5.445  -1.765   2.473  0.00  0.00    +0.012 C 
ATOM     18  C   UNL     1      -3.923  -1.683   2.569  0.00  0.00    -0.010 C 
ATOM     19  C   UNL     1      -3.539  -0.613   3.593  0.00  0.00    +0.016 C 
ATOM     20  C   UNL     1      -3.372  -3.037   3.024  0.00  0.00    +0.016 C 
ATOM     21  C   UNL     1      -6.384  -0.780  -0.208  0.00  0.00    +0.016 C 
ATOM     22  C   UNL     1      -5.591  -2.939  -1.172  0.00  0.00    +0.016 C 
BRANCH   9  24
ATOM     23  C   UNL     1      -0.025   1.539   0.014  0.00  0.00    +0.009 C 
ATOM     24  C   UNL     1      -0.004   0.009   0.009  0.00  0.00    +0.032 C 
ENDBRANCH   9  24
ENDBRANCH   1  14
BRANCH   5  25
ATOM     25  C   UNL     1      -3.020   1.399  -5.406  0.00  0.00    +0.202 C 
ATOM     26  O   UNL     1      -4.148   0.956  -5.353  0.00  0.00    -0.277 OA
ATOM     27  N   UNL     1      -2.753   2.472  -6.177  0.00  0.00    -0.300 N 
ATOM     28  C   UNL     1      -1.373   2.947  -6.345  0.00  0.00    +0.126 C 
ATOM     29  C   UNL     1      -1.052   3.000  -7.844  0.00  0.00    +0.127 C 
ATOM     30  N   UNL     1      -2.136   3.716  -8.531  0.00  0.00    -0.297 N 
ATOM     31  C   UNL     1      -3.517   3.241  -8.363  0.00  0.00    +0.127 C 
ATOM     32  C   UNL     1      -3.837   3.184  -6.868  0.00  0.00    +0.126 C 
ATOM     33  C   UNL     1      -1.862   4.818  -9.322  0.00  0.00    +0.218 A 
ATOM     34  N   UNL     1      -0.607   5.220  -9.459  0.00  0.00    -0.223 NA
ATOM     35  C   UNL     1      -0.311   6.269 -10.208  0.00  0.00    +0.116 A 
ATOM     36  C   UNL     1      -1.331   6.949 -10.853  0.00  0.00    +0.039 A 
ATOM     37  C   UNL     1      -2.633   6.502 -10.689  0.00  0.00    +0.116 A 
ATOM     38  N   UNL     1      -2.860   5.443  -9.929  0.00  0.00    -0.223 NA
ENDBRANCH   5  25
TORSDOF 3
