REMARK  Name = ZINC09068687
REMARK  17 active torsions:
REMARK  status: ('A' for Active; 'I' for Inactive)
REMARK    1  A    between atoms: C_1  and  C_2
REMARK    2  A    between atoms: C_2  and  C_3
REMARK    3  A    between atoms: C_3  and  O_4
REMARK    4  A    between atoms: O_4  and  C_5
REMARK    5  A    between atoms: C_8  and  C_13
REMARK    6  A    between atoms: C_10  and  O_11
REMARK    7  A    between atoms: O_11  and  C_12
REMARK    8  A    between atoms: C_16  and  C_17
REMARK    9  A    between atoms: C_16  and  O_24
REMARK   10  A    between atoms: C_20  and  C_23
REMARK   11  A    between atoms: N_29  and  C_30
REMARK   12  A    between atoms: C_30  and  C_31
REMARK   13  A    between atoms: C_31  and  N_71
REMARK   14  A    between atoms: C_32  and  C_33
REMARK   15  A    between atoms: C_32  and  N_71
REMARK   16  A    between atoms: C_34  and  C_35
REMARK   17  A    between atoms: C_34  and  N_71
REMARK                            x       y       z     vdW  Elec       q    Type
REMARK                         _______ _______ _______ _____ _____    ______ ____
ROOT
ATOM      1  C   UNL     1      -0.277  -0.234  -2.307  0.00  0.00    +0.144 C 
ATOM      2  C   UNL     1       0.724  -0.860  -3.251  0.00  0.00    +0.071 C 
ATOM      3  C   UNL     1       0.618  -0.960  -4.623  0.00  0.00    +0.133 C 
ATOM      4  C   UNL     1       1.780  -1.323  -2.450  0.00  0.00    +0.249 C 
ATOM      5  O   UNL     1       2.780  -1.893  -2.846  0.00  0.00    -0.282 OA
ATOM      6  C   UNL     1       1.464  -0.997  -1.033  0.00  0.00    +0.288 C 
ATOM      7  O   UNL     1       2.173  -1.262  -0.084  0.00  0.00    -0.266 OA
ATOM      8  N   UNL     1       0.280  -0.367  -0.958  0.00  0.00    -0.285 N 
ENDROOT
BRANCH   3   9
ATOM      9  C   UNL     1       1.751  -1.474  -5.414  0.00  0.00    +0.017 A 
ATOM     10  C   UNL     1       3.014  -0.887  -5.296  0.00  0.00    +0.012 A 
ATOM     11  C   UNL     1       4.070  -1.377  -6.035  0.00  0.00    +0.004 A 
ATOM     12  C   UNL     1       3.879  -2.440  -6.900  0.00  0.00    -0.050 A 
ATOM     13  C   UNL     1       2.630  -3.023  -7.027  0.00  0.00    +0.004 A 
ATOM     14  C   UNL     1       1.566  -2.548  -6.290  0.00  0.00    +0.012 A 
ATOM     15  C   UNL     1       5.037  -2.967  -7.708  0.00  0.00    +0.044 C 
ENDBRANCH   3   9
BRANCH   1  19
ATOM     16  C   UNL     1      -4.017  -2.293  -2.550  0.00  0.00    +0.162 A 
ATOM     17  C   UNL     1      -2.962  -2.849  -1.845  0.00  0.00    +0.050 A 
ATOM     18  C   UNL     1      -1.754  -2.181  -1.768  0.00  0.00    +0.009 A 
ATOM     19  C   UNL     1      -1.595  -0.959  -2.394  0.00  0.00    -0.019 A 
ATOM     20  C   UNL     1      -2.646  -0.396  -3.095  0.00  0.00    +0.055 A 
ATOM     21  C   UNL     1      -3.858  -1.063  -3.180  0.00  0.00    +0.162 A 
BRANCH  21  22
ATOM     22  O   UNL     1      -4.891  -0.513  -3.873  0.00  0.00    -0.491 OA
ATOM     23  C   UNL     1      -4.655   0.752  -4.495  0.00  0.00    +0.277 C 
ENDBRANCH  21  22
BRANCH  16  24
ATOM     24  O   UNL     1      -5.206  -2.949  -2.626  0.00  0.00    -0.488 OA
BRANCH  24  25
ATOM     25  C   UNL     1      -5.298  -4.207  -1.954  0.00  0.00    +0.229 C 
BRANCH  25  27
ATOM     26  C   UNL     1      -6.797  -6.136  -1.431  0.00  0.00    +0.007 C 
ATOM     27  C   UNL     1      -6.699  -4.789  -2.150  0.00  0.00    +0.038 C 
ENDBRANCH  25  27
ENDBRANCH  24  25
ENDBRANCH  16  24
ENDBRANCH   1  19
BRANCH   3  28
ATOM     28  O   UNL     1      -0.522  -0.586  -5.242  0.00  0.00    -0.506 OA
ATOM     29  H   UNL     1      -0.427  -0.724  -6.228  0.00  0.00    +0.292 HD
ENDBRANCH   3  28
BRANCH   8  30
ATOM     30  C   UNL     1      -0.355   0.106   0.275  0.00  0.00    +0.090 C 
BRANCH  30  31
ATOM     31  C   UNL     1       0.091   1.542   0.560  0.00  0.00    -0.060 C 
BRANCH  31  32
ATOM     32  N   UNL     1      -0.667   2.051   1.722  0.00  0.00    +0.380 N 
ATOM     33  H   UNL     1      -1.647   1.757   1.636  0.00  0.00    -0.082 HD
BRANCH  32  34
ATOM     34  C   UNL     1      -0.107   1.497   2.973  0.00  0.00    -0.082 C 
ATOM     35  C   UNL     1      -1.038   1.856   4.132  0.00  0.00    -0.017 C 
ENDBRANCH  32  34
BRANCH  32  36
ATOM     36  C   UNL     1      -0.611   3.528   1.754  0.00  0.00    -0.082 C 
ATOM     37  C   UNL     1      -1.588   4.078   0.714  0.00  0.00    -0.017 C 
ENDBRANCH  32  36
ENDBRANCH  31  32
ENDBRANCH  30  31
ENDBRANCH   8  30
TORSDOF 12
