REMARK  Name = ZINC07018347
REMARK  13 active torsions:
REMARK  status: ('A' for Active; 'I' for Inactive)
REMARK    1  A    between atoms: C_1  and  C_2
REMARK    2  A    between atoms: C_7  and  N_8
REMARK    3  A    between atoms: C_9  and  C_11
REMARK    4  A    between atoms: C_11  and  N_50
REMARK    5  A    between atoms: C_12  and  N_50
REMARK    6  A    between atoms: C_13  and  C_14
REMARK    7  A    between atoms: C_13  and  N_50
REMARK    8  A    between atoms: N_16  and  C_17
REMARK    9  A    between atoms: C_17  and  C_18
REMARK   10  A    between atoms: C_17  and  C_19
REMARK   11  A    between atoms: C_17  and  C_21
REMARK   12  A    between atoms: C_21  and  C_22
REMARK   13  A    between atoms: C_21  and  C_23
REMARK                            x       y       z     vdW  Elec       q    Type
REMARK                         _______ _______ _______ _____ _____    ______ ____
ROOT
ATOM      1  C   UNL     1       2.439   0.276  -1.286  0.00  0.00    -0.095 C 
ATOM      2  N   UNL     1       2.406   1.023  -0.010  0.00  0.00    +0.389 N 
ATOM      3  H   UNL     1       2.276   0.358   0.762  0.00  0.00    -0.081 HD
ENDROOT
BRANCH   2   4
ATOM      4  C   UNL     1       1.280   1.980  -0.015  0.00  0.00    +0.019 C 
BRANCH   4   6
ATOM      5  N   UNL     1      -1.191   1.867   0.018  0.00  0.00    -0.287 N 
ATOM      6  C   UNL     1      -0.014   1.209   0.005  0.00  0.00    +0.201 C 
ATOM      7  O   UNL     1       0.003  -0.004   0.005  0.00  0.00    -0.278 OA
ATOM      8  H   UNL     1      -1.205   2.833   0.099  0.00  0.00    +0.155 HD
BRANCH   5  15
ATOM      9  C   UNL     1      -3.546   3.040   1.100  0.00  0.00    +0.046 C 
ATOM     10  C   UNL     1      -3.564   1.691   0.428  0.00  0.00    -0.028 A 
ATOM     11  C   UNL     1      -4.749   0.989   0.320  0.00  0.00    +0.020 A 
ATOM     12  C   UNL     1      -4.765  -0.252  -0.291  0.00  0.00    +0.018 A 
ATOM     13  C   UNL     1      -3.597  -0.791  -0.800  0.00  0.00    +0.017 A 
ATOM     14  C   UNL     1      -2.411  -0.091  -0.699  0.00  0.00    +0.024 A 
ATOM     15  C   UNL     1      -2.391   1.155  -0.086  0.00  0.00    +0.036 A 
ATOM     16 BR   UNL     1      -6.387  -1.214  -0.431  0.00  0.00    -0.050 Br
ENDBRANCH   5  15
ENDBRANCH   4   6
ENDBRANCH   2   4
BRANCH   2  17
ATOM     17  C   UNL     1       3.681   1.743   0.187  0.00  0.00    +0.019 C 
BRANCH  17  18
ATOM     18  C   UNL     1       4.780   0.736   0.407  0.00  0.00    +0.198 C 
ATOM     19  O   UNL     1       4.528  -0.450   0.385  0.00  0.00    -0.278 OA
ATOM     20  N   UNL     1       6.042   1.153   0.630  0.00  0.00    -0.299 N 
ATOM     21  H   UNL     1       6.244   2.102   0.648  0.00  0.00    +0.150 HD
BRANCH  20  22
ATOM     22  C   UNL     1       7.110   0.173   0.844  0.00  0.00    +0.121 C 
ATOM     23  C   UNL     1       6.781  -0.679   2.071  0.00  0.00    +0.048 C 
BRANCH  22  24
ATOM     24  C   UNL     1       8.435   0.905   1.072  0.00  0.00    +0.020 C 
ATOM     25  C   UNL     1       8.357   1.709   2.371  0.00  0.00    +0.010 C 
ATOM     26  C   UNL     1       9.570  -0.116   1.171  0.00  0.00    +0.010 C 
ENDBRANCH  22  24
BRANCH  22  27
ATOM     27  C   UNL     1       7.226  -0.694  -0.340  0.00  0.00    +0.088 C 
ATOM     28  N   UNL     1       7.315  -1.363  -1.253  0.00  0.00    -0.194 NA
ENDBRANCH  22  27
ENDBRANCH  20  22
ENDBRANCH  17  18
ENDBRANCH   2  17
TORSDOF 8
