REMARK  Name = ZINC39266377
REMARK  8 active torsions:
REMARK  status: ('A' for Active; 'I' for Inactive)
REMARK    1  A    between atoms: C_4  and  C_7
REMARK    2  A    between atoms: C_7  and  C_8
REMARK    3  A    between atoms: C_7  and  N_14
REMARK    4  A    between atoms: C_15  and  C_17
REMARK    5  A    between atoms: N_22  and  C_23
REMARK    6  A    between atoms: C_23  and  C_24
REMARK    7  A    between atoms: N_26  and  C_27
REMARK    8  A    between atoms: C_28  and  C_32
REMARK                            x       y       z     vdW  Elec       q    Type
REMARK                         _______ _______ _______ _____ _____    ______ ____
ROOT
ATOM      1  C   UNL     1       3.722  -2.906  -3.171  0.00  0.00    +0.020 C 
ATOM      2  C   UNL     1       4.807  -3.958  -2.826  0.00  0.00    -0.008 C 
ATOM      3  C   UNL     1       4.974  -4.730  -4.155  0.00  0.00    -0.020 C 
ATOM      4  C   UNL     1       4.457  -3.773  -5.245  0.00  0.00    -0.077 C 
ATOM      5  N   UNL     1       4.049  -2.521  -4.568  0.00  0.00    +0.393 N 
ATOM      6  H   UNL     1       4.809  -1.858  -4.577  0.00  0.00    -0.080 HD
ENDROOT
BRANCH   1   8
ATOM      7  N   UNL     1       3.611  -1.865  -0.930  0.00  0.00    -0.306 N 
ATOM      8  C   UNL     1       3.825  -1.716  -2.253  0.00  0.00    +0.200 C 
ATOM      9  O   UNL     1       4.099  -0.624  -2.704  0.00  0.00    -0.278 OA
ATOM     10  H   UNL     1       3.392  -2.738  -0.569  0.00  0.00    +0.150 HD
BRANCH   7  11
ATOM     11  C   UNL     1       3.711  -0.707  -0.038  0.00  0.00    +0.133 C 
BRANCH  11  15
ATOM     12  C   UNL     1      -0.017   1.378   0.010  0.00  0.00    +0.000 A 
ATOM     13  C   UNL     1       1.171   2.086   0.002  0.00  0.00    +0.000 A 
ATOM     14  C   UNL     1       2.377   1.411  -0.013  0.00  0.00    +0.006 A 
ATOM     15  C   UNL     1       2.396   0.029  -0.020  0.00  0.00    -0.023 A 
ATOM     16  C   UNL     1       1.208  -0.679  -0.012  0.00  0.00    +0.006 A 
ATOM     17  C   UNL     1       0.002  -0.004   0.002  0.00  0.00    +0.000 A 
ENDBRANCH  11  15
BRANCH  11  18
ATOM     18  C   UNL     1       4.044  -1.175   1.356  0.00  0.00    -0.023 A 
ATOM     19  C   UNL     1       3.455  -2.320   1.860  0.00  0.00    +0.006 A 
ATOM     20  C   UNL     1       3.760  -2.748   3.138  0.00  0.00    +0.000 A 
ATOM     21  C   UNL     1       4.654  -2.033   3.912  0.00  0.00    +0.000 A 
ATOM     22  C   UNL     1       5.243  -0.888   3.408  0.00  0.00    +0.000 A 
ATOM     23  C   UNL     1       4.941  -0.462   2.128  0.00  0.00    +0.006 A 
ENDBRANCH  11  18
ENDBRANCH   7  11
ENDBRANCH   1   8
BRANCH   5  24
ATOM     24  C   UNL     1       2.866  -1.948  -5.225  0.00  0.00    +0.020 C 
BRANCH  24  25
ATOM     25  C   UNL     1       3.245  -1.450  -6.596  0.00  0.00    +0.201 C 
ATOM     26  O   UNL     1       4.388  -1.562  -6.987  0.00  0.00    -0.278 OA
ATOM     27  N   UNL     1       2.315  -0.881  -7.387  0.00  0.00    -0.281 N 
ATOM     28  H   UNL     1       1.401  -0.792  -7.074  0.00  0.00    +0.155 HD
BRANCH  27  29
ATOM     29  C   UNL     1       2.664  -0.423  -8.650  0.00  0.00    +0.089 A 
ATOM     30  C   UNL     1       1.849   0.188  -9.590  0.00  0.00    +0.080 A 
ATOM     31  C   UNL     1       2.472   0.570 -10.836  0.00  0.00    +0.028 A 
ATOM     32  C   UNL     1       3.784   0.288 -10.946  0.00  0.00    +0.048 A 
ATOM     33  S   UNL     1       4.171  -0.476  -9.386  0.00  0.00    -0.081 S 
BRANCH  30  34
ATOM     34  C   UNL     1       0.460   0.428  -9.339  0.00  0.00    +0.102 C 
ATOM     35  N   UNL     1      -0.643   0.618  -9.140  0.00  0.00    -0.191 NA
ENDBRANCH  30  34
ENDBRANCH  27  29
ENDBRANCH  24  25
ENDBRANCH   5  24
TORSDOF 8
