REMARK  Name = ZINC33540966
REMARK  14 active torsions:
REMARK  status: ('A' for Active; 'I' for Inactive)
REMARK    1  A    between atoms: C_1  and  C_2
REMARK    2  A    between atoms: C_2  and  C_3
REMARK    3  A    between atoms: C_3  and  O_4
REMARK    4  A    between atoms: O_4  and  C_5
REMARK    5  A    between atoms: C_8  and  C_14
REMARK    6  A    between atoms: C_10  and  O_11
REMARK    7  A    between atoms: O_11  and  C_12
REMARK    8  A    between atoms: C_12  and  C_13
REMARK    9  A    between atoms: C_16  and  C_17
REMARK   10  A    between atoms: C_17  and  C_18
REMARK   11  A    between atoms: C_21  and  C_24
REMARK   12  A    between atoms: N_30  and  C_31
REMARK   13  A    between atoms: C_31  and  C_32
REMARK   14  A    between atoms: C_32  and  C_33
REMARK                            x       y       z     vdW  Elec       q    Type
REMARK                         _______ _______ _______ _____ _____    ______ ____
ROOT
ATOM      1  C   UNL     1      -4.349   1.149   0.539  0.00  0.00    +0.145 C 
ATOM      2  C   UNL     1      -3.961   2.490  -0.040  0.00  0.00    +0.076 C 
ATOM      3  C   UNL     1      -5.134   3.262  -0.058  0.00  0.00    +0.249 C 
ATOM      4  O   UNL     1      -5.228   4.409  -0.455  0.00  0.00    -0.282 OA
ATOM      5  C   UNL     1      -6.241   2.434   0.493  0.00  0.00    +0.288 C 
ATOM      6  O   UNL     1      -7.392   2.803   0.615  0.00  0.00    -0.266 OA
ATOM      7  N   UNL     1      -5.783   1.218   0.833  0.00  0.00    -0.283 N 
ENDROOT
BRANCH   1  11
ATOM      8  C   UNL     1      -2.148   0.414   4.132  0.00  0.00    +0.162 A 
ATOM      9  C   UNL     1      -1.901  -0.343   2.998  0.00  0.00    +0.050 A 
ATOM     10  C   UNL     1      -2.615  -0.103   1.838  0.00  0.00    +0.009 A 
ATOM     11  C   UNL     1      -3.575   0.891   1.807  0.00  0.00    -0.019 A 
ATOM     12  C   UNL     1      -3.822   1.653   2.933  0.00  0.00    +0.055 A 
ATOM     13  C   UNL     1      -3.115   1.415   4.100  0.00  0.00    +0.162 A 
BRANCH   8  14
ATOM     14  O   UNL     1      -1.448   0.179   5.274  0.00  0.00    -0.488 OA
BRANCH  14  15
ATOM     15  C   UNL     1      -0.472  -0.864   5.233  0.00  0.00    +0.229 C 
BRANCH  15  17
ATOM     16  C   UNL     1       1.254  -2.096   6.555  0.00  0.00    +0.007 C 
ATOM     17  C   UNL     1       0.208  -0.979   6.599  0.00  0.00    +0.038 C 
ENDBRANCH  15  17
ENDBRANCH  14  15
ENDBRANCH   8  14
BRANCH  13  18
ATOM     18  O   UNL     1      -3.361   2.160   5.211  0.00  0.00    -0.489 OA
BRANCH  18  19
ATOM     19  C   UNL     1      -4.437   3.098   5.138  0.00  0.00    +0.226 C 
ATOM     20  C   UNL     1      -4.617   3.774   6.498  0.00  0.00    +0.048 C 
ENDBRANCH  18  19
ENDBRANCH  13  18
ENDBRANCH   1  11
BRANCH   2  21
ATOM     21  C   UNL     1      -2.707   2.877  -0.466  0.00  0.00    +0.195 C 
ATOM     22  O   UNL     1      -2.486   4.156  -0.839  0.00  0.00    -0.287 OA
BRANCH  21  23
ATOM     23  C   UNL     1      -1.609   1.895  -0.515  0.00  0.00    +0.022 A 
ATOM     24  C   UNL     1      -1.803   0.654  -1.130  0.00  0.00    +0.012 A 
ATOM     25  C   UNL     1      -0.773  -0.262  -1.167  0.00  0.00    +0.004 A 
ATOM     26  C   UNL     1       0.454   0.049  -0.606  0.00  0.00    -0.050 A 
ATOM     27  C   UNL     1       0.655   1.277  -0.000  0.00  0.00    +0.004 A 
ATOM     28  C   UNL     1      -0.367   2.201   0.049  0.00  0.00    +0.012 A 
ATOM     29  C   UNL     1       1.576  -0.955  -0.656  0.00  0.00    +0.044 C 
ENDBRANCH  21  23
ENDBRANCH   2  21
BRANCH   7  30
ATOM     30  C   UNL     1      -6.587   0.137   1.409  0.00  0.00    +0.114 C 
BRANCH  30  31
ATOM     31  C   UNL     1      -6.572   0.247   2.935  0.00  0.00    +0.054 C 
BRANCH  31  32
ATOM     32  C   UNL     1      -7.398  -0.865   3.527  0.00  0.00    -0.046 A 
ATOM     33  C   UNL     1      -8.747  -0.674   3.763  0.00  0.00    +0.004 A 
ATOM     34  C   UNL     1      -9.506  -1.696   4.302  0.00  0.00    +0.000 A 
ATOM     35  C   UNL     1      -8.914  -2.905   4.614  0.00  0.00    +0.000 A 
ATOM     36  C   UNL     1      -7.564  -3.095   4.384  0.00  0.00    +0.000 A 
ATOM     37  C   UNL     1      -6.806  -2.074   3.840  0.00  0.00    +0.004 A 
ENDBRANCH  31  32
ENDBRANCH  30  31
ENDBRANCH   7  30
TORSDOF 11
