REMARK  Name = ZINC40987373
REMARK  10 active torsions:
REMARK  status: ('A' for Active; 'I' for Inactive)
REMARK    1  A    between atoms: C_1  and  C_2
REMARK    2  A    between atoms: C_2  and  N_3
REMARK    3  A    between atoms: N_3  and  C_4
REMARK    4  A    between atoms: N_3  and  C_6
REMARK    5  A    between atoms: C_4  and  C_5
REMARK    6  A    between atoms: C_6  and  C_8
REMARK    7  A    between atoms: C_6  and  C_25
REMARK    8  A    between atoms: C_8  and  N_9
REMARK    9  A    between atoms: C_10  and  C_12
REMARK   10  A    between atoms: C_14  and  C_17
REMARK                            x       y       z     vdW  Elec       q    Type
REMARK                         _______ _______ _______ _____ _____    ______ ____
ROOT
ATOM      1  N   UNL     1       1.538  -2.366   1.079  0.00  0.00    -0.311 N 
ATOM      2  C   UNL     1       0.686  -3.409   1.146  0.00  0.00    +0.266 C 
ATOM      3  O   UNL     1      -0.446  -3.243   1.554  0.00  0.00    -0.268 OA
ATOM      4  H   UNL     1       2.417  -2.482   0.685  0.00  0.00    +0.149 HD
ENDROOT
BRANCH   2   5
ATOM      5  C   UNL     1       1.131  -4.759   0.721  0.00  0.00    +0.168 A 
ATOM      6  C   UNL     1       0.322  -5.912   0.642  0.00  0.00    +0.086 A 
ATOM      7  C   UNL     1       1.101  -6.941   0.213  0.00  0.00    +0.168 A 
ATOM      8  O   UNL     1       2.347  -6.467   0.027  0.00  0.00    -0.354 OA
ATOM      9  N   UNL     1       2.345  -5.088   0.348  0.00  0.00    -0.073 NA
BRANCH   7  10
ATOM     10  C   UNL     1       0.657  -8.333  -0.010  0.00  0.00    +0.023 A 
ATOM     11  C   UNL     1      -0.673  -8.689   0.217  0.00  0.00    +0.014 A 
ATOM     12  C   UNL     1      -1.083  -9.989   0.008  0.00  0.00    +0.042 A 
ATOM     13  C   UNL     1      -0.176 -10.943  -0.428  0.00  0.00    +0.158 A 
ATOM     14  C   UNL     1       1.148 -10.595  -0.656  0.00  0.00    +0.159 A 
ATOM     15  C   UNL     1       1.566  -9.295  -0.455  0.00  0.00    +0.053 A 
ATOM     16  F   UNL     1       2.027 -11.529  -1.081  0.00  0.00    -0.202 F 
ATOM     17  F   UNL     1      -0.583 -12.215  -0.631  0.00  0.00    -0.202 F 
ENDBRANCH   7  10
ENDBRANCH   2   5
BRANCH   1  18
ATOM     18  C   UNL     1       1.136  -1.057   1.600  0.00  0.00    +0.094 C 
BRANCH  18  19
ATOM     19  C   UNL     1       2.217  -0.025   1.275  0.00  0.00    -0.020 C 
BRANCH  19  20
ATOM     20  C   UNL     1       1.750   1.343   1.702  0.00  0.00    -0.059 A 
ATOM     21  C   UNL     1       0.770   1.468   2.668  0.00  0.00    +0.003 A 
ATOM     22  C   UNL     1       0.342   2.722   3.060  0.00  0.00    +0.020 A 
ATOM     23  C   UNL     1       0.894   3.853   2.485  0.00  0.00    +0.041 A 
ATOM     24  C   UNL     1       1.875   3.727   1.517  0.00  0.00    +0.020 A 
ATOM     25  C   UNL     1       2.307   2.472   1.130  0.00  0.00    +0.003 A 
ATOM     26 CL   UNL     1       0.356   5.428   2.976  0.00  0.00    -0.084 Cl
ENDBRANCH  19  20
BRANCH  19  27
ATOM     27  N   UNL     1       2.475  -0.025  -0.171  0.00  0.00    +0.385 N 
ATOM     28  H   UNL     1       2.345  -0.957  -0.536  0.00  0.00    -0.081 HD
BRANCH  27  30
ATOM     29  C   UNL     1       0.105   0.490  -0.508  0.00  0.00    -0.017 C 
ATOM     30  C   UNL     1       1.543   0.896  -0.835  0.00  0.00    -0.081 C 
ENDBRANCH  27  30
BRANCH  27  31
ATOM     31  C   UNL     1       3.856   0.410  -0.422  0.00  0.00    -0.081 C 
ATOM     32  C   UNL     1       4.827  -0.658   0.082  0.00  0.00    -0.017 C 
ENDBRANCH  27  31
ENDBRANCH  19  27
ENDBRANCH  18  19
ENDBRANCH   1  18
TORSDOF 8
