REMARK  Name = ZINC39664361
REMARK  9 active torsions:
REMARK  status: ('A' for Active; 'I' for Inactive)
REMARK    1  A    between atoms: C_1  and  C_2
REMARK    2  A    between atoms: C_2  and  O_3
REMARK    3  A    between atoms: O_3  and  C_4
REMARK    4  A    between atoms: C_9  and  C_10
REMARK    5  A    between atoms: C_14  and  C_23
REMARK    6  A    between atoms: N_25  and  C_26
REMARK    7  A    between atoms: C_26  and  C_27
REMARK    8  A    between atoms: C_27  and  C_29
REMARK    9  A    between atoms: C_27  and  N_35
REMARK                            x       y       z     vdW  Elec       q    Type
REMARK                         _______ _______ _______ _____ _____    ______ ____
ROOT
ATOM      1  C   UNL     1       1.912  -1.467  -3.481  0.00  0.00    +0.250 C 
ATOM      2  O   UNL     1       1.832  -0.261  -3.347  0.00  0.00    -0.270 OA
ATOM      3  N   UNL     1       2.658  -1.986  -4.477  0.00  0.00    -0.296 N 
ATOM      4  C   UNL     1       2.794  -3.410  -4.862  0.00  0.00    +0.121 C 
ATOM      5  C   UNL     1       2.826  -3.396  -6.407  0.00  0.00    +0.100 C 
ATOM      6  C   UNL     1       3.309  -1.983  -6.776  0.00  0.00    -0.004 C 
ATOM      7  C   UNL     1       3.522  -1.260  -5.439  0.00  0.00    +0.115 C 
ATOM      8  C   UNL     1       2.247  -1.260  -7.598  0.00  0.00    -0.010 C 
ATOM      9  C   UNL     1       2.773   0.121  -8.001  0.00  0.00    -0.082 C 
ATOM     10  N   UNL     1       4.005  -0.033  -8.784  0.00  0.00    +0.379 N 
ATOM     11  C   UNL     1       5.051  -0.646  -7.957  0.00  0.00    -0.082 C 
ATOM     12  C   UNL     1       4.621  -2.059  -7.551  0.00  0.00    -0.010 C 
ATOM     13  H   UNL     1       3.822  -0.621  -9.584  0.00  0.00    -0.086 HD
ATOM     14  H   UNL     1       4.316   0.873  -9.100  0.00  0.00    -0.086 HD
ENDROOT
BRANCH   1  20
ATOM     15  C   UNL     1      -0.060  -1.992  -2.047  0.00  0.00    +0.133 A 
ATOM     16  C   UNL     1      -0.729  -2.844  -1.181  0.00  0.00    +0.046 A 
ATOM     17  C   UNL     1      -0.159  -4.047  -0.816  0.00  0.00    +0.004 A 
ATOM     18  C   UNL     1       1.082  -4.414  -1.311  0.00  0.00    +0.001 A 
ATOM     19  C   UNL     1       1.761  -3.580  -2.172  0.00  0.00    +0.017 A 
ATOM     20  C   UNL     1       1.193  -2.362  -2.554  0.00  0.00    +0.078 A 
BRANCH  15  21
ATOM     21  O   UNL     1      -0.618  -0.809  -2.406  0.00  0.00    -0.491 OA
BRANCH  21  23
ATOM     22  C   UNL     1      -2.362   0.864  -2.365  0.00  0.00    +0.048 C 
ATOM     23  C   UNL     1      -1.897  -0.499  -1.849  0.00  0.00    +0.226 C 
ENDBRANCH  21  23
ENDBRANCH  15  21
ENDBRANCH   1  20
BRANCH   5  24
ATOM     24  C   UNL     1       3.790  -4.434  -6.921  0.00  0.00    +0.218 C 
ATOM     25  O   UNL     1       4.729  -4.782  -6.237  0.00  0.00    -0.275 OA
ATOM     26  N   UNL     1       3.608  -4.976  -8.142  0.00  0.00    -0.313 N 
ATOM     27  H   UNL     1       2.857  -4.698  -8.689  0.00  0.00    +0.149 HD
BRANCH  26  28
ATOM     28  C   UNL     1       4.545  -5.985  -8.642  0.00  0.00    +0.127 C 
BRANCH  28  29
ATOM     29  C   UNL     1       4.043  -6.528  -9.981  0.00  0.00    +0.104 C 
BRANCH  29  30
ATOM     30  C   UNL     1       2.719  -7.219  -9.778  0.00  0.00    -0.029 A 
ATOM     31  C   UNL     1       2.682  -8.507  -9.276  0.00  0.00    +0.005 A 
ATOM     32  C   UNL     1       1.468  -9.141  -9.090  0.00  0.00    +0.000 A 
ATOM     33  C   UNL     1       0.291  -8.488  -9.406  0.00  0.00    +0.000 A 
ATOM     34  C   UNL     1       0.328  -7.200  -9.908  0.00  0.00    +0.000 A 
ATOM     35  C   UNL     1       1.542  -6.564 -10.089  0.00  0.00    +0.005 A 
ENDBRANCH  29  30
BRANCH  29  36
ATOM     36  N   UNL     1       5.018  -7.486 -10.518  0.00  0.00    -0.290 NA
ATOM     37  C   UNL     1       6.356  -6.882 -10.607  0.00  0.00    +0.113 C 
ATOM     38  C   UNL     1       7.350  -7.930 -11.113  0.00  0.00    +0.175 C 
ATOM     39  O   UNL     1       6.901  -8.437 -12.373  0.00  0.00    -0.377 OA
ATOM     40  C   UNL     1       5.602  -9.033 -12.323  0.00  0.00    +0.175 C 
ATOM     41  C   UNL     1       4.589  -7.996 -11.829  0.00  0.00    +0.113 C 
ENDBRANCH  29  36
ENDBRANCH  28  29
ENDBRANCH  26  28
ENDBRANCH   5  24
TORSDOF 8
