REMARK  Name = ZINC64097991
REMARK  6 active torsions:
REMARK  status: ('A' for Active; 'I' for Inactive)
REMARK    1  A    between atoms: C_1  and  C_2
REMARK    2  A    between atoms: C_2  and  C_3
REMARK    3  A    between atoms: C_3  and  N_4
REMARK    4  A    between atoms: C_7  and  C_13
REMARK    5  A    between atoms: C_20  and  O_25
REMARK    6  A    between atoms: O_25  and  C_26
REMARK                            x       y       z     vdW  Elec       q    Type
REMARK                         _______ _______ _______ _____ _____    ______ ____
ROOT
ATOM      1  C   UNL     1       2.914  -4.784  -0.060  0.00  0.00    +0.121 C 
ATOM      2  C   UNL     1       4.215  -4.491  -0.811  0.00  0.00    +0.128 C 
ATOM      3  C   UNL     1       5.329  -5.151  -0.006  0.00  0.00    -0.035 C 
ATOM      4  C   UNL     1       5.986  -5.936  -0.848  0.00  0.00    +0.003 A 
ATOM      5  C   UNL     1       7.196  -6.757  -0.689  0.00  0.00    +0.055 A 
ATOM      6  C   UNL     1       7.600  -7.467  -1.778  0.00  0.00    +0.121 A 
ATOM      7  C   UNL     1       6.936  -7.454  -3.014  0.00  0.00    +0.047 A 
ATOM      8  C   UNL     1       5.817  -6.729  -3.272  0.00  0.00    +0.029 A 
ATOM      9  C   UNL     1       5.286  -5.914  -2.171  0.00  0.00    +0.043 A 
ATOM     10  N   UNL     1       4.248  -5.103  -2.139  0.00  0.00    -0.376 N 
ATOM     11  C   UNL     1       5.467  -4.933   1.481  0.00  0.00    +0.048 C 
ATOM     12  C   UNL     1       4.063  -5.140   2.078  0.00  0.00    +0.086 C 
ATOM     13  N   UNL     1       3.077  -4.349   1.336  0.00  0.00    -0.307 NA
ATOM     14  H   UNL     1       3.293  -3.365   1.386  0.00  0.00    +0.123 HD
ATOM     15  H   UNL     1       3.615  -4.940  -2.855  0.00  0.00    +0.160 HD
ENDROOT
BRANCH   1  19
ATOM     16  N   UNL     1       0.738  -1.962  -1.265  0.00  0.00    -0.261 N 
ATOM     17  C   UNL     1       1.763  -2.621  -0.688  0.00  0.00    +0.265 A 
ATOM     18  O   UNL     1       2.671  -2.001  -0.162  0.00  0.00    -0.267 OA
ATOM     19  C   UNL     1       1.778  -4.027  -0.698  0.00  0.00    +0.100 A 
ATOM     20  C   UNL     1       0.750  -4.696  -1.294  0.00  0.00    +0.263 A 
ATOM     21  N   UNL     1      -0.274  -3.986  -1.869  0.00  0.00    -0.274 N 
ATOM     22  C   UNL     1      -0.270  -2.641  -1.843  0.00  0.00    +0.332 A 
ATOM     23  O   UNL     1      -1.188  -2.029  -2.353  0.00  0.00    -0.246 OA
ATOM     24  O   UNL     1       0.739  -6.045  -1.317  0.00  0.00    -0.267 OA
ATOM     25  H   UNL     1      -1.008  -4.457  -2.294  0.00  0.00    +0.173 HD
BRANCH  16  26
ATOM     26  C   UNL     1       0.718  -0.497  -1.257  0.00  0.00    +0.130 C 
BRANCH  26  28
ATOM     27  C   UNL     1      -0.019   1.526   0.010  0.00  0.00    +0.005 C 
ATOM     28  C   UNL     1       0.002  -0.004   0.002  0.00  0.00    +0.018 C 
ENDBRANCH  26  28
ENDBRANCH  16  26
ENDBRANCH   1  19
BRANCH   6  29
ATOM     29  O   UNL     1       8.715  -8.235  -1.661  0.00  0.00    -0.495 OA
ATOM     30  C   UNL     1       9.120  -8.971  -2.817  0.00  0.00    +0.277 C 
ENDBRANCH   6  29
TORSDOF 4
