REMARK  Name = ZINC38926294
REMARK  6 active torsions:
REMARK  status: ('A' for Active; 'I' for Inactive)
REMARK    1  A    between atoms: C_1  and  C_2
REMARK    2  A    between atoms: C_2  and  C_3
REMARK    3  A    between atoms: C_3  and  N_4
REMARK    4  A    between atoms: C_13  and  C_17
REMARK    5  A    between atoms: C_17  and  N_19
REMARK    6  A    between atoms: C_23  and  C_26
REMARK                            x       y       z     vdW  Elec       q    Type
REMARK                         _______ _______ _______ _____ _____    ______ ____
ROOT
ATOM      1  C   UNL     1      -0.291  -4.607   2.204  0.00  0.00    +0.258 C 
ATOM      2  O   UNL     1       0.504  -5.412   1.756  0.00  0.00    -0.272 OA
ENDROOT
BRANCH   1  11
ATOM      3  N   UNL     1      -1.413  -1.998   0.005  0.00  0.00    -0.297 N 
ATOM      4  C   UNL     1      -1.523  -2.660  -1.280  0.00  0.00    +0.086 C 
ATOM      5  C   UNL     1      -2.341  -1.840  -2.269  0.00  0.00    +0.023 C 
ATOM      6  C   UNL     1      -3.805  -1.795  -1.831  0.00  0.00    +0.002 C 
ATOM      7  C   UNL     1      -4.351  -3.224  -1.766  0.00  0.00    +0.001 C 
ATOM      8  C   UNL     1      -3.553  -4.020  -0.733  0.00  0.00    +0.013 C 
ATOM      9  C   UNL     1      -2.101  -4.066  -1.145  0.00  0.00    +0.077 C 
ATOM     10  C   UNL     1      -1.350  -4.759  -0.020  0.00  0.00    +0.159 C 
ATOM     11  C   UNL     1      -1.424  -4.109   1.345  0.00  0.00    +0.229 C 
ATOM     12  C   UNL     1      -1.291  -2.617   1.179  0.00  0.00    +0.235 C 
ATOM     13  O   UNL     1      -1.100  -1.941   2.168  0.00  0.00    -0.274 OA
ATOM     14  O   UNL     1      -0.726  -5.776  -0.205  0.00  0.00    -0.296 OA
BRANCH   3  15
ATOM     15  C   UNL     1      -1.433  -0.534   0.013  0.00  0.00    +0.108 C 
BRANCH  15  17
ATOM     16  C   UNL     1      -0.046   1.527  -0.258  0.00  0.00    +0.005 C 
ATOM     17  C   UNL     1      -0.026  -0.003  -0.266  0.00  0.00    +0.016 C 
ENDBRANCH  15  17
ENDBRANCH   3  15
ENDBRANCH   1  11
BRANCH   1  18
ATOM     18  N   UNL     1      -0.159  -4.168   3.449  0.00  0.00    -0.156 NA
ATOM     19  C   UNL     1       0.846  -4.609   4.210  0.00  0.00    +0.163 A 
ATOM     20  N   UNL     1       1.825  -5.495   3.885  0.00  0.00    -0.339 N 
ATOM     21  H   UNL     1       1.855  -5.896   3.002  0.00  0.00    +0.167 HD
ATOM     22  C   UNL     1       2.761  -5.810   4.820  0.00  0.00    +0.031 A 
ATOM     23  C   UNL     1       2.657  -5.218   6.015  0.00  0.00    +0.070 A 
ATOM     24  S   UNL     1       1.211  -4.199   5.799  0.00  0.00    -0.060 S 
BRANCH  22  25
ATOM     25  C   UNL     1       3.871  -6.785   4.521  0.00  0.00    +0.012 C 
ATOM     26  C   UNL     1       3.270  -8.144   4.156  0.00  0.00    +0.016 C 
ATOM     27  C   UNL     1       4.397  -9.134   3.852  0.00  0.00    -0.010 C 
ATOM     28  C   UNL     1       5.288  -9.286   5.087  0.00  0.00    +0.007 C 
ATOM     29  C   UNL     1       5.889  -7.927   5.452  0.00  0.00    -0.010 C 
ATOM     30  C   UNL     1       4.762  -6.937   5.755  0.00  0.00    +0.016 C 
ATOM     31  C   UNL     1       6.724  -7.406   4.281  0.00  0.00    +0.007 C 
ATOM     32  C   UNL     1       5.832  -7.254   3.047  0.00  0.00    -0.010 C 
ATOM     33  C   UNL     1       5.232  -8.613   2.681  0.00  0.00    +0.007 C 
ATOM     34  C   UNL     1       4.706  -6.264   3.350  0.00  0.00    +0.016 C 
ENDBRANCH  22  25
ENDBRANCH   1  18
TORSDOF 5
