REMARK  Name = ZINC04293412
REMARK  7 active torsions:
REMARK  status: ('A' for Active; 'I' for Inactive)
REMARK    1  A    between atoms: C_4  and  C_7
REMARK    2  A    between atoms: C_8  and  C_9
REMARK    3  A    between atoms: C_8  and  C_11
REMARK    4  A    between atoms: N_13  and  N_14
REMARK    5  A    between atoms: C_15  and  C_16
REMARK    6  A    between atoms: C_15  and  C_22
REMARK    7  A    between atoms: C_25  and  N_28
REMARK                            x       y       z     vdW  Elec       q    Type
REMARK                         _______ _______ _______ _____ _____    ______ ____
ROOT
ATOM      1  N   UNL     1      -2.596   1.591  -0.172  0.00  0.00    -0.179 NA
ATOM      2  C   UNL     1      -1.400   2.112  -0.093  0.00  0.00    +0.096 C 
ENDROOT
BRANCH   2   3
ATOM      3  C   UNL     1      -1.184   3.530  -0.457  0.00  0.00    +0.002 A 
ATOM      4  C   UNL     1       0.076   4.109  -0.304  0.00  0.00    +0.010 A 
ATOM      5  C   UNL     1       0.272   5.430  -0.651  0.00  0.00    +0.001 A 
ATOM      6  C   UNL     1      -0.780   6.184  -1.138  0.00  0.00    +0.000 A 
ATOM      7  C   UNL     1      -2.034   5.617  -1.286  0.00  0.00    +0.001 A 
ATOM      8  C   UNL     1      -2.242   4.296  -0.948  0.00  0.00    +0.010 A 
ENDBRANCH   2   3
BRANCH   2   9
ATOM      9  C   UNL     1      -0.261   1.283   0.361  0.00  0.00    +0.003 A 
ATOM     10  C   UNL     1      -0.416   0.413   1.442  0.00  0.00    +0.012 A 
ATOM     11  C   UNL     1       0.648  -0.354   1.865  0.00  0.00    +0.025 A 
ATOM     12  C   UNL     1       1.875  -0.261   1.217  0.00  0.00    +0.051 A 
ATOM     13  C   UNL     1       2.032   0.605   0.141  0.00  0.00    +0.025 A 
ATOM     14  C   UNL     1       0.972   1.374  -0.287  0.00  0.00    +0.012 A 
BRANCH  12  15
ATOM     15  N   UNL     1       2.950  -1.039   1.648  0.00  0.00    -0.207 N 
ATOM     16  C   UNL     1       3.026  -1.528   3.033  0.00  0.00    +0.131 C 
ATOM     17  C   UNL     1       3.132  -3.051   3.030  0.00  0.00    +0.022 C 
ATOM     18  C   UNL     1       4.438  -3.500   2.378  0.00  0.00    +0.026 C 
ATOM     19  C   UNL     1       4.382  -3.234   0.869  0.00  0.00    +0.189 C 
ATOM     20  S   UNL     1       4.184  -1.448   0.609  0.00  0.00    +0.045 S 
ATOM     21  O   UNL     1       3.672  -1.192  -0.691  0.00  0.00    -0.155 OA
ATOM     22  O   UNL     1       5.323  -0.751   1.096  0.00  0.00    -0.155 OA
ENDBRANCH  12  15
ENDBRANCH   2   9
BRANCH   1  25
ATOM     23  C   UNL     1      -4.016  -0.311  -0.001  0.00  0.00    +0.274 C 
ATOM     24  O   UNL     1      -4.978   0.404  -0.213  0.00  0.00    -0.268 OA
ATOM     25  N   UNL     1      -2.777   0.217   0.035  0.00  0.00    -0.202 N 
ATOM     26  H   UNL     1      -2.011  -0.353   0.204  0.00  0.00    +0.178 HD
BRANCH  23  28
ATOM     27  C   UNL     1      -5.463  -2.291   0.180  0.00  0.00    +0.032 C 
ATOM     28  C   UNL     1      -4.207  -1.755   0.217  0.00  0.00    +0.115 C 
BRANCH  27  32
ATOM     29  C   UNL     1      -5.979  -6.493   0.370  0.00  0.00    +0.000 A 
ATOM     30  C   UNL     1      -6.929  -5.657   0.932  0.00  0.00    +0.001 A 
ATOM     31  C   UNL     1      -6.769  -4.289   0.875  0.00  0.00    +0.008 A 
ATOM     32  C   UNL     1      -5.642  -3.746   0.246  0.00  0.00    -0.024 A 
ATOM     33  C   UNL     1      -4.689  -4.599  -0.325  0.00  0.00    +0.008 A 
ATOM     34  C   UNL     1      -4.862  -5.965  -0.254  0.00  0.00    +0.001 A 
ENDBRANCH  27  32
BRANCH  28  35
ATOM     35  C   UNL     1      -3.076  -2.597   0.466  0.00  0.00    +0.104 C 
ATOM     36  N   UNL     1      -2.179  -3.265   0.664  0.00  0.00    -0.191 NA
ENDBRANCH  28  35
ENDBRANCH  23  28
ENDBRANCH   1  25
TORSDOF 7
