REMARK  Name = ZINC40032180
REMARK  7 active torsions:
REMARK  status: ('A' for Active; 'I' for Inactive)
REMARK    1  A    between atoms: C_1  and  C_2
REMARK    2  A    between atoms: C_2  and  C_34
REMARK    3  A    between atoms: N_14  and  C_28
REMARK    4  A    between atoms: C_15  and  S_17
REMARK    5  A    between atoms: S_17  and  C_18
REMARK    6  A    between atoms: C_18  and  C_19
REMARK    7  A    between atoms: N_21  and  C_22
REMARK                            x       y       z     vdW  Elec       q    Type
REMARK                         _______ _______ _______ _____ _____    ______ ____
ROOT
ATOM      1  C   UNL     1       0.344   0.561  -0.368  0.00  0.00    +0.016 C 
ATOM      2  C   UNL     1       0.100  -0.920  -0.068  0.00  0.00    +0.001 C 
ATOM      3  C   UNL     1      -1.396  -1.153   0.129  0.00  0.00    +0.047 C 
ATOM      4  C   UNL     1      -1.868  -0.512   1.405  0.00  0.00    -0.037 A 
ATOM      5  C   UNL     1      -3.123   0.057   1.480  0.00  0.00    +0.004 A 
ATOM      6  C   UNL     1      -3.550   0.640   2.660  0.00  0.00    +0.000 A 
ATOM      7  C   UNL     1      -2.726   0.659   3.771  0.00  0.00    +0.001 A 
ATOM      8  C   UNL     1      -1.467   0.096   3.708  0.00  0.00    +0.010 A 
ATOM      9  C   UNL     1      -1.033  -0.491   2.524  0.00  0.00    +0.004 A 
ATOM     10  C   UNL     1       0.315  -1.095   2.423  0.00  0.00    +0.083 A 
ATOM     11  C   UNL     1       0.863  -1.307   1.166  0.00  0.00    +0.049 A 
ATOM     12  C   UNL     1       2.135  -1.886   1.073  0.00  0.00    +0.263 A 
ATOM     13  O   UNL     1       2.648  -2.090  -0.016  0.00  0.00    -0.267 OA
ATOM     14  N   UNL     1       2.781  -2.214   2.212  0.00  0.00    -0.256 N 
ATOM     15  C   UNL     1       2.200  -1.979   3.424  0.00  0.00    +0.177 A 
ATOM     16  N   UNL     1       1.003  -1.435   3.518  0.00  0.00    -0.222 NA
ATOM     17  C   UNL     1       0.589  -1.761  -1.249  0.00  0.00    +0.016 C 
ENDROOT
BRANCH  14  18
ATOM     18  C   UNL     1       4.053  -2.798   2.149  0.00  0.00    +0.052 A 
ATOM     19  C   UNL     1       4.191  -4.177   2.248  0.00  0.00    +0.026 A 
ATOM     20  C   UNL     1       5.446  -4.750   2.186  0.00  0.00    +0.002 A 
ATOM     21  C   UNL     1       6.564  -3.952   2.026  0.00  0.00    +0.000 A 
ATOM     22  C   UNL     1       6.430  -2.579   1.927  0.00  0.00    +0.002 A 
ATOM     23  C   UNL     1       5.177  -2.001   1.983  0.00  0.00    +0.026 A 
ENDBRANCH  14  18
BRANCH  15  24
ATOM     24  S   UNL     1       3.068  -2.412   4.895  0.00  0.00    -0.078 S 
BRANCH  24  25
ATOM     25  C   UNL     1       1.939  -1.929   6.229  0.00  0.00    +0.173 C 
BRANCH  25  26
ATOM     26  C   UNL     1       2.568  -2.250   7.561  0.00  0.00    +0.227 C 
ATOM     27  O   UNL     1       3.671  -2.754   7.605  0.00  0.00    -0.275 OA
ATOM     28  N   UNL     1       1.907  -1.976   8.702  0.00  0.00    -0.285 N 
ATOM     29  H   UNL     1       0.996  -1.644   8.667  0.00  0.00    +0.155 HD
BRANCH  28  30
ATOM     30  C   UNL     1       2.533  -2.170   9.938  0.00  0.00    +0.033 A 
ATOM     31  C   UNL     1       1.779  -2.493  11.058  0.00  0.00    +0.023 A 
ATOM     32  C   UNL     1       2.400  -2.683  12.277  0.00  0.00    +0.002 A 
ATOM     33  C   UNL     1       3.773  -2.553  12.382  0.00  0.00    +0.000 A 
ATOM     34  C   UNL     1       4.527  -2.231  11.268  0.00  0.00    +0.002 A 
ATOM     35  C   UNL     1       3.912  -2.045  10.046  0.00  0.00    +0.023 A 
ENDBRANCH  28  30
ENDBRANCH  25  26
ENDBRANCH  24  25
ENDBRANCH  15  24
TORSDOF 5
