REMARK  Name = ZINC36255147
REMARK  6 active torsions:
REMARK  status: ('A' for Active; 'I' for Inactive)
REMARK    1  A    between atoms: C_4  and  C_7
REMARK    2  A    between atoms: C_7  and  N_8
REMARK    3  A    between atoms: C_9  and  C_11
REMARK    4  A    between atoms: C_11  and  C_13
REMARK    5  A    between atoms: C_11  and  N_18
REMARK    6  A    between atoms: C_24  and  C_26
REMARK                            x       y       z     vdW  Elec       q    Type
REMARK                         _______ _______ _______ _____ _____    ______ ____
ROOT
ATOM      1  C   UNL     1       3.954  -4.043  -3.328  0.00  0.00    +0.146 C 
ENDROOT
BRANCH   1   2
ATOM      2  N   UNL     1       4.878  -4.538  -4.356  0.00  0.00    -0.288 NA
ATOM      3  C   UNL     1       4.451  -4.115  -5.697  0.00  0.00    +0.104 C 
ATOM      4  C   UNL     1       5.331  -4.798  -6.749  0.00  0.00    +0.123 C 
ATOM      5  N   UNL     1       6.740  -4.524  -6.429  0.00  0.00    -0.299 N 
ATOM      6  C   UNL     1       7.209  -4.795  -5.062  0.00  0.00    +0.123 C 
ATOM      7  C   UNL     1       6.255  -4.112  -4.076  0.00  0.00    +0.104 C 
ATOM      8  C   UNL     1       7.580  -4.037  -7.365  0.00  0.00    +0.219 C 
ATOM      9  O   UNL     1       7.176  -3.820  -8.488  0.00  0.00    -0.275 OA
BRANCH   8  10
ATOM     10  C   UNL     1       9.020  -3.764  -7.016  0.00  0.00    +0.075 C 
ATOM     11  C   UNL     1       9.755  -5.083  -6.674  0.00  0.00    +0.013 C 
ATOM     12  C   UNL     1      11.238  -4.729  -6.946  0.00  0.00    +0.001 C 
ATOM     13  C   UNL     1      11.188  -3.829  -8.198  0.00  0.00    +0.001 C 
ATOM     14  C   UNL     1       9.778  -3.215  -8.242  0.00  0.00    +0.013 C 
ENDBRANCH   8  10
ENDBRANCH   1   2
BRANCH   1  15
ATOM     15  C   UNL     1       2.522  -4.436  -3.697  0.00  0.00    +0.015 C 
ATOM     16  C   UNL     1       1.554  -4.025  -2.568  0.00  0.00    +0.005 C 
ATOM     17  C   UNL     1       0.516  -5.174  -2.521  0.00  0.00    +0.000 C 
ATOM     18  C   UNL     1       1.384  -6.430  -2.783  0.00  0.00    +0.000 C 
ATOM     19  C   UNL     1       2.414  -5.965  -3.833  0.00  0.00    +0.005 C 
ENDBRANCH   1  15
BRANCH   1  21
ATOM     20  N   UNL     1       3.762  -1.910  -2.088  0.00  0.00    -0.314 N 
ATOM     21  C   UNL     1       4.056  -2.541  -3.243  0.00  0.00    +0.231 C 
ATOM     22  O   UNL     1       4.402  -1.901  -4.213  0.00  0.00    -0.274 OA
ATOM     23  H   UNL     1       3.553  -2.426  -1.294  0.00  0.00    +0.149 HD
BRANCH  20  24
ATOM     24  C   UNL     1       3.760  -0.447  -2.034  0.00  0.00    +0.107 C 
BRANCH  24  28
ATOM     25  C   UNL     1       2.002   1.571   1.367  0.00  0.00    +0.000 C 
ATOM     26  C   UNL     1       3.407   1.989   0.928  0.00  0.00    +0.000 C 
ATOM     27  C   UNL     1       3.648   1.532  -0.513  0.00  0.00    +0.005 C 
ATOM     28  C   UNL     1       3.519   0.010  -0.594  0.00  0.00    +0.006 C 
ATOM     29  C   UNL     1       2.115  -0.408  -0.154  0.00  0.00    +0.005 C 
ATOM     30  C   UNL     1       1.874   0.049   1.286  0.00  0.00    +0.000 C 
ENDBRANCH  24  28
ENDBRANCH  20  24
ENDBRANCH   1  21
TORSDOF 6
