REMARK  Name = ZINC40054992
REMARK  10 active torsions:
REMARK  status: ('A' for Active; 'I' for Inactive)
REMARK    1  A    between atoms: C_3  and  C_16
REMARK    2  A    between atoms: C_5  and  O_7
REMARK    3  A    between atoms: O_7  and  C_8
REMARK    4  A    between atoms: C_8  and  C_9
REMARK    5  A    between atoms: C_16  and  C_18
REMARK    6  A    between atoms: N_22  and  C_32
REMARK    7  A    between atoms: C_23  and  C_25
REMARK    8  A    between atoms: C_32  and  C_33
REMARK    9  A    between atoms: C_33  and  C_34
REMARK   10  A    between atoms: C_34  and  O_35
REMARK                            x       y       z     vdW  Elec       q    Type
REMARK                         _______ _______ _______ _____ _____    ______ ____
ROOT
ATOM      1  C   UNL     1       3.749   3.652  -0.056  0.00  0.00    +0.076 C 
ATOM      2  C   UNL     1       4.860   4.420  -0.150  0.00  0.00    +0.249 C 
ATOM      3  C   UNL     1       4.465   5.844  -0.186  0.00  0.00    +0.288 C 
ATOM      4  O   UNL     1       5.236   6.779  -0.269  0.00  0.00    -0.266 OA
ATOM      5  N   UNL     1       3.126   5.951  -0.115  0.00  0.00    -0.283 N 
ATOM      6  C   UNL     1       2.568   4.595  -0.034  0.00  0.00    +0.145 C 
ATOM      7  O   UNL     1       6.130   3.957  -0.202  0.00  0.00    -0.282 OA
ENDROOT
BRANCH   6   8
ATOM      8  C   UNL     1       1.798   4.431   1.250  0.00  0.00    -0.022 A 
ATOM      9  C   UNL     1       2.218   5.080   2.396  0.00  0.00    +0.008 A 
ATOM     10  C   UNL     1       1.511   4.931   3.574  0.00  0.00    +0.038 A 
ATOM     11  C   UNL     1       0.382   4.130   3.607  0.00  0.00    +0.123 A 
ATOM     12  C   UNL     1      -0.038   3.481   2.458  0.00  0.00    +0.038 A 
ATOM     13  C   UNL     1       0.667   3.636   1.280  0.00  0.00    +0.008 A 
ATOM     14  F   UNL     1      -0.309   3.983   4.758  0.00  0.00    -0.205 F 
ENDBRANCH   6   8
BRANCH   1  15
ATOM     15  C   UNL     1       3.700   2.189   0.007  0.00  0.00    +0.195 C 
ATOM     16  O   UNL     1       4.145   1.606   0.978  0.00  0.00    -0.287 OA
BRANCH  15  19
ATOM     17  C   UNL     1       1.976   1.367  -3.229  0.00  0.00    +0.004 A 
ATOM     18  C   UNL     1       2.526   2.088  -2.189  0.00  0.00    +0.012 A 
ATOM     19  C   UNL     1       3.109   1.420  -1.110  0.00  0.00    +0.026 A 
ATOM     20  C   UNL     1       3.134   0.025  -1.090  0.00  0.00    +0.057 A 
ATOM     21  C   UNL     1       2.580  -0.688  -2.140  0.00  0.00    +0.122 A 
ATOM     22  C   UNL     1       2.002  -0.015  -3.208  0.00  0.00    +0.046 A 
BRANCH  21  23
ATOM     23  O   UNL     1       2.602  -2.047  -2.125  0.00  0.00    -0.487 OA
BRANCH  23  24
ATOM     24  C   UNL     1       2.012  -2.717  -3.240  0.00  0.00    +0.264 C 
BRANCH  24  25
ATOM     25  C   UNL     1       2.130  -4.208  -3.049  0.00  0.00    -0.010 A 
ATOM     26  C   UNL     1       3.242  -4.879  -3.522  0.00  0.00    +0.010 A 
ATOM     27  C   UNL     1       3.352  -6.245  -3.348  0.00  0.00    +0.039 A 
ATOM     28  C   UNL     1       2.346  -6.942  -2.699  0.00  0.00    +0.123 A 
ATOM     29  C   UNL     1       1.233  -6.269  -2.226  0.00  0.00    +0.039 A 
ATOM     30  C   UNL     1       1.128  -4.902  -2.397  0.00  0.00    +0.010 A 
ATOM     31  F   UNL     1       2.452  -8.278  -2.528  0.00  0.00    -0.205 F 
ENDBRANCH  24  25
ENDBRANCH  23  24
ENDBRANCH  21  23
ENDBRANCH  15  19
ENDBRANCH   1  15
BRANCH   5  32
ATOM     32  C   UNL     1       2.359   7.199  -0.122  0.00  0.00    +0.111 C 
BRANCH  32  33
ATOM     33  C   UNL     1       2.010   7.574  -1.564  0.00  0.00    +0.047 C 
BRANCH  33  34
ATOM     34  C   UNL     1       1.210   8.878  -1.572  0.00  0.00    +0.157 C 
BRANCH  34  35
ATOM     35  O   UNL     1       0.884   9.229  -2.919  0.00  0.00    -0.395 OA
ATOM     36  H   UNL     1       0.375  10.047  -3.000  0.00  0.00    +0.209 HD
ENDBRANCH  34  35
ENDBRANCH  33  34
ENDBRANCH  32  33
ENDBRANCH   5  32
TORSDOF 10
