REMARK  Name = ZINC14478423
REMARK  6 active torsions:
REMARK  status: ('A' for Active; 'I' for Inactive)
REMARK    1  A    between atoms: C_1  and  C_2
REMARK    2  A    between atoms: C_2  and  N_3
REMARK    3  A    between atoms: N_3  and  C_4
REMARK    4  A    between atoms: C_10  and  C_12
REMARK    5  A    between atoms: C_25  and  C_28
REMARK    6  A    between atoms: C_33  and  N_34
REMARK                            x       y       z     vdW  Elec       q    Type
REMARK                         _______ _______ _______ _____ _____    ______ ____
ROOT
ATOM      1  C   UNL     1      -7.902   2.156  -0.942  0.00  0.00    +0.038 A 
ATOM      2  C   UNL     1      -7.295   2.103   0.316  0.00  0.00    +0.015 A 
ATOM      3  C   UNL     1      -5.934   1.943   0.417  0.00  0.00    +0.024 A 
ATOM      4  C   UNL     1      -5.147   1.833  -0.728  0.00  0.00    +0.031 A 
ATOM      5  C   UNL     1      -5.756   1.897  -1.990  0.00  0.00    -0.019 A 
ATOM      6  C   UNL     1      -7.116   2.052  -2.094  0.00  0.00    +0.019 A 
ATOM      7  C   UNL     1      -4.878   1.795  -3.177  0.00  0.00    +0.049 C 
ATOM      8  C   UNL     1      -5.377   1.286  -4.480  0.00  0.00    -0.023 C 
ATOM      9  C   UNL     1      -4.380   0.674  -5.106  0.00  0.00    -0.030 C 
ATOM     10  C   UNL     1      -3.121   0.699  -4.236  0.00  0.00    +0.033 C 
ATOM     11  C   UNL     1      -3.722   0.809  -2.829  0.00  0.00    +0.029 C 
ATOM     12  C   UNL     1      -2.893   1.516  -1.772  0.00  0.00    +0.107 C 
ATOM     13  N   UNL     1      -3.773   1.638  -0.590  0.00  0.00    -0.336 N 
ATOM     14  H   UNL     1      -3.388   1.581   0.298  0.00  0.00    +0.147 HD
ENDROOT
BRANCH  12  15
ATOM     15  C   UNL     1      -1.675   0.695  -1.432  0.00  0.00    +0.003 A 
ATOM     16  C   UNL     1      -1.653  -0.658  -1.713  0.00  0.00    +0.008 A 
ATOM     17  C   UNL     1      -0.538  -1.412  -1.396  0.00  0.00    +0.000 A 
ATOM     18  C   UNL     1       0.558  -0.810  -0.806  0.00  0.00    +0.002 A 
ATOM     19  C   UNL     1       0.538   0.544  -0.530  0.00  0.00    +0.033 A 
ATOM     20  C   UNL     1      -0.579   1.297  -0.843  0.00  0.00    +0.131 A 
BRANCH  20  21
ATOM     21  N   UNL     1      -0.601   2.747  -0.547  0.00  0.00    +0.057 N 
ATOM     22  O   UNL     1       0.315   3.256   0.074  0.00  0.00    -0.126 OA
ATOM     23  O   UNL     1      -1.535   3.432  -0.924  0.00  0.00    -0.126 OA
ENDBRANCH  20  21
ENDBRANCH  12  15
BRANCH   1  25
ATOM     24  N   UNL     1     -10.167   1.897  -0.059  0.00  0.00    -0.268 N 
ATOM     25  C   UNL     1      -9.363   2.321  -1.054  0.00  0.00    +0.251 C 
ATOM     26  O   UNL     1      -9.842   2.840  -2.045  0.00  0.00    -0.270 OA
BRANCH  24  27
ATOM     27  C   UNL     1     -11.543   2.141  -0.120  0.00  0.00    +0.037 A 
ATOM     28  C   UNL     1     -12.392   1.582   0.826  0.00  0.00    +0.023 A 
ATOM     29  C   UNL     1     -13.749   1.830   0.767  0.00  0.00    +0.002 A 
ATOM     30  C   UNL     1     -14.265   2.624  -0.241  0.00  0.00    +0.000 A 
ATOM     31  C   UNL     1     -13.423   3.178  -1.188  0.00  0.00    +0.002 A 
ATOM     32  C   UNL     1     -12.064   2.939  -1.131  0.00  0.00    +0.023 A 
ENDBRANCH  24  27
BRANCH  24  34
ATOM     33  C   UNL     1      -9.630   2.086   2.319  0.00  0.00    +0.025 C 
ATOM     34  C   UNL     1      -9.600   1.181   1.086  0.00  0.00    +0.110 C 
ENDBRANCH  24  34
ENDBRANCH   1  25
TORSDOF 5
