REMARK  Name = ZINC08876205
REMARK  7 active torsions:
REMARK  status: ('A' for Active; 'I' for Inactive)
REMARK    1  A    between atoms: C_1  and  C_2
REMARK    2  A    between atoms: C_2  and  N_58
REMARK    3  A    between atoms: C_15  and  C_17
REMARK    4  A    between atoms: C_18  and  O_34
REMARK    5  A    between atoms: N_23  and  C_26
REMARK    6  A    between atoms: C_30  and  C_33
REMARK    7  A    between atoms: C_31  and  C_32
REMARK                            x       y       z     vdW  Elec       q    Type
REMARK                         _______ _______ _______ _____ _____    ______ ____
ROOT
ATOM      1  C   UNL     1      -1.452   3.515  -2.458  0.00  0.00    +0.069 A 
ATOM      2  C   UNL     1      -0.945   4.205  -3.519  0.00  0.00    +0.201 A 
ATOM      3  N   UNL     1      -1.791   4.639  -4.508  0.00  0.00    -0.278 N 
ATOM      4  H   UNL     1      -1.435   5.128  -5.266  0.00  0.00    +0.173 HD
ATOM      5  C   UNL     1      -3.112   4.399  -4.429  0.00  0.00    +0.337 A 
ATOM      6  O   UNL     1      -3.847   4.796  -5.312  0.00  0.00    -0.246 OA
ATOM      7  N   UNL     1      -3.632   3.724  -3.387  0.00  0.00    -0.229 N 
ATOM      8  C   UNL     1      -2.835   3.275  -2.397  0.00  0.00    +0.267 A 
ATOM      9  O   UNL     1      -3.312   2.664  -1.456  0.00  0.00    -0.267 OA
ENDROOT
BRANCH   1  22
ATOM     10  C   UNL     1      -0.013   1.086   0.008  0.00  0.00    -0.073 C 
ATOM     11  C   UNL     1      -0.731   1.581   1.271  0.00  0.00    +0.019 C 
ATOM     12  C   UNL     1      -0.975   3.061   1.117  0.00  0.00    -0.022 A 
ATOM     13  C   UNL     1      -1.325   4.041   2.121  0.00  0.00    +0.003 A 
ATOM     14  C   UNL     1      -1.547   3.953   3.499  0.00  0.00    +0.010 A 
ATOM     15  C   UNL     1      -1.869   5.117   4.152  0.00  0.00    +0.001 A 
ATOM     16  C   UNL     1      -1.972   6.329   3.489  0.00  0.00    +0.002 A 
ATOM     17  C   UNL     1      -1.758   6.445   2.127  0.00  0.00    +0.026 A 
ATOM     18  C   UNL     1      -1.430   5.280   1.437  0.00  0.00    +0.047 A 
ATOM     19  N   UNL     1      -1.160   5.042   0.119  0.00  0.00    -0.359 N 
ATOM     20  H   UNL     1      -1.161   5.713  -0.581  0.00  0.00    +0.166 HD
ATOM     21  C   UNL     1      -0.890   3.713  -0.065  0.00  0.00    +0.011 A 
ATOM     22  C   UNL     1      -0.542   3.022  -1.362  0.00  0.00    +0.021 C 
ATOM     23  N   UNL     1      -0.755   1.567  -1.179  0.00  0.00    +0.388 N 
ATOM     24  H   UNL     1      -1.757   1.392  -1.038  0.00  0.00    -0.080 HD
BRANCH  23  26
ATOM     25  C   UNL     1      -0.748  -0.623  -2.267  0.00  0.00    -0.017 C 
ATOM     26  C   UNL     1      -0.306   0.837  -2.383  0.00  0.00    -0.081 C 
ENDBRANCH  23  26
ENDBRANCH   1  22
BRANCH   7  27
ATOM     27  C   UNL     1      -5.012   3.486  -3.331  0.00  0.00    +0.058 A 
ATOM     28  C   UNL     1      -5.850   4.399  -2.705  0.00  0.00    +0.027 A 
ATOM     29  C   UNL     1      -7.210   4.166  -2.657  0.00  0.00    +0.002 A 
ATOM     30  C   UNL     1      -7.737   3.017  -3.221  0.00  0.00    +0.004 A 
ATOM     31  C   UNL     1      -6.904   2.104  -3.840  0.00  0.00    -0.046 A 
ATOM     32  C   UNL     1      -5.543   2.335  -3.896  0.00  0.00    -0.023 A 
ATOM     33  C   UNL     1      -4.636   1.339  -4.572  0.00  0.00    +0.046 C 
ATOM     34  C   UNL     1      -7.481   0.854  -4.454  0.00  0.00    +0.044 C 
ENDBRANCH   7  27
BRANCH   2  35
ATOM     35  O   UNL     1       0.380   4.454  -3.599  0.00  0.00    -0.493 OA
ATOM     36  H   UNL     1       0.640   4.949  -4.388  0.00  0.00    +0.294 HD
ENDBRANCH   2  35
TORSDOF 4
