REMARK  Name = ZINC21964929
REMARK  13 active torsions:
REMARK  status: ('A' for Active; 'I' for Inactive)
REMARK    1  A    between atoms: C_1  and  C_2
REMARK    2  A    between atoms: C_2  and  C_3
REMARK    3  A    between atoms: C_2  and  N_4
REMARK    4  A    between atoms: N_4  and  C_5
REMARK    5  A    between atoms: N_4  and  C_31
REMARK    6  A    between atoms: C_5  and  C_6
REMARK    7  A    between atoms: C_6  and  N_7
REMARK    8  A    between atoms: C_17  and  S_18
REMARK    9  A    between atoms: S_18  and  C_19
REMARK   10  A    between atoms: C_19  and  C_20
REMARK   11  A    between atoms: N_22  and  C_23
REMARK   12  A    between atoms: C_31  and  C_32
REMARK   13  A    between atoms: C_31  and  C_33
REMARK                            x       y       z     vdW  Elec       q    Type
REMARK                         _______ _______ _______ _____ _____    ______ ____
ROOT
ATOM      1  N   UNL     1      -0.917   1.163  -6.208  0.00  0.00    -0.289 N 
ATOM      2  C   UNL     1      -0.088   1.395  -7.252  0.00  0.00    +0.262 A 
ATOM      3  O   UNL     1      -0.104   2.456  -7.848  0.00  0.00    -0.267 OA
ATOM      4  C   UNL     1       0.829   0.315  -7.642  0.00  0.00    +0.065 A 
ATOM      5  C   UNL     1       1.718   0.452  -8.707  0.00  0.00    +0.015 A 
ATOM      6  C   UNL     1       2.550  -0.585  -9.028  0.00  0.00    +0.001 A 
ATOM      7  C   UNL     1       2.518  -1.770  -8.305  0.00  0.00    +0.002 A 
ATOM      8  C   UNL     1       1.656  -1.932  -7.258  0.00  0.00    +0.028 A 
ATOM      9  C   UNL     1       0.793  -0.891  -6.905  0.00  0.00    +0.079 A 
ATOM     10  N   UNL     1      -0.073  -1.008  -5.878  0.00  0.00    -0.223 NA
ATOM     11  C   UNL     1      -0.882  -0.032  -5.547  0.00  0.00    +0.173 A 
ENDROOT
BRANCH   1  12
ATOM     12  C   UNL     1      -1.856   2.204  -5.779  0.00  0.00    +0.109 C 
BRANCH  12  13
ATOM     13  C   UNL     1      -1.147   3.170  -4.829  0.00  0.00    -0.056 C 
BRANCH  13  14
ATOM     14  N   UNL     1      -2.042   4.290  -4.511  0.00  0.00    +0.384 N 
ATOM     15  H   UNL     1      -2.539   4.600  -5.443  0.00  0.00    -0.081 HD
BRANCH  14  17
ATOM     16  C   UNL     1      -4.294   3.347  -4.327  0.00  0.00    -0.014 C 
ATOM     17  C   UNL     1      -3.083   3.880  -3.560  0.00  0.00    -0.074 C 
ATOM     18  C   UNL     1      -2.534   2.781  -2.647  0.00  0.00    -0.014 C 
ENDBRANCH  14  17
BRANCH  14  19
ATOM     19  C   UNL     1      -1.285   5.441  -4.000  0.00  0.00    -0.074 C 
ATOM     20  C   UNL     1      -2.189   6.675  -3.972  0.00  0.00    -0.014 C 
ATOM     21  C   UNL     1      -0.792   5.137  -2.583  0.00  0.00    -0.014 C 
ENDBRANCH  14  19
ENDBRANCH  13  14
ENDBRANCH  12  13
ENDBRANCH   1  12
BRANCH  11  22
ATOM     22  S   UNL     1      -1.980  -0.274  -4.190  0.00  0.00    -0.078 S 
BRANCH  22  23
ATOM     23  C   UNL     1      -1.526  -1.961  -3.717  0.00  0.00    +0.173 C 
BRANCH  23  24
ATOM     24  C   UNL     1      -2.362  -2.394  -2.540  0.00  0.00    +0.227 C 
ATOM     25  O   UNL     1      -3.184  -1.637  -2.068  0.00  0.00    -0.275 OA
ATOM     26  N   UNL     1      -2.197  -3.623  -2.012  0.00  0.00    -0.285 N 
ATOM     27  H   UNL     1      -1.393  -4.277  -2.381  0.00  0.00    +0.155 HD
BRANCH  26  28
ATOM     28  C   UNL     1      -3.050  -4.069  -0.995  0.00  0.00    +0.036 A 
ATOM     29  C   UNL     1      -2.571  -4.924  -0.011  0.00  0.00    +0.026 A 
ATOM     30  C   UNL     1      -3.412  -5.359   0.995  0.00  0.00    +0.043 A 
ATOM     31  C   UNL     1      -4.734  -4.951   1.019  0.00  0.00    +0.159 A 
ATOM     32  C   UNL     1      -5.217  -4.101   0.035  0.00  0.00    +0.160 A 
ATOM     33  C   UNL     1      -4.377  -3.660  -0.971  0.00  0.00    +0.064 A 
ATOM     34  F   UNL     1      -6.508  -3.704   0.059  0.00  0.00    -0.202 F 
ATOM     35  F   UNL     1      -5.556  -5.381   2.001  0.00  0.00    -0.202 F 
ENDBRANCH  26  28
ENDBRANCH  23  24
ENDBRANCH  22  23
ENDBRANCH  11  22
TORSDOF 9
