REMARK  Name = ZINC39487873
REMARK  8 active torsions:
REMARK  status: ('A' for Active; 'I' for Inactive)
REMARK    1  A    between atoms: C_1  and  C_2
REMARK    2  A    between atoms: C_2  and  C_29
REMARK    3  A    between atoms: N_4  and  O_28
REMARK    4  A    between atoms: N_7  and  C_8
REMARK    5  A    between atoms: C_8  and  C_9
REMARK    6  A    between atoms: C_9  and  C_22
REMARK    7  A    between atoms: N_12  and  C_15
REMARK    8  A    between atoms: C_15  and  C_16
REMARK                            x       y       z     vdW  Elec       q    Type
REMARK                         _______ _______ _______ _____ _____    ______ ____
ROOT
ATOM      1  C   UNL     1       2.233   0.577   2.509  0.00  0.00    -0.014 C 
ATOM      2  C   UNL     1       1.598   0.303   3.876  0.00  0.00    -0.010 C 
ATOM      3  C   UNL     1       0.155  -0.166   3.677  0.00  0.00    -0.078 C 
ATOM      4  N   UNL     1      -0.610   0.875   2.981  0.00  0.00    +0.382 N 
ATOM      5  C   UNL     1      -0.051   1.092   1.641  0.00  0.00    -0.078 C 
ATOM      6  C   UNL     1       1.384   1.610   1.761  0.00  0.00    -0.010 C 
ATOM      7  H   UNL     1      -0.563   1.735   3.507  0.00  0.00    -0.081 HD
ENDROOT
BRANCH   1   8
ATOM      8  C   UNL     1       3.650   1.121   2.700  0.00  0.00    -0.003 C 
ATOM      9  C   UNL     1       4.430   0.195   3.636  0.00  0.00    +0.004 C 
ATOM     10  C   UNL     1       5.847   0.739   3.827  0.00  0.00    +0.000 C 
ATOM     11  C   UNL     1       5.777   2.140   4.438  0.00  0.00    +0.000 C 
ATOM     12  C   UNL     1       4.997   3.066   3.503  0.00  0.00    +0.000 C 
ATOM     13  C   UNL     1       3.580   2.522   3.312  0.00  0.00    +0.004 C 
ENDBRANCH   1   8
BRANCH   1  14
ATOM     14  C   UNL     1       2.288  -0.721   1.701  0.00  0.00    +0.117 C 
BRANCH  14  21
ATOM     15  C   UNL     1       5.188  -0.066   0.625  0.00  0.00    +0.039 C 
ATOM     16  C   UNL     1       4.096  -0.775  -0.178  0.00  0.00    +0.079 C 
ATOM     17  C   UNL     1       4.066  -0.253  -1.628  0.00  0.00    +0.171 C 
ATOM     18  N   UNL     1       2.721   0.326  -1.766  0.00  0.00    -0.165 N 
ATOM     19  C   UNL     1       2.059   0.182  -0.611  0.00  0.00    +0.328 C 
ATOM     20  O   UNL     1       0.920   0.574  -0.446  0.00  0.00    -0.250 OA
ATOM     21  N   UNL     1       2.765  -0.434   0.346  0.00  0.00    -0.272 N 
BRANCH  16  22
ATOM     22  C   UNL     1       4.308  -2.267  -0.154  0.00  0.00    -0.023 A 
ATOM     23  C   UNL     1       3.325  -3.096   0.354  0.00  0.00    +0.006 A 
ATOM     24  C   UNL     1       3.519  -4.464   0.376  0.00  0.00    +0.000 A 
ATOM     25  C   UNL     1       4.696  -5.004  -0.109  0.00  0.00    +0.000 A 
ATOM     26  C   UNL     1       5.678  -4.174  -0.618  0.00  0.00    +0.000 A 
ATOM     27  C   UNL     1       5.482  -2.806  -0.645  0.00  0.00    +0.006 A 
ENDBRANCH  16  22
BRANCH  18  28
ATOM     28  O   UNL     1       2.208   0.940  -2.935  0.00  0.00    -0.291 OA
ATOM     29  H   UNL     1       1.303   1.265  -2.843  0.00  0.00    +0.242 HD
ENDBRANCH  18  28
ENDBRANCH  14  21
ENDBRANCH   1  14
BRANCH   4  30
ATOM     30  C   UNL     1      -2.012   0.454   2.862  0.00  0.00    -0.043 C 
BRANCH  30  31
ATOM     31  C   UNL     1      -2.829   1.581   2.285  0.00  0.00    -0.064 A 
ATOM     32  C   UNL     1      -3.415   2.510   3.125  0.00  0.00    +0.002 A 
ATOM     33  C   UNL     1      -4.164   3.544   2.596  0.00  0.00    +0.000 A 
ATOM     34  C   UNL     1      -4.327   3.650   1.228  0.00  0.00    +0.000 A 
ATOM     35  C   UNL     1      -3.740   2.722   0.388  0.00  0.00    +0.000 A 
ATOM     36  C   UNL     1      -2.987   1.690   0.916  0.00  0.00    +0.002 A 
ENDBRANCH  30  31
ENDBRANCH   4  30
TORSDOF 7
