REMARK  Name = ZINC04162498
REMARK  7 active torsions:
REMARK  status: ('A' for Active; 'I' for Inactive)
REMARK    1  A    between atoms: C_1  and  N_2
REMARK    2  A    between atoms: C_6  and  C_23
REMARK    3  A    between atoms: C_8  and  C_16
REMARK    4  A    between atoms: C_10  and  C_11
REMARK    5  A    between atoms: C_10  and  O_15
REMARK    6  A    between atoms: C_16  and  C_18
REMARK    7  A    between atoms: C_26  and  N_29
REMARK                            x       y       z     vdW  Elec       q    Type
REMARK                         _______ _______ _______ _____ _____    ______ ____
ROOT
ATOM      1  C   UNL     1      -0.018   1.461   0.010  0.00  0.00    +0.137 C 
ATOM      2  N   UNL     1       0.002  -0.004   0.002  0.00  0.00    -0.253 N 
ATOM      3  C   UNL     1       1.180  -0.645  -0.013  0.00  0.00    +0.305 C 
ATOM      4  O   UNL     1       2.203   0.013  -0.029  0.00  0.00    -0.253 OA
ATOM      5  N   UNL     1       1.275  -1.983  -0.009  0.00  0.00    -0.292 N 
ATOM      6  C   UNL     1       0.082  -2.831  -0.001  0.00  0.00    +0.120 C 
ATOM      7  C   UNL     1      -1.058  -2.089   0.705  0.00  0.00    +0.145 C 
ATOM      8  C   UNL     1      -1.264  -0.738   0.016  0.00  0.00    +0.245 C 
ATOM      9  H   UNL     1       2.152  -2.397  -0.012  0.00  0.00    +0.151 HD
ENDROOT
BRANCH   6  10
ATOM     10  C   UNL     1       0.380  -4.113   0.732  0.00  0.00    -0.026 A 
ATOM     11  C   UNL     1       1.153  -4.090   1.879  0.00  0.00    +0.008 A 
ATOM     12  C   UNL     1       1.422  -5.266   2.554  0.00  0.00    +0.033 A 
ATOM     13  C   UNL     1       0.928  -6.466   2.078  0.00  0.00    +0.126 A 
ATOM     14  C   UNL     1       0.160  -6.489   0.929  0.00  0.00    +0.033 A 
ATOM     15  C   UNL     1      -0.114  -5.313   0.256  0.00  0.00    +0.008 A 
BRANCH  13  16
ATOM     16  N   UNL     1       1.222  -7.725   2.797  0.00  0.00    +0.056 N 
ATOM     17  O   UNL     1       0.787  -8.783   2.377  0.00  0.00    -0.126 OA
ATOM     18  O   UNL     1       1.899  -7.705   3.810  0.00  0.00    -0.126 OA
ENDBRANCH  13  16
ENDBRANCH   6  10
BRANCH   8  19
ATOM     19  C   UNL     1      -1.737  -0.969  -1.420  0.00  0.00    +0.436 C 
ATOM     20  F   UNL     1      -0.776  -1.712  -2.114  0.00  0.00    -0.166 F 
ATOM     21  F   UNL     1      -2.947  -1.671  -1.405  0.00  0.00    -0.166 F 
ATOM     22  F   UNL     1      -1.921   0.264  -2.055  0.00  0.00    -0.166 F 
ENDBRANCH   8  19
BRANCH   8  23
ATOM     23  O   UNL     1      -2.246   0.017   0.728  0.00  0.00    -0.364 OA
ATOM     24  H   UNL     1      -2.426   0.887   0.347  0.00  0.00    +0.212 HD
ENDBRANCH   8  23
BRANCH   7  25
ATOM     25  C   UNL     1      -0.698  -1.868   2.152  0.00  0.00    +0.180 C 
ATOM     26  O   UNL     1      -0.191  -0.821   2.499  0.00  0.00    -0.291 OA
BRANCH  25  27
ATOM     27  C   UNL     1      -0.951  -2.880   3.104  0.00  0.00    +0.055 A 
ATOM     28  C   UNL     1      -0.694  -2.882   4.472  0.00  0.00    +0.019 A 
ATOM     29  C   UNL     1      -1.047  -4.006   5.170  0.00  0.00    +0.008 A 
ATOM     30  C   UNL     1      -1.611  -5.052   4.506  0.00  0.00    +0.046 A 
ATOM     31  S   UNL     1      -1.676  -4.493   2.867  0.00  0.00    -0.094 S 
ENDBRANCH  25  27
ENDBRANCH   7  25
TORSDOF 6
