REMARK  Name = ZINC22326184
REMARK  14 active torsions:
REMARK  status: ('A' for Active; 'I' for Inactive)
REMARK    1  A    between atoms: C_1  and  C_2
REMARK    2  A    between atoms: C_2  and  C_3
REMARK    3  A    between atoms: C_3  and  C_5
REMARK    4  A    between atoms: C_3  and  C_12
REMARK    5  A    between atoms: C_5  and  C_6
REMARK    6  A    between atoms: C_12  and  N_13
REMARK    7  A    between atoms: C_14  and  C_16
REMARK    8  A    between atoms: C_16  and  N_17
REMARK    9  A    between atoms: N_17  and  C_18
REMARK   10  A    between atoms: N_17  and  S_27
REMARK   11  A    between atoms: C_21  and  O_25
REMARK   12  A    between atoms: O_25  and  C_26
REMARK   13  A    between atoms: S_27  and  C_30
REMARK   14  A    between atoms: C_33  and  C_36
REMARK                            x       y       z     vdW  Elec       q    Type
REMARK                         _______ _______ _______ _____ _____    ______ ____
ROOT
ATOM      1  N   UNL     1      -7.277   7.704  -4.339  0.00  0.00    -0.194 N 
ENDROOT
BRANCH   1   2
ATOM      2  C   UNL     1      -8.547   7.120  -4.407  0.00  0.00    +0.053 A 
ATOM      3  C   UNL     1      -9.589   7.795  -5.030  0.00  0.00    +0.028 A 
ATOM      4  C   UNL     1     -10.841   7.216  -5.101  0.00  0.00    +0.049 A 
ATOM      5  C   UNL     1     -11.062   5.967  -4.540  0.00  0.00    +0.138 A 
ATOM      6  C   UNL     1     -10.023   5.295  -3.912  0.00  0.00    +0.084 A 
ATOM      7  C   UNL     1      -8.768   5.870  -3.845  0.00  0.00    +0.048 A 
ATOM      8 CL   UNL     1     -10.299   3.731  -3.211  0.00  0.00    -0.080 Cl
BRANCH   5   9
ATOM      9  O   UNL     1     -12.297   5.401  -4.606  0.00  0.00    -0.494 OA
ATOM     10  C   UNL     1     -13.319   6.149  -5.267  0.00  0.00    +0.277 C 
ENDBRANCH   5   9
ENDBRANCH   1   2
BRANCH   1  11
ATOM     11  S   UNL     1      -7.120   9.352  -4.374  0.00  0.00    +0.075 S 
ATOM     12  O   UNL     1      -8.374   9.888  -3.976  0.00  0.00    -0.150 OA
ATOM     13  O   UNL     1      -5.910   9.659  -3.696  0.00  0.00    -0.150 OA
BRANCH  11  14
ATOM     14  C   UNL     1      -6.885   9.817  -6.058  0.00  0.00    +0.109 A 
ATOM     15  C   UNL     1      -5.623   9.764  -6.620  0.00  0.00    +0.029 A 
ATOM     16  C   UNL     1      -5.440  10.125  -7.941  0.00  0.00    +0.005 A 
ATOM     17  C   UNL     1      -6.516  10.548  -8.698  0.00  0.00    -0.050 A 
ATOM     18  C   UNL     1      -7.777  10.605  -8.135  0.00  0.00    +0.005 A 
ATOM     19  C   UNL     1      -7.962  10.240  -6.814  0.00  0.00    +0.029 A 
ATOM     20  C   UNL     1      -6.316  10.945 -10.138  0.00  0.00    +0.044 C 
ENDBRANCH  11  14
ENDBRANCH   1  11
BRANCH   1  21
ATOM     21  C   UNL     1      -6.086   6.856  -4.237  0.00  0.00    +0.227 C 
BRANCH  21  23
ATOM     22  N   UNL     1      -4.794   5.727  -2.456  0.00  0.00    -0.314 N 
ATOM     23  C   UNL     1      -5.843   6.504  -2.793  0.00  0.00    +0.232 C 
ATOM     24  O   UNL     1      -6.590   6.920  -1.933  0.00  0.00    -0.274 OA
ATOM     25  H   UNL     1      -4.116   5.350  -3.236  0.00  0.00    +0.149 HD
BRANCH  22  26
ATOM     26  C   UNL     1      -4.557   5.384  -1.052  0.00  0.00    +0.108 C 
BRANCH  26  27
ATOM     27  C   UNL     1      -3.248   4.601  -0.932  0.00  0.00    +0.010 C 
BRANCH  27  29
ATOM     28  C   UNL     1      -4.594   2.504  -1.115  0.00  0.00    +0.004 C 
ATOM     29  C   UNL     1      -3.385   3.264  -1.663  0.00  0.00    +0.002 C 
ENDBRANCH  27  29
BRANCH  27  30
ATOM     30  C   UNL     1      -2.941   4.345   0.545  0.00  0.00    +0.040 C 
BRANCH  30  31
ATOM     31  C   UNL     1      -1.593   3.683   0.670  0.00  0.00    -0.047 A 
ATOM     32  C   UNL     1      -1.495   2.304   0.644  0.00  0.00    +0.003 A 
ATOM     33  C   UNL     1      -0.260   1.696   0.763  0.00  0.00    +0.000 A 
ATOM     34  C   UNL     1       0.880   2.467   0.898  0.00  0.00    +0.000 A 
ATOM     35  C   UNL     1       0.783   3.846   0.919  0.00  0.00    +0.000 A 
ATOM     36  C   UNL     1      -0.454   4.454   0.805  0.00  0.00    +0.003 A 
ENDBRANCH  30  31
ENDBRANCH  27  30
ENDBRANCH  26  27
ENDBRANCH  22  26
ENDBRANCH  21  23
ENDBRANCH   1  21
TORSDOF 11
