REMARK  Name = ZINC22798475
REMARK  7 active torsions:
REMARK  status: ('A' for Active; 'I' for Inactive)
REMARK    1  A    between atoms: C_1  and  C_2
REMARK    2  A    between atoms: C_2  and  N_3
REMARK    3  A    between atoms: N_6  and  C_9
REMARK    4  A    between atoms: C_9  and  C_11
REMARK    5  A    between atoms: C_9  and  C_18
REMARK    6  A    between atoms: C_19  and  O_31
REMARK    7  A    between atoms: C_24  and  C_26
REMARK                            x       y       z     vdW  Elec       q    Type
REMARK                         _______ _______ _______ _____ _____    ______ ____
ROOT
ATOM      1  C   UNL     1      -4.853  -2.639  -1.111  0.00  0.00    +0.129 C 
ENDROOT
BRANCH   1   2
ATOM      2  C   UNL     1      -5.563  -2.155   0.127  0.00  0.00    +0.076 A 
ATOM      3  C   UNL     1      -6.758  -1.564   0.237  0.00  0.00    +0.228 A 
ATOM      4  N   UNL     1      -7.245  -1.191   1.466  0.00  0.00    -0.173 N 
ATOM      5  C   UNL     1      -6.457  -1.450   2.554  0.00  0.00    +0.200 A 
ATOM      6  S   UNL     1      -5.033  -2.229   1.831  0.00  0.00    -0.047 S 
ATOM      7  N   UNL     1      -7.054  -1.041   3.638  0.00  0.00    -0.197 NA
ATOM      8  C   UNL     1      -8.239  -0.503   3.315  0.00  0.00    +0.218 A 
ATOM      9  N   UNL     1      -8.400  -0.571   2.011  0.00  0.00    -0.138 NA
BRANCH   8  10
ATOM     10  C   UNL     1      -9.208   0.073   4.270  0.00  0.00    +0.173 A 
ATOM     11  C   UNL     1      -9.049   0.153   5.618  0.00  0.00    +0.053 A 
ATOM     12  C   UNL     1     -10.209   0.769   6.128  0.00  0.00    +0.042 A 
ATOM     13  C   UNL     1     -11.011   1.032   5.077  0.00  0.00    +0.196 A 
ATOM     14  O   UNL     1     -10.401   0.615   3.956  0.00  0.00    -0.460 OA
ENDBRANCH   8  10
BRANCH   3  15
ATOM     15  O   UNL     1      -7.499  -1.329  -0.879  0.00  0.00    -0.492 OA
ATOM     16  H   UNL     1      -8.347  -0.899  -0.706  0.00  0.00    +0.294 HD
ENDBRANCH   3  15
ENDBRANCH   1   2
BRANCH   1  20
ATOM     17  N   UNL     1      -1.441  -0.449  -2.309  0.00  0.00    +0.381 N 
ATOM     18  C   UNL     1      -1.369  -1.916  -2.350  0.00  0.00    -0.063 C 
ATOM     19  C   UNL     1      -2.786  -2.496  -2.365  0.00  0.00    +0.067 C 
ATOM     20  N   UNL     1      -3.505  -2.056  -1.161  0.00  0.00    -0.295 NA
ATOM     21  C   UNL     1      -3.563  -0.589  -1.095  0.00  0.00    +0.067 C 
ATOM     22  C   UNL     1      -2.140  -0.025  -1.090  0.00  0.00    -0.063 C 
ATOM     23  H   UNL     1      -1.943  -0.115  -3.119  0.00  0.00    -0.082 HD
BRANCH  17  25
ATOM     24  C   UNL     1       0.605  -0.230  -3.638  0.00  0.00    -0.017 C 
ATOM     25  C   UNL     1      -0.081   0.107  -2.313  0.00  0.00    -0.082 C 
ENDBRANCH  17  25
ENDBRANCH   1  20
BRANCH   1  26
ATOM     26  C   UNL     1      -4.749  -4.141  -1.076  0.00  0.00    -0.024 A 
ATOM     27  C   UNL     1      -3.846  -4.752  -0.225  0.00  0.00    +0.005 A 
ATOM     28  C   UNL     1      -3.751  -6.131  -0.193  0.00  0.00    +0.001 A 
ATOM     29  C   UNL     1      -4.557  -6.899  -1.011  0.00  0.00    +0.015 A 
ATOM     30  C   UNL     1      -5.461  -6.289  -1.862  0.00  0.00    +0.018 A 
ATOM     31  C   UNL     1      -5.560  -4.909  -1.890  0.00  0.00    +0.020 A 
ATOM     32 BR   UNL     1      -6.564  -7.340  -2.982  0.00  0.00    -0.050 Br
ENDBRANCH   1  26
TORSDOF 6
