REMARK  Name = ZINC34703637
REMARK  17 active torsions:
REMARK  status: ('A' for Active; 'I' for Inactive)
REMARK    1  A    between atoms: C_1  and  C_2
REMARK    2  A    between atoms: C_5  and  C_7
REMARK    3  A    between atoms: C_7  and  N_8
REMARK    4  A    between atoms: N_8  and  C_9
REMARK    5  A    between atoms: C_9  and  C_10
REMARK    6  A    between atoms: C_10  and  C_11
REMARK    7  A    between atoms: C_14  and  O_19
REMARK    8  A    between atoms: C_15  and  O_17
REMARK    9  A    between atoms: O_17  and  C_18
REMARK   10  A    between atoms: O_19  and  C_20
REMARK   11  A    between atoms: C_21  and  C_23
REMARK   12  A    between atoms: C_23  and  N_24
REMARK   13  A    between atoms: N_24  and  C_25
REMARK   14  A    between atoms: N_33  and  C_34
REMARK   15  A    between atoms: C_34  and  C_35
REMARK   16  A    between atoms: C_34  and  C_36
REMARK   17  A    between atoms: C_34  and  C_37
REMARK                            x       y       z     vdW  Elec       q    Type
REMARK                         _______ _______ _______ _____ _____    ______ ____
ROOT
ATOM      1  N   UNL     1       1.285  -4.856  -1.311  0.00  0.00    -0.295 N 
ATOM      2  C   UNL     1       0.229  -5.333  -1.999  0.00  0.00    +0.233 C 
ATOM      3  O   UNL     1       0.345  -5.609  -3.174  0.00  0.00    -0.274 OA
ENDROOT
BRANCH   1   4
ATOM      4  C   UNL     1       1.145  -4.523   0.108  0.00  0.00    +0.150 C 
BRANCH   4   9
ATOM      5  C   UNL     1       0.539   1.083   0.649  0.00  0.00    +0.051 C 
ATOM      6  C   UNL     1       0.437  -0.413   0.505  0.00  0.00    -0.013 A 
ATOM      7  C   UNL     1      -0.671  -1.189   0.426  0.00  0.00    +0.011 A 
ATOM      8  C   UNL     1      -0.523  -2.557   0.293  0.00  0.00    +0.013 A 
ATOM      9  C   UNL     1       0.725  -3.082   0.247  0.00  0.00    +0.007 A 
ATOM     10  S   UNL     1       1.745  -1.623   0.385  0.00  0.00    -0.097 S 
ENDBRANCH   4   9
ENDBRANCH   1   4
BRANCH   1  11
ATOM     11  C   UNL     1       2.574  -4.672  -1.983  0.00  0.00    +0.113 C 
BRANCH  11  12
ATOM     12  C   UNL     1       3.400  -5.955  -1.863  0.00  0.00    +0.054 C 
BRANCH  12  13
ATOM     13  C   UNL     1       4.726  -5.765  -2.554  0.00  0.00    -0.042 A 
ATOM     14  C   UNL     1       4.855  -6.075  -3.895  0.00  0.00    +0.007 A 
ATOM     15  C   UNL     1       6.069  -5.903  -4.533  0.00  0.00    +0.049 A 
ATOM     16  C   UNL     1       7.160  -5.418  -3.829  0.00  0.00    +0.161 A 
ATOM     17  C   UNL     1       7.029  -5.106  -2.479  0.00  0.00    +0.162 A 
ATOM     18  C   UNL     1       5.808  -5.277  -1.846  0.00  0.00    +0.053 A 
BRANCH  17  19
ATOM     19  O   UNL     1       8.097  -4.630  -1.783  0.00  0.00    -0.491 OA
ATOM     20  C   UNL     1       7.889  -4.331  -0.402  0.00  0.00    +0.277 C 
ENDBRANCH  17  19
BRANCH  16  21
ATOM     21  O   UNL     1       8.355  -5.249  -4.455  0.00  0.00    -0.491 OA
ATOM     22  C   UNL     1       8.415  -5.591  -5.841  0.00  0.00    +0.277 C 
ENDBRANCH  16  21
ENDBRANCH  12  13
ENDBRANCH  11  12
ENDBRANCH   1  11
BRANCH   2  23
ATOM     23  C   UNL     1      -1.097  -5.522  -1.308  0.00  0.00    +0.205 C 
BRANCH  23  24
ATOM     24  N   UNL     1      -2.075  -6.047  -2.264  0.00  0.00    -0.274 N 
ATOM     25  C   UNL     1      -2.830  -5.199  -2.990  0.00  0.00    +0.303 C 
ATOM     26  O   UNL     1      -2.633  -4.001  -2.924  0.00  0.00    -0.253 OA
ATOM     27  N   UNL     1      -3.803  -5.679  -3.790  0.00  0.00    -0.294 N 
ATOM     28  H   UNL     1      -4.010  -6.626  -3.788  0.00  0.00    +0.151 HD
BRANCH  24  29
ATOM     29  C   UNL     1      -2.233  -7.494  -2.431  0.00  0.00    +0.078 C 
ATOM     30  C   UNL     1      -2.529  -8.135  -1.074  0.00  0.00    +0.022 C 
ATOM     31  C   UNL     1      -2.693  -9.646  -1.248  0.00  0.00    +0.002 C 
ATOM     32  C   UNL     1      -1.403 -10.237  -1.820  0.00  0.00    +0.000 C 
ATOM     33  C   UNL     1      -1.107  -9.596  -3.178  0.00  0.00    +0.002 C 
ATOM     34  C   UNL     1      -0.943  -8.085  -3.003  0.00  0.00    +0.022 C 
ENDBRANCH  24  29
BRANCH  27  35
ATOM     35  C   UNL     1      -4.548  -4.769  -4.663  0.00  0.00    +0.028 C 
ATOM     36  C   UNL     1      -3.580  -4.082  -5.629  0.00  0.00    +0.031 C 
ATOM     37  C   UNL     1      -5.586  -5.562  -5.460  0.00  0.00    +0.031 C 
ATOM     38  C   UNL     1      -5.256  -3.712  -3.813  0.00  0.00    +0.031 C 
ENDBRANCH  27  35
ENDBRANCH  23  24
ENDBRANCH   2  23
TORSDOF 11
