REMARK  Name = ZINC12463190
REMARK  8 active torsions:
REMARK  status: ('A' for Active; 'I' for Inactive)
REMARK    1  A    between atoms: C_1  and  C_2
REMARK    2  A    between atoms: N_8  and  C_9
REMARK    3  A    between atoms: C_9  and  C_30
REMARK    4  A    between atoms: N_12  and  C_21
REMARK    5  A    between atoms: C_13  and  C_15
REMARK    6  A    between atoms: C_21  and  C_22
REMARK    7  A    between atoms: C_25  and  O_28
REMARK    8  A    between atoms: O_28  and  C_29
REMARK                            x       y       z     vdW  Elec       q    Type
REMARK                         _______ _______ _______ _____ _____    ______ ____
ROOT
ATOM      1  C   UNL     1      -1.239   5.939   0.274  0.00  0.00    +0.301 C 
ATOM      2  C   UNL     1      -1.988   5.494  -0.967  0.00  0.00    +0.276 C 
ATOM      3  O   UNL     1      -2.324   4.366  -1.260  0.00  0.00    -0.270 OA
ATOM      4  N   UNL     1      -2.200   6.623  -1.674  0.00  0.00    -0.248 N 
ATOM      5  C   UNL     1      -1.672   7.711  -1.019  0.00  0.00    +0.133 C 
ATOM      6  N   UNL     1      -1.106   7.395   0.104  0.00  0.00    -0.225 NA
ENDROOT
BRANCH   1  14
ATOM      7  C   UNL     1       1.577   8.747   3.512  0.00  0.00    +0.044 C 
ATOM      8  C   UNL     1       1.795   7.473   2.737  0.00  0.00    -0.046 A 
ATOM      9  C   UNL     1       2.981   6.760   2.860  0.00  0.00    +0.021 A 
ATOM     10  C   UNL     1       3.146   5.594   2.141  0.00  0.00    +0.084 A 
ATOM     11  N   UNL     1       2.196   5.153   1.337  0.00  0.00    -0.350 N 
ATOM     12  C   UNL     1       1.054   5.806   1.189  0.00  0.00    +0.099 A 
ATOM     13  C   UNL     1       0.820   6.989   1.883  0.00  0.00    +0.045 A 
ATOM     14  N   UNL     1       0.081   5.306   0.333  0.00  0.00    -0.292 N 
ATOM     15  H   UNL     1       0.301   4.434  -0.301  0.00  0.00    +0.150 HD
ATOM     16  H   UNL     1       2.343   4.222   0.771  0.00  0.00    +0.166 HD
ENDBRANCH   1  14
BRANCH   5  17
ATOM     17  C   UNL     1      -1.742   9.095  -1.540  0.00  0.00    +0.015 A 
ATOM     18  C   UNL     1      -1.486   9.350  -2.887  0.00  0.00    +0.011 A 
ATOM     19  C   UNL     1      -1.558  10.642  -3.367  0.00  0.00    +0.001 A 
ATOM     20  C   UNL     1      -1.872  11.684  -2.513  0.00  0.00    +0.000 A 
ATOM     21  C   UNL     1      -2.122  11.438  -1.175  0.00  0.00    +0.001 A 
ATOM     22  C   UNL     1      -2.058  10.150  -0.684  0.00  0.00    +0.011 A 
ENDBRANCH   5  17
BRANCH   1  23
ATOM     23  C   UNL     1      -2.045   5.614   1.533  0.00  0.00    +0.440 C 
ATOM     24  F   UNL     1      -1.427   6.195   2.645  0.00  0.00    -0.166 F 
ATOM     25  F   UNL     1      -3.341   6.125   1.401  0.00  0.00    -0.166 F 
ATOM     26  F   UNL     1      -2.105   4.227   1.703  0.00  0.00    -0.166 F 
ENDBRANCH   1  23
BRANCH   4  27
ATOM     27  C   UNL     1      -2.896   6.683  -2.962  0.00  0.00    +0.150 C 
BRANCH  27  28
ATOM     28  C   UNL     1      -4.382   6.769  -2.727  0.00  0.00    -0.029 A 
ATOM     29  C   UNL     1      -5.120   5.614  -2.544  0.00  0.00    +0.009 A 
ATOM     30  C   UNL     1      -6.481   5.691  -2.322  0.00  0.00    +0.046 A 
ATOM     31  C   UNL     1      -7.110   6.927  -2.295  0.00  0.00    +0.120 A 
ATOM     32  C   UNL     1      -6.368   8.084  -2.484  0.00  0.00    +0.046 A 
ATOM     33  C   UNL     1      -5.006   8.002  -2.700  0.00  0.00    +0.009 A 
BRANCH  31  34
ATOM     34  O   UNL     1      -8.450   7.005  -2.082  0.00  0.00    -0.495 OA
ATOM     35  C   UNL     1      -9.149   5.773  -1.895  0.00  0.00    +0.277 C 
ENDBRANCH  31  34
ENDBRANCH  27  28
ENDBRANCH   4  27
TORSDOF 6
