REMARK  Name = ZINC59292935
REMARK  6 active torsions:
REMARK  status: ('A' for Active; 'I' for Inactive)
REMARK    1  A    between atoms: C_1  and  C_2
REMARK    2  A    between atoms: C_20  and  C_24
REMARK    3  A    between atoms: C_21  and  N_23
REMARK    4  A    between atoms: C_24  and  O_26
REMARK    5  A    between atoms: O_26  and  C_27
REMARK    6  A    between atoms: C_27  and  C_28
REMARK                            x       y       z     vdW  Elec       q    Type
REMARK                         _______ _______ _______ _____ _____    ______ ____
ROOT
ATOM      1  C   UNL     1       0.004   1.497   0.067  0.00  0.00    +0.086 C 
ATOM      2  C   UNL     1       0.017  -0.009   0.013  0.00  0.00    +0.110 A 
ATOM      3  C   UNL     1      -1.151  -0.675   0.088  0.00  0.00    +0.088 A 
ATOM      4  C   UNL     1      -1.153  -2.087   0.037  0.00  0.00    +0.145 A 
ATOM      5  C   UNL     1       0.056  -2.741  -0.091  0.00  0.00    +0.103 A 
ATOM      6  C   UNL     1       1.231  -1.984  -0.163  0.00  0.00    +0.345 A 
ATOM      7  O   UNL     1       2.307  -2.549  -0.277  0.00  0.00    -0.245 OA
ATOM      8  O   UNL     1       1.187  -0.644  -0.112  0.00  0.00    -0.427 OA
ATOM      9  C   UNL     1       0.110  -4.240  -0.152  0.00  0.00    +0.145 C 
ATOM     10  C   UNL     1       0.681  -4.807   1.111  0.00  0.00    -0.001 A 
ATOM     11  C   UNL     1       0.247  -4.744   2.417  0.00  0.00    +0.022 A 
ATOM     12  C   UNL     1       1.024  -5.391   3.372  0.00  0.00    +0.018 A 
ATOM     13  C   UNL     1       2.178  -6.065   3.024  0.00  0.00    +0.017 A 
ATOM     14  C   UNL     1       2.620  -6.132   1.712  0.00  0.00    +0.025 A 
ATOM     15  C   UNL     1       1.849  -5.487   0.744  0.00  0.00    +0.038 A 
ATOM     16  N   UNL     1       2.051  -5.392  -0.622  0.00  0.00    -0.284 N 
ATOM     17  C   UNL     1       1.081  -4.678  -1.229  0.00  0.00    +0.237 C 
ATOM     18  O   UNL     1       1.001  -4.434  -2.414  0.00  0.00    -0.274 OA
ATOM     19 BR   UNL     1       0.491  -5.347   5.186  0.00  0.00    -0.050 Br
ATOM     20  C   UNL     1      -1.252  -4.809  -0.429  0.00  0.00    +0.117 C 
ATOM     21  C   UNL     1      -2.370  -4.051  -0.284  0.00  0.00    +0.196 C 
ATOM     22  O   UNL     1      -2.312  -2.770   0.115  0.00  0.00    -0.441 OA
ATOM     23  H   UNL     1       2.802  -5.792  -1.087  0.00  0.00    +0.155 HD
ENDROOT
BRANCH  21  24
ATOM     24  N   UNL     1      -3.591  -4.611  -0.550  0.00  0.00    -0.329 N 
ATOM     25  H   UNL     1      -3.657  -5.557  -0.751  0.00  0.00    +0.145 HD
ATOM     26  H   UNL     1      -4.389  -4.060  -0.538  0.00  0.00    +0.145 HD
ENDBRANCH  21  24
BRANCH  20  27
ATOM     27  C   UNL     1      -1.371  -6.143  -0.846  0.00  0.00    +0.342 C 
ATOM     28  O   UNL     1      -1.294  -7.045  -0.031  0.00  0.00    -0.245 OA
BRANCH  27  29
ATOM     29  O   UNL     1      -1.571  -6.428  -2.151  0.00  0.00    -0.456 OA
BRANCH  29  30
ATOM     30  C   UNL     1      -1.683  -7.808  -2.504  0.00  0.00    +0.268 C 
BRANCH  30  31
ATOM     31  C   UNL     1      -1.902  -7.930  -3.990  0.00  0.00    -0.010 A 
ATOM     32  C   UNL     1      -3.186  -7.927  -4.502  0.00  0.00    +0.007 A 
ATOM     33  C   UNL     1      -3.387  -8.039  -5.865  0.00  0.00    +0.000 A 
ATOM     34  C   UNL     1      -2.303  -8.153  -6.716  0.00  0.00    +0.000 A 
ATOM     35  C   UNL     1      -1.019  -8.155  -6.204  0.00  0.00    +0.000 A 
ATOM     36  C   UNL     1      -0.819  -8.039  -4.842  0.00  0.00    +0.007 A 
ENDBRANCH  30  31
ENDBRANCH  29  30
ENDBRANCH  27  29
ENDBRANCH  20  27
TORSDOF 5
