REMARK  Name = ZINC15958614
REMARK  15 active torsions:
REMARK  status: ('A' for Active; 'I' for Inactive)
REMARK    1  A    between atoms: C_1  and  C_2
REMARK    2  A    between atoms: N_6  and  O_7
REMARK    3  A    between atoms: O_7  and  C_8
REMARK    4  A    between atoms: C_8  and  C_9
REMARK    5  A    between atoms: N_11  and  C_12
REMARK    6  A    between atoms: C_12  and  C_13
REMARK    7  A    between atoms: C_13  and  C_14
REMARK    8  A    between atoms: C_14  and  C_15
REMARK    9  A    between atoms: C_15  and  C_16
REMARK   10  A    between atoms: C_26  and  O_41
REMARK   11  A    between atoms: C_29  and  C_40
REMARK   12  A    between atoms: C_34  and  C_35
REMARK   13  A    between atoms: C_34  and  O_39
REMARK   14  A    between atoms: C_35  and  C_37
REMARK   15  A    between atoms: C_37  and  O_38
REMARK                            x       y       z     vdW  Elec       q    Type
REMARK                         _______ _______ _______ _____ _____    ______ ____
ROOT
ATOM      1  C   UNL     1      -8.671   2.986   2.785  0.00  0.00    +0.016 C 
ATOM      2  C   UNL     1      -8.294   3.181   1.301  0.00  0.00    -0.005 C 
ATOM      3  C   UNL     1      -6.872   3.685   1.361  0.00  0.00    +0.017 C 
ATOM      4  C   UNL     1      -6.001   3.176   0.217  0.00  0.00    +0.059 C 
ATOM      5  C   UNL     1      -6.100   1.661   0.209  0.00  0.00    +0.080 C 
ATOM      6  N   UNL     1      -5.052   0.902   0.234  0.00  0.00    -0.089 NA
ATOM      7  C   UNL     1      -7.470   1.115   0.170  0.00  0.00    +0.026 C 
ATOM      8  C   UNL     1      -8.465   1.834   0.674  0.00  0.00    -0.061 C 
ATOM      9  C   UNL     1      -9.867   1.247   0.616  0.00  0.00    +0.031 C 
ATOM     10  C   UNL     1     -10.729   2.298  -0.109  0.00  0.00    +0.008 C 
ATOM     11  C   UNL     1     -10.701   3.589   0.692  0.00  0.00    -0.001 C 
ATOM     12  C   UNL     1      -9.288   4.191   0.756  0.00  0.00    +0.031 C 
ATOM     13  C   UNL     1      -8.888   4.794  -0.580  0.00  0.00    +0.119 C 
ATOM     14  C   UNL     1      -9.886   5.899  -0.992  0.00  0.00    +0.041 C 
ATOM     15  C   UNL     1     -11.259   5.294  -1.119  0.00  0.00    +0.009 C 
ATOM     16  C   UNL     1     -11.662   4.638   0.215  0.00  0.00    +0.002 C 
ATOM     17  C   UNL     1     -13.111   4.225  -0.068  0.00  0.00    +0.008 C 
ATOM     18  C   UNL     1     -13.668   5.470  -0.817  0.00  0.00    +0.043 C 
ATOM     19  C   UNL     1     -12.438   6.256  -1.344  0.00  0.00    +0.131 C 
ATOM     20  C   UNL     1     -11.288   4.316  -2.299  0.00  0.00    +0.015 C 
ENDROOT
BRANCH  19  21
ATOM     21  C   UNL     1     -12.265   7.539  -0.586  0.00  0.00    +0.190 C 
ATOM     22  O   UNL     1     -11.579   7.566   0.407  0.00  0.00    -0.292 OA
BRANCH  21  23
ATOM     23  C   UNL     1     -12.947   8.795  -1.065  0.00  0.00    +0.233 C 
BRANCH  23  24
ATOM     24  O   UNL     1     -12.631   9.874  -0.183  0.00  0.00    -0.387 OA
ATOM     25  H   UNL     1     -13.037  10.716  -0.431  0.00  0.00    +0.210 HD
ENDBRANCH  23  24
ENDBRANCH  21  23
ENDBRANCH  19  21
BRANCH  19  26
ATOM     26  O   UNL     1     -12.583   6.514  -2.742  0.00  0.00    -0.380 OA
ATOM     27  H   UNL     1     -13.309   7.114  -2.958  0.00  0.00    +0.211 HD
ENDBRANCH  19  26
BRANCH  13  28
ATOM     28  O   UNL     1      -7.603   5.418  -0.483  0.00  0.00    -0.391 OA
ATOM     29  H   UNL     1      -7.297   5.819  -1.308  0.00  0.00    +0.210 HD
ENDBRANCH  13  28
BRANCH   6  30
ATOM     30  O   UNL     1      -3.760   1.479   0.271  0.00  0.00    -0.384 OA
BRANCH  30  31
ATOM     31  C   UNL     1      -2.697   0.524   0.296  0.00  0.00    +0.358 C 
BRANCH  31  32
ATOM     32  C   UNL     1      -1.375   1.246   0.334  0.00  0.00    +0.253 C 
ATOM     33  O   UNL     1      -1.345   2.458   0.340  0.00  0.00    -0.272 OA
ATOM     34  N   UNL     1      -0.225   0.544   0.362  0.00  0.00    -0.312 N 
ATOM     35  H   UNL     1      -0.248  -0.426   0.358  0.00  0.00    +0.149 HD
BRANCH  34  36
ATOM     36  C   UNL     1       1.061   1.245   0.394  0.00  0.00    +0.104 C 
BRANCH  36  37
ATOM     37  C   UNL     1       2.200   0.223   0.415  0.00  0.00    +0.019 C 
BRANCH  37  38
ATOM     38  C   UNL     1       3.542   0.956   0.448  0.00  0.00    +0.013 C 
BRANCH  38  39
ATOM     39  C   UNL     1       4.681  -0.067   0.468  0.00  0.00    +0.125 C 
BRANCH  39  40
ATOM     40  C   UNL     1       6.003   0.655   0.501  0.00  0.00    +0.356 C 
ATOM     41  O   UNL     1       6.032   1.863   0.506  0.00  0.00    -0.246 OA
ATOM     42  O   UNL     1       7.149  -0.044   0.523  0.00  0.00    -0.246 OA
ENDBRANCH  39  40
ENDBRANCH  38  39
ENDBRANCH  37  38
ENDBRANCH  36  37
ENDBRANCH  34  36
ENDBRANCH  31  32
ENDBRANCH  30  31
ENDBRANCH   6  30
TORSDOF 13
