REMARK  Name = ZINC09344955
REMARK  9 active torsions:
REMARK  status: ('A' for Active; 'I' for Inactive)
REMARK    1  A    between atoms: C_1  and  C_2
REMARK    2  A    between atoms: C_10  and  C_20
REMARK    3  A    between atoms: C_16  and  S_18
REMARK    4  A    between atoms: S_18  and  C_19
REMARK    5  A    between atoms: C_23  and  O_26
REMARK    6  A    between atoms: O_26  and  C_27
REMARK    7  A    between atoms: C_28  and  C_31
REMARK    8  A    between atoms: C_35  and  O_37
REMARK    9  A    between atoms: O_37  and  C_38
REMARK                            x       y       z     vdW  Elec       q    Type
REMARK                         _______ _______ _______ _____ _____    ______ ____
ROOT
ATOM      1  C   UNL     1      -0.018   1.503   0.010  0.00  0.00    +0.044 C 
ATOM      2  C   UNL     1       0.002  -0.004   0.002  0.00  0.00    -0.050 A 
ATOM      3  C   UNL     1       0.006  -0.687  -1.202  0.00  0.00    +0.007 A 
ATOM      4  C   UNL     1       0.025  -2.069  -1.225  0.00  0.00    +0.046 A 
ATOM      5  C   UNL     1       0.041  -2.779  -0.037  0.00  0.00    +0.131 A 
ATOM      6  C   UNL     1       0.038  -2.087   1.181  0.00  0.00    +0.040 A 
ATOM      7  C   UNL     1       0.023  -0.699   1.196  0.00  0.00    +0.017 A 
ATOM      8  C   UNL     1       0.060  -2.876   2.439  0.00  0.00    +0.058 C 
ATOM      9  C   UNL     1       0.406  -4.177   2.351  0.00  0.00    +0.025 C 
ATOM     10  C   UNL     1       0.425  -4.998   3.621  0.00  0.00    +0.159 C 
ATOM     11  N   UNL     1       0.059  -4.286   4.852  0.00  0.00    -0.209 N 
ATOM     12  C   UNL     1      -0.268  -2.946   4.778  0.00  0.00    +0.216 C 
ATOM     13  N   UNL     1      -0.258  -2.307   3.627  0.00  0.00    -0.326 N 
ATOM     14  N   UNL     1      -0.558  -2.536   6.026  0.00  0.00    -0.192 NA
ATOM     15  C   UNL     1      -0.436  -3.535   6.876  0.00  0.00    +0.174 C 
ATOM     16  N   UNL     1      -0.050  -4.659   6.194  0.00  0.00    -0.239 N 
ATOM     17  C   UNL     1       0.769  -4.783   1.026  0.00  0.00    +0.234 C 
ATOM     18  O   UNL     1       0.056  -4.136  -0.030  0.00  0.00    -0.479 OA
ATOM     19  H   UNL     1      -0.493  -1.366   3.630  0.00  0.00    +0.169 HD
ATOM     20  H   UNL     1       0.114  -5.539   6.568  0.00  0.00    +0.172 HD
ENDROOT
BRANCH  10  21
ATOM     21  C   UNL     1      -0.528  -6.152   3.450  0.00  0.00    -0.021 A 
ATOM     22  C   UNL     1      -1.887  -5.955   3.611  0.00  0.00    +0.009 A 
ATOM     23  C   UNL     1      -2.763  -7.012   3.455  0.00  0.00    +0.046 A 
ATOM     24  C   UNL     1      -2.278  -8.272   3.135  0.00  0.00    +0.120 A 
ATOM     25  C   UNL     1      -0.914  -8.467   2.972  0.00  0.00    +0.046 A 
ATOM     26  C   UNL     1      -0.043  -7.405   3.125  0.00  0.00    +0.009 A 
BRANCH  24  27
ATOM     27  O   UNL     1      -3.137  -9.313   2.981  0.00  0.00    -0.495 OA
ATOM     28  C   UNL     1      -2.567 -10.581   2.651  0.00  0.00    +0.277 C 
ENDBRANCH  24  27
ENDBRANCH  10  21
BRANCH  17  29
ATOM     29  C   UNL     1       2.249  -4.624   0.794  0.00  0.00    +0.000 A 
ATOM     30  C   UNL     1       2.753  -3.415   0.349  0.00  0.00    +0.008 A 
ATOM     31  C   UNL     1       4.111  -3.266   0.136  0.00  0.00    +0.004 A 
ATOM     32  C   UNL     1       4.968  -4.325   0.366  0.00  0.00    +0.045 A 
ATOM     33  C   UNL     1       4.465  -5.538   0.813  0.00  0.00    +0.120 A 
ATOM     34  C   UNL     1       3.103  -5.684   1.032  0.00  0.00    +0.053 A 
BRANCH  33  35
ATOM     35  O   UNL     1       5.306  -6.581   1.040  0.00  0.00    -0.495 OA
ATOM     36  C   UNL     1       6.697  -6.358   0.798  0.00  0.00    +0.277 C 
ENDBRANCH  33  35
ENDBRANCH  17  29
BRANCH  15  37
ATOM     37  S   UNL     1      -0.721  -3.440   8.613  0.00  0.00    -0.092 S 
ATOM     38  C   UNL     1      -1.197  -1.711   8.885  0.00  0.00    +0.093 C 
ENDBRANCH  15  37
TORSDOF 5
