REMARK  Name = ZINC22847055
REMARK  4 active torsions:
REMARK  status: ('A' for Active; 'I' for Inactive)
REMARK    1  A    between atoms: C_3  and  O_27
REMARK    2  A    between atoms: C_4  and  C_12
REMARK    3  A    between atoms: C_12  and  N_13
REMARK    4  A    between atoms: N_16  and  C_19
REMARK                            x       y       z     vdW  Elec       q    Type
REMARK                         _______ _______ _______ _____ _____    ______ ____
ROOT
ATOM      1  C   UNL     1       3.770  -0.646  -0.038  0.00  0.00    +0.123 C 
ENDROOT
BRANCH   1   5
ATOM      2  C   UNL     1      -0.017   1.401   0.010  0.00  0.00    +0.012 A 
ATOM      3  C   UNL     1       1.155   2.092   0.002  0.00  0.00    +0.046 A 
ATOM      4  C   UNL     1       2.383   1.424  -0.013  0.00  0.00    +0.122 A 
ATOM      5  C   UNL     1       2.438   0.059  -0.021  0.00  0.00    +0.016 A 
ATOM      6  C   UNL     1       1.246  -0.684  -0.013  0.00  0.00    -0.010 A 
ATOM      7  C   UNL     1       0.002  -0.004   0.002  0.00  0.00    -0.016 A 
ATOM      8  C   UNL     1      -1.190  -0.749   0.009  0.00  0.00    +0.023 A 
ATOM      9  C   UNL     1      -1.134  -2.110   0.001  0.00  0.00    +0.018 A 
ATOM     10  C   UNL     1       0.090  -2.778  -0.015  0.00  0.00    +0.016 A 
ATOM     11  C   UNL     1       1.264  -2.090  -0.022  0.00  0.00    +0.010 A 
ATOM     12 BR   UNL     1      -2.740  -3.107   0.010  0.00  0.00    -0.050 Br
BRANCH   4  13
ATOM     13  O   UNL     1       3.537   2.141  -0.020  0.00  0.00    -0.506 OA
ATOM     14  H   UNL     1       4.507   1.623  -0.032  0.00  0.00    +0.292 HD
ENDBRANCH   4  13
ENDBRANCH   1   5
BRANCH   1  15
ATOM     15  N   UNL     1       4.189  -0.867  -1.428  0.00  0.00    -0.302 NA
ATOM     16  C   UNL     1       3.289  -1.811  -2.106  0.00  0.00    +0.066 C 
ATOM     17  C   UNL     1       3.712  -1.952  -3.570  0.00  0.00    -0.063 C 
ATOM     18  N   UNL     1       5.104  -2.419  -3.632  0.00  0.00    +0.384 N 
ATOM     19  C   UNL     1       6.004  -1.475  -2.955  0.00  0.00    -0.063 C 
ATOM     20  C   UNL     1       5.581  -1.334  -1.490  0.00  0.00    +0.066 C 
ATOM     21  H   UNL     1       5.163  -3.383  -3.106  0.00  0.00    -0.081 HD
BRANCH  18  22
ATOM     22  C   UNL     1       5.523  -2.640  -5.023  0.00  0.00    -0.046 C 
ATOM     23  C   UNL     1       5.351  -1.343  -5.830  0.00  0.00    +0.009 C 
ATOM     24  C   UNL     1       5.480  -1.641  -7.343  0.00  0.00    +0.164 C 
ATOM     25  S   UNL     1       4.917  -3.388  -7.459  0.00  0.00    -0.033 S 
ATOM     26  O   UNL     1       5.995  -4.191  -7.920  0.00  0.00    -0.174 OA
ATOM     27  O   UNL     1       3.672  -3.429  -8.143  0.00  0.00    -0.174 OA
ATOM     28  C   UNL     1       4.631  -3.736  -5.673  0.00  0.00    +0.151 C 
ENDBRANCH  18  22
ENDBRANCH   1  15
TORSDOF 4
