REMARK  Name = ZINC40991053
REMARK  11 active torsions:
REMARK  status: ('A' for Active; 'I' for Inactive)
REMARK    1  A    between atoms: C_1  and  C_2
REMARK    2  A    between atoms: C_5  and  N_8
REMARK    3  A    between atoms: N_8  and  S_27
REMARK    4  A    between atoms: C_9  and  C_11
REMARK    5  A    between atoms: C_11  and  C_12
REMARK    6  A    between atoms: C_12  and  C_13
REMARK    7  A    between atoms: C_13  and  C_14
REMARK    8  A    between atoms: C_14  and  C_15
REMARK    9  A    between atoms: C_15  and  N_16
REMARK   10  A    between atoms: S_27  and  C_30
REMARK   11  A    between atoms: C_33  and  C_36
REMARK                            x       y       z     vdW  Elec       q    Type
REMARK                         _______ _______ _______ _____ _____    ______ ____
ROOT
ATOM      1  N   UNL     1       0.059  -4.170  -0.021  0.00  0.00    -0.139 N 
ATOM      2  C   UNL     1       0.440  -4.827  -1.134  0.00  0.00    +0.239 C 
ATOM      3  O   UNL     1       0.873  -4.211  -2.084  0.00  0.00    -0.274 OA
ENDROOT
BRANCH   1   8
ATOM      4  C   UNL     1       0.072   1.503   0.069  0.00  0.00    +0.044 C 
ATOM      5  C   UNL     1       0.069  -0.004   0.045  0.00  0.00    -0.050 A 
ATOM      6  C   UNL     1      -0.716  -0.678  -0.873  0.00  0.00    +0.005 A 
ATOM      7  C   UNL     1      -0.722  -2.059  -0.897  0.00  0.00    +0.025 A 
ATOM      8  C   UNL     1       0.062  -2.771   0.001  0.00  0.00    +0.060 A 
ATOM      9  C   UNL     1       0.850  -2.091   0.921  0.00  0.00    +0.025 A 
ATOM     10  C   UNL     1       0.854  -0.710   0.937  0.00  0.00    +0.005 A 
ENDBRANCH   1   8
BRANCH   1  11
ATOM     11  S   UNL     1      -0.414  -5.018   1.321  0.00  0.00    +0.081 S 
ATOM     12  O   UNL     1       0.307  -6.242   1.302  0.00  0.00    -0.149 OA
ATOM     13  O   UNL     1      -0.353  -4.113   2.415  0.00  0.00    -0.149 OA
BRANCH  11  14
ATOM     14  C   UNL     1      -2.114  -5.431   1.104  0.00  0.00    +0.109 A 
ATOM     15  C   UNL     1      -3.097  -4.567   1.548  0.00  0.00    +0.029 A 
ATOM     16  C   UNL     1      -4.430  -4.891   1.378  0.00  0.00    +0.005 A 
ATOM     17  C   UNL     1      -4.779  -6.079   0.763  0.00  0.00    -0.050 A 
ATOM     18  C   UNL     1      -3.796  -6.942   0.317  0.00  0.00    +0.005 A 
ATOM     19  C   UNL     1      -2.463  -6.616   0.484  0.00  0.00    +0.029 A 
ATOM     20  C   UNL     1      -6.233  -6.432   0.578  0.00  0.00    +0.044 C 
ENDBRANCH  11  14
ENDBRANCH   1  11
BRANCH   2  21
ATOM     21  C   UNL     1       0.329  -6.329  -1.197  0.00  0.00    +0.098 C 
BRANCH  21  22
ATOM     22  C   UNL     1       0.824  -6.820  -2.559  0.00  0.00    +0.009 C 
BRANCH  22  23
ATOM     23  C   UNL     1       0.711  -8.344  -2.623  0.00  0.00    +0.002 C 
BRANCH  23  24
ATOM     24  C   UNL     1       1.206  -8.835  -3.985  0.00  0.00    +0.019 C 
BRANCH  24  25
ATOM     25  C   UNL     1       1.093 -10.360  -4.050  0.00  0.00    +0.117 C 
BRANCH  25  26
ATOM     26  N   UNL     1       1.567 -10.830  -5.354  0.00  0.00    -0.234 N 
ATOM     27  C   UNL     1       0.787 -10.975  -6.440  0.00  0.00    +0.254 C 
ATOM     28  O   UNL     1      -0.404 -10.742  -6.494  0.00  0.00    -0.270 OA
ATOM     29  C   UNL     1       1.621 -11.467  -7.557  0.00  0.00    +0.049 A 
ATOM     30  C   UNL     1       1.373 -11.791  -8.881  0.00  0.00    +0.014 A 
ATOM     31  C   UNL     1       2.410 -12.236  -9.686  0.00  0.00    +0.001 A 
ATOM     32  C   UNL     1       3.689 -12.359  -9.176  0.00  0.00    +0.001 A 
ATOM     33  C   UNL     1       3.953 -12.039  -7.854  0.00  0.00    +0.014 A 
ATOM     34  C   UNL     1       2.926 -11.592  -7.037  0.00  0.00    +0.049 A 
ATOM     35  C   UNL     1       2.841 -11.168  -5.624  0.00  0.00    +0.254 C 
ATOM     36  O   UNL     1       3.766 -11.132  -4.838  0.00  0.00    -0.270 OA
ENDBRANCH  25  26
ENDBRANCH  24  25
ENDBRANCH  23  24
ENDBRANCH  22  23
ENDBRANCH  21  22
ENDBRANCH   2  21
TORSDOF 9
