REMARK  Name = ZINC65406706
REMARK  8 active torsions:
REMARK  status: ('A' for Active; 'I' for Inactive)
REMARK    1  A    between atoms: C_1  and  C_2
REMARK    2  A    between atoms: C_2  and  C_3
REMARK    3  A    between atoms: C_5  and  C_10
REMARK    4  A    between atoms: C_7  and  C_9
REMARK    5  A    between atoms: C_12  and  C_25
REMARK    6  A    between atoms: N_16  and  C_17
REMARK    7  A    between atoms: C_17  and  C_18
REMARK    8  A    between atoms: C_18  and  C_19
REMARK                            x       y       z     vdW  Elec       q    Type
REMARK                         _______ _______ _______ _____ _____    ______ ____
ROOT
ATOM      1  C   UNL     1      -4.440  -1.648   1.637  0.00  0.00    +0.004 C 
ATOM      2  C   UNL     1      -5.438  -0.489   1.823  0.00  0.00    +0.074 C 
ATOM      3  N   UNL     1      -5.416  -0.171   3.270  0.00  0.00    -0.327 NA
ATOM      4  C   UNL     1      -4.943  -1.421   3.917  0.00  0.00    +0.006 C 
ATOM      5  N   UNL     1      -3.901  -1.933   2.989  0.00  0.00    +0.395 N 
ATOM      6  H   UNL     1      -4.788   0.596   3.463  0.00  0.00    +0.120 HD
ATOM      7  H   UNL     1      -3.031  -1.442   3.131  0.00  0.00    -0.079 HD
ENDROOT
BRANCH   1  10
ATOM      8  C   UNL     1      -1.412  -0.526   0.013  0.00  0.00    +0.084 A 
ATOM      9  N   UNL     1      -2.117  -0.790   1.079  0.00  0.00    -0.348 N 
ATOM     10  C   UNL     1      -3.327  -1.234   0.709  0.00  0.00    +0.024 A 
ATOM     11  H   UNL     1      -1.889  -0.683  -2.004  0.00  0.00    +0.167 HD
ATOM     12  C   UNL     1      -3.374  -1.246  -0.637  0.00  0.00    +0.032 A 
ATOM     13  N   UNL     1      -2.161  -0.792  -1.079  0.00  0.00    -0.347 N 
ATOM     14  C   UNL     1      -4.539  -1.673  -1.492  0.00  0.00    +0.065 C 
ATOM     15  H   UNL     1      -1.814  -0.681   1.994  0.00  0.00    +0.167 HD
BRANCH   8  17
ATOM     16  C   UNL     1      -0.019   1.526   0.010  0.00  0.00    +0.012 C 
ATOM     17  C   UNL     1       0.002  -0.004   0.002  0.00  0.00    +0.069 C 
ENDBRANCH   8  17
ENDBRANCH   1  10
BRANCH   2  18
ATOM     18  C   UNL     1      -5.000   0.708   1.018  0.00  0.00    -0.032 A 
ATOM     19  C   UNL     1      -4.005   1.538   1.499  0.00  0.00    +0.005 A 
ATOM     20  C   UNL     1      -3.604   2.636   0.761  0.00  0.00    +0.000 A 
ATOM     21  C   UNL     1      -4.198   2.904  -0.458  0.00  0.00    +0.000 A 
ATOM     22  C   UNL     1      -5.192   2.073  -0.940  0.00  0.00    +0.000 A 
ATOM     23  C   UNL     1      -5.590   0.972  -0.204  0.00  0.00    +0.005 A 
ENDBRANCH   2  18
BRANCH   5  24
ATOM     24  C   UNL     1      -3.713  -3.378   3.171  0.00  0.00    -0.071 C 
BRANCH  24  25
ATOM     25  C   UNL     1      -3.041  -3.638   4.521  0.00  0.00    +0.017 C 
BRANCH  25  26
ATOM     26  C   UNL     1      -2.848  -5.121   4.709  0.00  0.00    -0.046 A 
ATOM     27  C   UNL     1      -3.829  -5.894   5.311  0.00  0.00    +0.023 A 
ATOM     28  C   UNL     1      -3.617  -7.251   5.466  0.00  0.00    +0.111 A 
ATOM     29  N   UNL     1      -2.498  -7.810   5.050  0.00  0.00    -0.263 NA
ATOM     30  C   UNL     1      -1.543  -7.106   4.474  0.00  0.00    +0.111 A 
ATOM     31  C   UNL     1      -1.687  -5.746   4.279  0.00  0.00    +0.023 A 
ENDBRANCH  25  26
ENDBRANCH  24  25
ENDBRANCH   5  24
TORSDOF 6
