REMARK  Name = ZINC64228962
REMARK  5 active torsions:
REMARK  status: ('A' for Active; 'I' for Inactive)
REMARK    1  A    between atoms: C_1  and  C_2
REMARK    2  A    between atoms: C_4  and  C_7
REMARK    3  A    between atoms: N_15  and  C_16
REMARK    4  A    between atoms: C_19  and  C_26
REMARK    5  A    between atoms: C_19  and  C_27
REMARK                            x       y       z     vdW  Elec       q    Type
REMARK                         _______ _______ _______ _____ _____    ______ ____
ROOT
ATOM      1  C   UNL     1       0.035  -3.205  -1.713  0.00  0.00    +0.081 C 
ATOM      2  C   UNL     1      -1.203  -4.071  -1.467  0.00  0.00    +0.032 C 
ATOM      3  C   UNL     1      -1.204  -5.245  -2.450  0.00  0.00    +0.110 C 
ATOM      4  N   UNL     1       0.071  -5.965  -2.328  0.00  0.00    -0.286 N 
ATOM      5  C   UNL     1       1.325  -5.210  -2.457  0.00  0.00    +0.110 C 
ATOM      6  C   UNL     1       1.297  -4.036  -1.474  0.00  0.00    +0.032 C 
ATOM      7  C   UNL     1       0.090  -7.294  -2.100  0.00  0.00    +0.303 C 
ATOM      8  O   UNL     1      -0.950  -7.891  -1.899  0.00  0.00    -0.253 OA
ATOM      9  N   UNL     1       1.262  -7.960  -2.094  0.00  0.00    -0.292 N 
ATOM     10  H   UNL     1       2.097  -7.473  -2.177  0.00  0.00    +0.151 HD
ENDROOT
BRANCH   9  11
ATOM     11  C   UNL     1       1.274  -9.419  -1.961  0.00  0.00    +0.105 C 
ATOM     12  C   UNL     1       2.602  -9.857  -1.345  0.00  0.00    +0.028 C 
ATOM     13  C   UNL     1       2.686 -11.386  -1.416  0.00  0.00    +0.013 C 
ATOM     14  C   UNL     1       2.861 -11.792  -2.878  0.00  0.00    -0.009 C 
ATOM     15  C   UNL     1       1.815 -11.134  -3.739  0.00  0.00    -0.037 A 
ATOM     16  C   UNL     1       1.089 -10.042  -3.320  0.00  0.00    -0.023 A 
ATOM     17  C   UNL     1       0.143  -9.479  -4.166  0.00  0.00    +0.006 A 
ATOM     18  C   UNL     1      -0.078 -10.007  -5.422  0.00  0.00    +0.000 A 
ATOM     19  C   UNL     1       0.648 -11.106  -5.841  0.00  0.00    +0.000 A 
ATOM     20  C   UNL     1       1.590 -11.666  -5.003  0.00  0.00    +0.004 A 
ATOM     21  C   UNL     1       2.733 -13.312  -2.999  0.00  0.00    +0.016 C 
ATOM     22  C   UNL     1       4.250 -11.364  -3.357  0.00  0.00    +0.016 C 
ENDBRANCH   9  11
BRANCH   1  26
ATOM     23  C   UNL     1      -0.026   1.511  -0.025  0.00  0.00    +0.091 C 
ATOM     24  C   UNL     1      -0.005   0.004  -0.027  0.00  0.00    +0.169 A 
ATOM     25  N   UNL     1       0.002  -0.772  -1.116  0.00  0.00    -0.196 NA
ATOM     26  C   UNL     1       0.021  -2.029  -0.770  0.00  0.00    +0.231 A 
ATOM     27  O   UNL     1       0.027  -2.096   0.567  0.00  0.00    -0.338 OA
ATOM     28  N   UNL     1       0.015  -0.754   1.031  0.00  0.00    -0.062 NA
ENDBRANCH   1  26
TORSDOF 2
