REMARK  Name = ZINC63557695
REMARK  12 active torsions:
REMARK  status: ('A' for Active; 'I' for Inactive)
REMARK    1  A    between atoms: C_1  and  C_2
REMARK    2  A    between atoms: C_2  and  C_3
REMARK    3  A    between atoms: C_2  and  C_4
REMARK    4  A    between atoms: C_2  and  C_5
REMARK    5  A    between atoms: C_5  and  C_6
REMARK    6  A    between atoms: C_10  and  N_13
REMARK    7  A    between atoms: C_14  and  C_16
REMARK    8  A    between atoms: N_21  and  C_23
REMARK    9  A    between atoms: C_23  and  C_24
REMARK   10  A    between atoms: C_24  and  C_25
REMARK   11  A    between atoms: C_28  and  O_34
REMARK   12  A    between atoms: O_34  and  C_35
REMARK                            x       y       z     vdW  Elec       q    Type
REMARK                         _______ _______ _______ _____ _____    ______ ____
ROOT
ATOM      1  C   UNL     1       3.341   3.760  -5.999  0.00  0.00    +0.101 C 
ATOM      2  C   UNL     1       2.367   2.873  -6.808  0.00  0.00    +0.110 C 
ATOM      3  C   UNL     1       2.652   3.229  -8.251  0.00  0.00    +0.216 C 
ATOM      4  O   UNL     1       1.925   2.973  -9.187  0.00  0.00    -0.276 OA
ATOM      5  N   UNL     1       3.829   3.872  -8.344  0.00  0.00    -0.300 N 
ATOM      6  C   UNL     1       4.464   4.016  -7.028  0.00  0.00    +0.121 C 
ENDROOT
BRANCH   1   8
ATOM      7  N   UNL     1       3.029   2.648  -3.811  0.00  0.00    -0.290 N 
ATOM      8  C   UNL     1       3.870   3.022  -4.796  0.00  0.00    +0.220 C 
ATOM      9  O   UNL     1       5.052   2.763  -4.715  0.00  0.00    -0.275 OA
ATOM     10  H   UNL     1       2.084   2.855  -3.876  0.00  0.00    +0.151 HD
BRANCH   7  14
ATOM     11  C   UNL     1       2.074  -0.074  -1.393  0.00  0.00    +0.130 C 
ATOM     12  N   UNL     1       2.647  -0.337  -2.751  0.00  0.00    -0.241 NA
ATOM     13  N   UNL     1       3.818   0.503  -2.969  0.00  0.00    -0.227 NA
ATOM     14  C   UNL     1       3.544   1.931  -2.642  0.00  0.00    +0.216 C 
ATOM     15  S   UNL     1       2.247   1.763  -1.342  0.00  0.00    -0.102 S 
ATOM     16  H   UNL     1       2.876  -1.313  -2.863  0.00  0.00    +0.142 HD
ATOM     17  H   UNL     1       4.160   0.408  -3.913  0.00  0.00    +0.143 HD
BRANCH  11  18
ATOM     18  C   UNL     1       0.606  -0.499  -1.314  0.00  0.00    +0.037 C 
BRANCH  18  20
ATOM     19  C   UNL     1       0.011   1.386   0.215  0.00  0.00    +0.010 C 
ATOM     20  C   UNL     1       0.044  -0.136   0.062  0.00  0.00    -0.035 C 
ATOM     21  C   UNL     1       0.933  -0.739   1.151  0.00  0.00    +0.010 C 
ATOM     22  C   UNL     1      -1.375  -0.693   0.196  0.00  0.00    +0.010 C 
ENDBRANCH  18  20
ENDBRANCH  11  18
ENDBRANCH   7  14
ENDBRANCH   1   8
BRANCH   5  23
ATOM     23  C   UNL     1       4.404   4.367  -9.598  0.00  0.00    +0.112 C 
BRANCH  23  24
ATOM     24  C   UNL     1       3.930   5.800  -9.845  0.00  0.00    +0.052 C 
BRANCH  24  25
ATOM     25  C   UNL     1       4.521   6.309 -11.135  0.00  0.00    -0.040 C 
ATOM     26  C   UNL     1       3.941   6.295 -12.356  0.00  0.00    +0.002 A 
ATOM     27  C   UNL     1       2.637   5.822 -12.834  0.00  0.00    +0.055 A 
ATOM     28  C   UNL     1       2.324   5.941 -14.146  0.00  0.00    +0.121 A 
ATOM     29  C   UNL     1       3.208   6.508 -15.081  0.00  0.00    +0.047 A 
ATOM     30  C   UNL     1       4.429   6.971 -14.738  0.00  0.00    +0.029 A 
ATOM     31  C   UNL     1       4.872   6.892 -13.342  0.00  0.00    +0.043 A 
ATOM     32  N   UNL     1       5.983   7.259 -12.753  0.00  0.00    -0.380 N 
ATOM     33  C   UNL     1       5.881   6.943 -11.324  0.00  0.00    +0.144 C 
ATOM     34  H   UNL     1       6.744   7.674 -13.189  0.00  0.00    +0.160 HD
BRANCH  28  35
ATOM     35  O   UNL     1       1.112   5.498 -14.574  0.00  0.00    -0.495 OA
ATOM     36  C   UNL     1       0.823   5.643 -15.966  0.00  0.00    +0.277 C 
ENDBRANCH  28  35
ENDBRANCH  24  25
ENDBRANCH  23  24
ENDBRANCH   5  23
TORSDOF 8
