REMARK  Name = ZINC36040190
REMARK  12 active torsions:
REMARK  status: ('A' for Active; 'I' for Inactive)
REMARK    1  A    between atoms: C_1  and  C_2
REMARK    2  A    between atoms: C_2  and  O_39
REMARK    3  A    between atoms: N_5  and  O_6
REMARK    4  A    between atoms: C_7  and  C_29
REMARK    5  A    between atoms: C_9  and  C_23
REMARK    6  A    between atoms: C_11  and  C_13
REMARK    7  A    between atoms: C_13  and  O_15
REMARK    8  A    between atoms: O_15  and  C_16
REMARK    9  A    between atoms: C_16  and  C_17
REMARK   10  A    between atoms: C_29  and  O_31
REMARK   11  A    between atoms: O_31  and  C_32
REMARK   12  A    between atoms: C_32  and  C_33
REMARK                            x       y       z     vdW  Elec       q    Type
REMARK                         _______ _______ _______ _____ _____    ______ ____
ROOT
ATOM      1  C   UNL     1      -0.520   1.171   0.118  0.00  0.00    +0.042 C 
ATOM      2  C   UNL     1      -0.154  -0.287   0.402  0.00  0.00    +0.082 C 
ATOM      3  C   UNL     1       0.269  -0.971  -0.902  0.00  0.00    +0.090 C 
ATOM      4  C   UNL     1       0.754  -2.367  -0.579  0.00  0.00    +0.074 C 
ATOM      5  N   UNL     1       0.293  -3.384  -1.205  0.00  0.00    -0.096 NA
ATOM      6  C   UNL     1       1.797  -2.531   0.504  0.00  0.00    +0.154 C 
ATOM      7  C   UNL     1       1.319  -1.791   1.758  0.00  0.00    +0.055 C 
ATOM      8  C   UNL     1       1.004  -0.337   1.400  0.00  0.00    +0.138 C 
ENDROOT
BRANCH   7   9
ATOM      9  C   UNL     1       0.077  -2.457   2.292  0.00  0.00    -0.042 A 
ATOM     10  C   UNL     1      -0.139  -2.523   3.656  0.00  0.00    +0.004 A 
ATOM     11  C   UNL     1      -1.278  -3.134   4.146  0.00  0.00    +0.000 A 
ATOM     12  C   UNL     1      -2.201  -3.679   3.272  0.00  0.00    +0.000 A 
ATOM     13  C   UNL     1      -1.984  -3.613   1.909  0.00  0.00    +0.000 A 
ATOM     14  C   UNL     1      -0.848  -2.998   1.418  0.00  0.00    +0.004 A 
ENDBRANCH   7   9
BRANCH   5  15
ATOM     15  O   UNL     1       0.850  -4.666  -0.980  0.00  0.00    -0.409 OA
ATOM     16  H   UNL     1       0.436  -5.370  -1.498  0.00  0.00    +0.328 HD
ENDBRANCH   5  15
BRANCH   8  17
ATOM     17  C   UNL     1       0.621   0.414   2.649  0.00  0.00    +0.314 C 
ATOM     18  O   UNL     1       0.248  -0.190   3.627  0.00  0.00    -0.250 OA
BRANCH  17  19
ATOM     19  O   UNL     1       0.694   1.754   2.675  0.00  0.00    -0.460 OA
BRANCH  19  20
ATOM     20  C   UNL     1       0.316   2.401   3.892  0.00  0.00    +0.267 C 
BRANCH  20  21
ATOM     21  C   UNL     1       0.461   3.893   3.734  0.00  0.00    -0.010 A 
ATOM     22  C   UNL     1       1.660   4.507   4.045  0.00  0.00    +0.007 A 
ATOM     23  C   UNL     1       1.793   5.875   3.900  0.00  0.00    +0.000 A 
ATOM     24  C   UNL     1       0.728   6.629   3.445  0.00  0.00    +0.000 A 
ATOM     25  C   UNL     1      -0.470   6.015   3.133  0.00  0.00    +0.000 A 
ATOM     26  C   UNL     1      -0.603   4.646   3.274  0.00  0.00    +0.007 A 
ENDBRANCH  20  21
ENDBRANCH  19  20
ENDBRANCH  17  19
ENDBRANCH   8  17
BRANCH   6  27
ATOM     27  C   UNL     1       1.979  -3.995   0.815  0.00  0.00    +0.317 C 
ATOM     28  O   UNL     1       1.081  -4.619   1.328  0.00  0.00    -0.250 OA
BRANCH  27  29
ATOM     29  O   UNL     1       3.138  -4.604   0.520  0.00  0.00    -0.459 OA
BRANCH  29  30
ATOM     30  C   UNL     1       3.241  -5.992   0.842  0.00  0.00    +0.267 C 
BRANCH  30  31
ATOM     31  C   UNL     1       4.602  -6.501   0.442  0.00  0.00    -0.010 A 
ATOM     32  C   UNL     1       4.804  -7.012  -0.826  0.00  0.00    +0.007 A 
ATOM     33  C   UNL     1       6.053  -7.478  -1.193  0.00  0.00    +0.000 A 
ATOM     34  C   UNL     1       7.100  -7.434  -0.291  0.00  0.00    +0.000 A 
ATOM     35  C   UNL     1       6.898  -6.922   0.977  0.00  0.00    +0.000 A 
ATOM     36  C   UNL     1       5.650  -6.452   1.343  0.00  0.00    +0.007 A 
ENDBRANCH  30  31
ENDBRANCH  29  30
ENDBRANCH  27  29
ENDBRANCH   6  27
BRANCH   2  37
ATOM     37  O   UNL     1      -1.286  -0.966   0.951  0.00  0.00    -0.388 OA
ATOM     38  H   UNL     1      -2.088  -0.885   0.418  0.00  0.00    +0.210 HD
ENDBRANCH   2  37
TORSDOF 11
