REMARK  Name = ZINC35420191
REMARK  10 active torsions:
REMARK  status: ('A' for Active; 'I' for Inactive)
REMARK    1  A    between atoms: C_1  and  C_2
REMARK    2  A    between atoms: C_2  and  O_3
REMARK    3  A    between atoms: O_3  and  C_4
REMARK    4  A    between atoms: C_6  and  C_11
REMARK    5  A    between atoms: C_9  and  O_10
REMARK    6  A    between atoms: C_13  and  C_14
REMARK    7  A    between atoms: C_14  and  C_15
REMARK    8  A    between atoms: C_16  and  C_24
REMARK    9  A    between atoms: N_30  and  C_31
REMARK   10  A    between atoms: C_31  and  C_32
REMARK                            x       y       z     vdW  Elec       q    Type
REMARK                         _______ _______ _______ _____ _____    ______ ____
ROOT
ATOM      1  C   UNL     1       0.626  -5.771   0.682  0.00  0.00    +0.145 C 
ATOM      2  C   UNL     1       1.501  -5.828   1.913  0.00  0.00    +0.078 C 
ATOM      3  C   UNL     1       1.748  -7.135   2.155  0.00  0.00    +0.249 C 
ATOM      4  O   UNL     1       2.498  -7.615   3.175  0.00  0.00    -0.282 OA
ATOM      5  C   UNL     1       1.071  -7.956   1.132  0.00  0.00    +0.288 C 
ATOM      6  O   UNL     1       1.103  -9.169   1.079  0.00  0.00    -0.266 OA
ATOM      7  N   UNL     1       0.413  -7.162   0.268  0.00  0.00    -0.276 N 
ENDROOT
BRANCH   1  10
ATOM      8  C   UNL     1       1.491  -3.052  -1.794  0.00  0.00    +0.162 A 
ATOM      9  C   UNL     1       0.853  -3.758  -0.787  0.00  0.00    +0.055 A 
ATOM     10  C   UNL     1       1.321  -5.004  -0.413  0.00  0.00    -0.019 A 
ATOM     11  C   UNL     1       2.425  -5.548  -1.042  0.00  0.00    +0.009 A 
ATOM     12  C   UNL     1       3.067  -4.849  -2.047  0.00  0.00    +0.049 A 
ATOM     13  C   UNL     1       2.599  -3.602  -2.431  0.00  0.00    +0.158 A 
BRANCH  13  14
ATOM     14  O   UNL     1       3.226  -2.916  -3.424  0.00  0.00    -0.503 OA
ATOM     15  H   UNL     1       3.937  -2.339  -3.114  0.00  0.00    +0.292 HD
ENDBRANCH  13  14
BRANCH   8  16
ATOM     16  O   UNL     1       1.032  -1.826  -2.163  0.00  0.00    -0.489 OA
BRANCH  16  18
ATOM     17  C   UNL     1      -0.339   0.144  -1.879  0.00  0.00    +0.048 C 
ATOM     18  C   UNL     1      -0.038  -1.275  -1.393  0.00  0.00    +0.226 C 
ENDBRANCH  16  18
ENDBRANCH   8  16
ENDBRANCH   1  10
BRANCH   2  19
ATOM     19  C   UNL     1       1.989  -4.685   2.695  0.00  0.00    +0.213 C 
ATOM     20  O   UNL     1       2.916  -4.012   2.277  0.00  0.00    -0.285 OA
BRANCH  19  21
ATOM     21  C   UNL     1       1.382  -4.364   3.934  0.00  0.00    +0.116 A 
ATOM     22  C   UNL     1       0.260  -4.963   4.491  0.00  0.00    +0.068 A 
ATOM     23  N   UNL     1       0.015  -4.381   5.652  0.00  0.00    -0.232 NA
ATOM     24  C   UNL     1       0.920  -3.430   5.882  0.00  0.00    +0.138 A 
ATOM     25  N   UNL     1       1.793  -3.395   4.832  0.00  0.00    -0.296 N 
ATOM     26  C   UNL     1       2.826  -2.511   4.817  0.00  0.00    +0.093 A 
ATOM     27  C   UNL     1       3.011  -1.650   5.844  0.00  0.00    +0.018 A 
ATOM     28  C   UNL     1       2.136  -1.662   6.938  0.00  0.00    +0.005 A 
ATOM     29  C   UNL     1       1.093  -2.541   6.957  0.00  0.00    +0.047 A 
ATOM     30  C   UNL     1      -0.540  -6.084   3.878  0.00  0.00    +0.068 C 
ENDBRANCH  19  21
ENDBRANCH   2  19
BRANCH   7  31
ATOM     31  C   UNL     1      -0.377  -7.609  -0.882  0.00  0.00    +0.183 C 
BRANCH  31  32
ATOM     32  C   UNL     1       0.510  -7.695  -2.098  0.00  0.00    +0.122 A 
ATOM     33  C   UNL     1       1.202  -8.779  -2.492  0.00  0.00    +0.046 A 
ATOM     34  C   UNL     1       1.893  -8.418  -3.671  0.00  0.00    +0.041 A 
ATOM     35  C   UNL     1       1.582  -7.134  -3.927  0.00  0.00    +0.195 A 
ATOM     36  O   UNL     1       0.740  -6.703  -2.974  0.00  0.00    -0.466 OA
ENDBRANCH  31  32
ENDBRANCH   7  31
TORSDOF 8
