REMARK  Name = ZINC13108344
REMARK  6 active torsions:
REMARK  status: ('A' for Active; 'I' for Inactive)
REMARK    1  A    between atoms: C_1  and  C_2
REMARK    2  A    between atoms: C_5  and  N_9
REMARK    3  A    between atoms: C_19  and  S_20
REMARK    4  A    between atoms: S_20  and  C_21
REMARK    5  A    between atoms: C_21  and  C_22
REMARK    6  A    between atoms: C_22  and  C_24
REMARK                            x       y       z     vdW  Elec       q    Type
REMARK                         _______ _______ _______ _____ _____    ______ ____
ROOT
ATOM      1  N   UNL     1       0.002  -0.004   0.002  0.00  0.00    -0.255 N 
ATOM      2  C   UNL     1       1.127  -0.585   0.480  0.00  0.00    +0.267 A 
ATOM      3  O   UNL     1       1.113  -1.720   0.920  0.00  0.00    -0.267 OA
ATOM      4  C   UNL     1       2.365   0.205   0.449  0.00  0.00    +0.065 A 
ATOM      5  C   UNL     1       3.575  -0.304   0.918  0.00  0.00    +0.015 A 
ATOM      6  C   UNL     1       4.699   0.473   0.866  0.00  0.00    +0.001 A 
ATOM      7  C   UNL     1       4.647   1.762   0.351  0.00  0.00    +0.002 A 
ATOM      8  C   UNL     1       3.474   2.286  -0.116  0.00  0.00    +0.028 A 
ATOM      9  C   UNL     1       2.308   1.516  -0.075  0.00  0.00    +0.079 A 
ATOM     10  N   UNL     1       1.126   1.996  -0.527  0.00  0.00    -0.223 NA
ATOM     11  C   UNL     1       0.034   1.272  -0.489  0.00  0.00    +0.177 A 
ENDROOT
BRANCH   1  16
ATOM     12  C   UNL     1      -4.886  -2.888   0.039  0.00  0.00    +0.045 C 
ATOM     13  C   UNL     1      -3.588  -2.122   0.029  0.00  0.00    -0.032 A 
ATOM     14  C   UNL     1      -3.239  -1.341   1.115  0.00  0.00    +0.007 A 
ATOM     15  C   UNL     1      -2.048  -0.642   1.111  0.00  0.00    +0.026 A 
ATOM     16  C   UNL     1      -1.205  -0.716   0.010  0.00  0.00    +0.053 A 
ATOM     17  C   UNL     1      -1.557  -1.500  -1.079  0.00  0.00    +0.046 A 
ATOM     18  C   UNL     1      -2.748  -2.202  -1.068  0.00  0.00    +0.046 A 
ATOM     19 CL   UNL     1      -3.190  -3.183  -2.430  0.00  0.00    -0.083 Cl
ENDBRANCH   1  16
BRANCH  11  20
ATOM     20  S   UNL     1      -1.460   1.973  -1.105  0.00  0.00    -0.079 S 
BRANCH  20  21
ATOM     21  C   UNL     1      -0.859   3.605  -1.605  0.00  0.00    +0.157 C 
BRANCH  21  22
ATOM     22  C   UNL     1      -1.999   4.406  -2.179  0.00  0.00    +0.175 C 
ATOM     23  O   UNL     1      -3.110   3.921  -2.245  0.00  0.00    -0.291 OA
BRANCH  22  24
ATOM     24  C   UNL     1      -1.775   5.726  -2.644  0.00  0.00    +0.043 A 
ATOM     25  C   UNL     1      -0.581   6.416  -2.633  0.00  0.00    +0.095 A 
ATOM     26  N   UNL     1      -0.762   7.642  -3.159  0.00  0.00    -0.360 N 
ATOM     27  H   UNL     1      -0.064   8.308  -3.258  0.00  0.00    +0.165 HD
ATOM     28  C   UNL     1      -2.079   7.824  -3.532  0.00  0.00    +0.047 A 
ATOM     29  C   UNL     1      -2.773   6.642  -3.230  0.00  0.00    +0.010 A 
ATOM     30  C   UNL     1      -4.134   6.541  -3.504  0.00  0.00    +0.011 A 
ATOM     31  C   UNL     1      -4.796   7.608  -4.073  0.00  0.00    +0.001 A 
ATOM     32  C   UNL     1      -4.112   8.777  -4.372  0.00  0.00    +0.002 A 
ATOM     33  C   UNL     1      -2.765   8.889  -4.106  0.00  0.00    +0.026 A 
ENDBRANCH  22  24
ENDBRANCH  21  22
ENDBRANCH  20  21
ENDBRANCH  11  20
TORSDOF 5
