REMARK  Name = ZINC28786898
REMARK  8 active torsions:
REMARK  status: ('A' for Active; 'I' for Inactive)
REMARK    1  A    between atoms: C_1  and  C_2
REMARK    2  A    between atoms: C_6  and  N_34
REMARK    3  A    between atoms: C_7  and  N_8
REMARK    4  A    between atoms: C_9  and  C_11
REMARK    5  A    between atoms: C_11  and  O_12
REMARK    6  A    between atoms: O_12  and  C_13
REMARK    7  A    between atoms: C_13  and  C_15
REMARK    8  A    between atoms: C_28  and  C_29
REMARK                            x       y       z     vdW  Elec       q    Type
REMARK                         _______ _______ _______ _____ _____    ______ ____
ROOT
ATOM      1  C   UNL     1       0.434   7.869  -0.289  0.00  0.00    +0.073 A 
ATOM      2  C   UNL     1       1.365   6.783   0.022  0.00  0.00    +0.015 A 
ATOM      3  C   UNL     1       0.915   5.532   0.455  0.00  0.00    +0.011 A 
ATOM      4  C   UNL     1       1.819   4.548   0.728  0.00  0.00    +0.001 A 
ATOM      5  C   UNL     1       3.186   4.777   0.589  0.00  0.00    +0.002 A 
ATOM      6  C   UNL     1       3.658   5.983   0.169  0.00  0.00    +0.028 A 
ATOM      7  C   UNL     1       2.755   7.021  -0.127  0.00  0.00    +0.072 A 
ATOM      8  N   UNL     1       3.187   8.210  -0.540  0.00  0.00    -0.247 NA
ATOM      9  C   UNL     1       2.367   9.217  -0.830  0.00  0.00    +0.072 A 
ATOM     10  C   UNL     1       0.973   9.074  -0.713  0.00  0.00    -0.007 A 
ATOM     11  C   UNL     1       0.295  10.364  -1.104  0.00  0.00    +0.043 C 
ATOM     12  C   UNL     1       1.416  11.342  -1.482  0.00  0.00    +0.042 C 
ATOM     13  C   UNL     1       2.701  10.575  -1.294  0.00  0.00    -0.020 C 
ATOM     14  C   UNL     1       3.945  11.051  -1.514  0.00  0.00    +0.020 C 
ENDROOT
BRANCH  14  15
ATOM     15  C   UNL     1       4.130  12.427  -1.976  0.00  0.00    +0.013 A 
ATOM     16  C   UNL     1       5.307  13.104  -2.258  0.00  0.00    +0.015 A 
ATOM     17  C   UNL     1       5.224  14.408  -2.683  0.00  0.00    +0.008 A 
ATOM     18  C   UNL     1       4.002  14.989  -2.813  0.00  0.00    +0.046 A 
ATOM     19  S   UNL     1       2.899  13.671  -2.331  0.00  0.00    -0.097 S 
ENDBRANCH  14  15
BRANCH   1  20
ATOM     20  C   UNL     1      -1.026   7.688  -0.155  0.00  0.00    +0.341 C 
ATOM     21  O   UNL     1      -1.677   7.285  -1.098  0.00  0.00    -0.245 OA
BRANCH  20  22
ATOM     22  O   UNL     1      -1.636   7.969   1.013  0.00  0.00    -0.452 OA
BRANCH  22  23
ATOM     23  C   UNL     1      -3.072   7.768   1.072  0.00  0.00    +0.328 C 
BRANCH  23  25
ATOM     24  N   UNL     1      -4.886   8.023   2.734  0.00  0.00    -0.281 N 
ATOM     25  C   UNL     1      -3.575   8.132   2.446  0.00  0.00    +0.255 C 
ATOM     26  O   UNL     1      -2.798   8.523   3.291  0.00  0.00    -0.272 OA
ATOM     27  H   UNL     1      -5.602   7.745   1.946  0.00  0.00    +0.155 HD
BRANCH  24  34
ATOM     28  C   UNL     1      -3.621   6.639   4.874  0.00  0.00    +0.046 C 
ATOM     29  C   UNL     1      -4.749   7.610   5.110  0.00  0.00    -0.027 A 
ATOM     30  C   UNL     1      -5.197   7.850   6.394  0.00  0.00    +0.005 A 
ATOM     31  C   UNL     1      -6.233   8.740   6.611  0.00  0.00    +0.003 A 
ATOM     32  C   UNL     1      -6.822   9.393   5.544  0.00  0.00    +0.034 A 
ATOM     33  C   UNL     1      -6.375   9.161   4.258  0.00  0.00    +0.148 A 
ATOM     34  C   UNL     1      -5.339   8.264   4.036  0.00  0.00    +0.067 A 
BRANCH  33  35
ATOM     35  N   UNL     1      -7.003   9.865   3.117  0.00  0.00    +0.058 N 
ATOM     36  O   UNL     1      -7.980  10.568   3.299  0.00  0.00    -0.126 OA
ATOM     37  O   UNL     1      -6.542   9.741   1.997  0.00  0.00    -0.126 OA
ENDBRANCH  33  35
ENDBRANCH  24  34
ENDBRANCH  23  25
ENDBRANCH  22  23
ENDBRANCH  20  22
ENDBRANCH   1  20
TORSDOF 7
