REMARK  Name = ZINC09425278
REMARK  8 active torsions:
REMARK  status: ('A' for Active; 'I' for Inactive)
REMARK    1  A    between atoms: C_1  and  C_2
REMARK    2  A    between atoms: C_14  and  C_16
REMARK    3  A    between atoms: C_20  and  N_22
REMARK    4  A    between atoms: C_28  and  C_31
REMARK    5  A    between atoms: C_34  and  C_37
REMARK    6  A    between atoms: C_37  and  C_38
REMARK    7  A    between atoms: C_37  and  C_39
REMARK    8  A    between atoms: C_37  and  C_40
REMARK                            x       y       z     vdW  Elec       q    Type
REMARK                         _______ _______ _______ _____ _____    ______ ____
ROOT
ATOM      1  C   UNL     1       6.586   8.947  -2.946  0.00  0.00    +0.110 C 
ATOM      2  C   UNL     1       6.165   8.514  -1.565  0.00  0.00    +0.218 C 
ATOM      3  O   UNL     1       5.922   9.346  -0.716  0.00  0.00    -0.276 OA
ATOM      4  N   UNL     1       6.059   7.202  -1.273  0.00  0.00    -0.258 N 
ATOM      5  C   UNL     1       6.340   6.254  -2.258  0.00  0.00    +0.058 A 
ATOM      6  C   UNL     1       7.614   6.114  -2.785  0.00  0.00    +0.025 A 
ATOM      7  C   UNL     1       7.855   5.128  -3.726  0.00  0.00    +0.002 A 
ATOM      8  C   UNL     1       6.837   4.286  -4.136  0.00  0.00    +0.002 A 
ATOM      9  C   UNL     1       5.559   4.435  -3.623  0.00  0.00    +0.025 A 
ATOM     10  C   UNL     1       5.312   5.436  -2.699  0.00  0.00    +0.053 A 
ATOM     11  N   UNL     1       4.034   5.714  -2.231  0.00  0.00    -0.316 N 
ATOM     12  C   UNL     1       3.639   5.605  -0.937  0.00  0.00    +0.017 C 
ATOM     13  C   UNL     1       4.328   6.078   0.116  0.00  0.00    +0.037 C 
ATOM     14  C   UNL     1       5.654   6.798   0.056  0.00  0.00    +0.147 C 
ATOM     15  C   UNL     1       3.828   5.907   1.429  0.00  0.00    +0.163 C 
ATOM     16  O   UNL     1       4.459   6.367   2.361  0.00  0.00    -0.292 OA
ATOM     17  C   UNL     1       2.548   5.181   1.712  0.00  0.00    +0.088 C 
ATOM     18  C   UNL     1       2.314   4.152   0.599  0.00  0.00    +0.032 C 
ATOM     19  C   UNL     1       2.309   4.900  -0.733  0.00  0.00    +0.059 C 
ATOM     20  H   UNL     1       3.373   6.007  -2.878  0.00  0.00    +0.152 HD
ENDROOT
BRANCH  14  21
ATOM     21  C   UNL     1       6.716   5.893   0.625  0.00  0.00    -0.020 A 
ATOM     22  C   UNL     1       7.010   4.695  -0.001  0.00  0.00    +0.006 A 
ATOM     23  C   UNL     1       7.987   3.867   0.517  0.00  0.00    +0.003 A 
ATOM     24  C   UNL     1       8.664   4.230   1.667  0.00  0.00    +0.033 A 
ATOM     25  C   UNL     1       8.365   5.424   2.296  0.00  0.00    +0.127 A 
ATOM     26  C   UNL     1       7.391   6.256   1.774  0.00  0.00    +0.038 A 
BRANCH  25  27
ATOM     27  N   UNL     1       9.088   5.813   3.527  0.00  0.00    +0.056 N 
ATOM     28  O   UNL     1       8.826   6.866   4.081  0.00  0.00    -0.126 OA
ATOM     29  O   UNL     1       9.947   5.081   3.986  0.00  0.00    -0.126 OA
ENDBRANCH  25  27
ENDBRANCH  14  21
BRANCH  18  30
ATOM     30  C   UNL     1       0.988   3.468   0.806  0.00  0.00    -0.043 A 
ATOM     31  C   UNL     1       0.933   2.094   0.949  0.00  0.00    +0.004 A 
ATOM     32  C   UNL     1      -0.284   1.467   1.139  0.00  0.00    +0.004 A 
ATOM     33  C   UNL     1      -1.447   2.213   1.181  0.00  0.00    -0.042 A 
ATOM     34  C   UNL     1      -1.392   3.587   1.042  0.00  0.00    +0.004 A 
ATOM     35  C   UNL     1      -0.175   4.214   0.853  0.00  0.00    +0.004 A 
BRANCH  33  36
ATOM     36  C   UNL     1      -2.775   1.528   1.382  0.00  0.00    -0.013 C 
ATOM     37  C   UNL     1      -2.766   0.782   2.718  0.00  0.00    +0.015 C 
ATOM     38  C   UNL     1      -3.892   2.574   1.389  0.00  0.00    +0.015 C 
ATOM     39  C   UNL     1      -3.014   0.534   0.244  0.00  0.00    +0.015 C 
ENDBRANCH  33  36
ENDBRANCH  18  30
TORSDOF 4
