REMARK  Name = ZINC08586202
REMARK  11 active torsions:
REMARK  status: ('A' for Active; 'I' for Inactive)
REMARK    1  A    between atoms: C_1  and  C_2
REMARK    2  A    between atoms: C_4  and  C_36
REMARK    3  A    between atoms: C_7  and  C_13
REMARK    4  A    between atoms: C_8  and  O_12
REMARK    5  A    between atoms: C_13  and  N_63
REMARK    6  A    between atoms: C_14  and  C_15
REMARK    7  A    between atoms: C_14  and  N_63
REMARK    8  A    between atoms: C_24  and  C_25
REMARK    9  A    between atoms: C_24  and  N_63
REMARK   10  A    between atoms: N_29  and  C_30
REMARK   11  A    between atoms: C_30  and  C_31
REMARK                            x       y       z     vdW  Elec       q    Type
REMARK                         _______ _______ _______ _____ _____    ______ ____
ROOT
ATOM      1  N   UNL     1       0.268   1.287   0.533  0.00  0.00    +0.390 N 
ATOM      2  H   UNL     1      -0.059   1.520   1.478  0.00  0.00    -0.080 HD
ENDROOT
BRANCH   1   3
ATOM      3  C   UNL     1       1.365   2.206   0.163  0.00  0.00    -0.037 C 
BRANCH   3  10
ATOM      4  C   UNL     1      -0.892   9.751   1.065  0.00  0.00    +0.044 C 
ATOM      5  C   UNL     1      -0.491   8.354   0.665  0.00  0.00    -0.048 A 
ATOM      6  C   UNL     1      -0.477   8.004  -0.684  0.00  0.00    +0.007 A 
ATOM      7  C   UNL     1      -0.120   6.750  -1.076  0.00  0.00    -0.041 A 
ATOM      8  C   UNL     1       0.240   5.797  -0.111  0.00  0.00    +0.004 A 
ATOM      9  C   UNL     1       0.622   4.491  -0.479  0.00  0.00    +0.017 A 
ATOM     10  C   UNL     1       0.955   3.614   0.510  0.00  0.00    -0.002 A 
ATOM     11  C   UNL     1       0.921   4.024   1.848  0.00  0.00    +0.214 A 
ATOM     12  N   UNL     1       0.569   5.246   2.185  0.00  0.00    -0.213 NA
ATOM     13  C   UNL     1       0.227   6.150   1.260  0.00  0.00    +0.075 A 
ATOM     14  C   UNL     1      -0.148   7.454   1.627  0.00  0.00    +0.031 A 
ATOM     15  C   UNL     1      -0.110   6.388  -2.539  0.00  0.00    +0.044 C 
BRANCH  11  16
ATOM     16  O   UNL     1       1.259   3.142   2.820  0.00  0.00    -0.492 OA
ATOM     17  H   UNL     1       2.184   3.198   3.098  0.00  0.00    +0.294 HD
ENDBRANCH  11  16
ENDBRANCH   3  10
ENDBRANCH   1   3
BRANCH   1  18
ATOM     18  C   UNL     1      -0.857   1.436  -0.414  0.00  0.00    -0.042 C 
BRANCH  18  19
ATOM     19  C   UNL     1      -2.098   0.856   0.214  0.00  0.00    -0.060 A 
ATOM     20  C   UNL     1      -2.399  -0.482   0.041  0.00  0.00    +0.005 A 
ATOM     21  C   UNL     1      -3.533  -1.020   0.620  0.00  0.00    +0.050 A 
ATOM     22  C   UNL     1      -4.378  -0.215   1.367  0.00  0.00    +0.166 A 
ATOM     23  C   UNL     1      -4.078   1.135   1.538  0.00  0.00    +0.166 A 
ATOM     24  C   UNL     1      -2.936   1.665   0.959  0.00  0.00    +0.051 A 
ATOM     25  O   UNL     1      -5.053   1.705   2.304  0.00  0.00    -0.453 OA
ATOM     26  C   UNL     1      -6.162   0.788   2.260  0.00  0.00    +0.466 C 
ATOM     27  O   UNL     1      -5.541  -0.490   2.027  0.00  0.00    -0.453 OA
ENDBRANCH  18  19
ENDBRANCH   1  18
BRANCH   1  28
ATOM     28  C   UNL     1       0.753  -0.109   0.524  0.00  0.00    +0.001 C 
BRANCH  28  29
ATOM     29  C   UNL     1       1.728  -0.291   1.659  0.00  0.00    +0.136 A 
ATOM     30  N   UNL     1       3.034  -0.225   1.588  0.00  0.00    -0.115 NA
ATOM     31  N   UNL     1       3.509  -0.433   2.767  0.00  0.00    -0.023 NA
ATOM     32  N   UNL     1       2.539  -0.640   3.588  0.00  0.00    -0.044 NA
ATOM     33  N   UNL     1       1.424  -0.560   2.943  0.00  0.00    -0.224 N 
BRANCH  33  34
ATOM     34  C   UNL     1       0.081  -0.731   3.503  0.00  0.00    +0.221 C 
BRANCH  34  35
ATOM     35  C   UNL     1      -0.267  -2.197   3.536  0.00  0.00    +0.126 A 
ATOM     36  C   UNL     1      -0.017  -3.042   4.552  0.00  0.00    +0.046 A 
ATOM     37  C   UNL     1      -0.509  -4.308   4.163  0.00  0.00    +0.041 A 
ATOM     38  C   UNL     1      -1.024  -4.163   2.928  0.00  0.00    +0.195 A 
ATOM     39  O   UNL     1      -0.874  -2.882   2.554  0.00  0.00    -0.466 OA
ENDBRANCH  34  35
ENDBRANCH  33  34
ENDBRANCH  28  29
ENDBRANCH   1  28
TORSDOF 9
