REMARK  Name = ZINC39220777
REMARK  11 active torsions:
REMARK  status: ('A' for Active; 'I' for Inactive)
REMARK    1  A    between atoms: C_1  and  C_2
REMARK    2  A    between atoms: C_6  and  O_8
REMARK    3  A    between atoms: O_8  and  C_9
REMARK    4  A    between atoms: C_9  and  C_10
REMARK    5  A    between atoms: C_10  and  C_11
REMARK    6  A    between atoms: C_11  and  C_12
REMARK    7  A    between atoms: C_12  and  O_14
REMARK    8  A    between atoms: O_14  and  C_15
REMARK    9  A    between atoms: C_15  and  C_16
REMARK   10  A    between atoms: C_18  and  O_19
REMARK   11  A    between atoms: C_28  and  C_30
REMARK                            x       y       z     vdW  Elec       q    Type
REMARK                         _______ _______ _______ _____ _____    ______ ____
ROOT
ATOM      1  C   UNL     1       0.131 -10.305   6.356  0.00  0.00    +0.007 A 
ATOM      2  C   UNL     1       1.295 -10.951   5.991  0.00  0.00    +0.095 A 
ATOM      3  C   UNL     1       1.483 -12.283   6.333  0.00  0.00    +0.285 A 
ATOM      4  O   UNL     1       0.556 -12.964   7.015  0.00  0.00    -0.425 OA
ATOM      5  C   UNL     1      -0.599 -12.381   7.396  0.00  0.00    +0.141 A 
ATOM      6  C   UNL     1      -0.842 -11.026   7.080  0.00  0.00    +0.024 A 
ATOM      7  C   UNL     1      -2.042 -10.413   7.481  0.00  0.00    +0.014 A 
ATOM      8  C   UNL     1      -2.967 -11.125   8.177  0.00  0.00    +0.024 A 
ATOM      9  C   UNL     1      -2.732 -12.472   8.501  0.00  0.00    +0.037 A 
ATOM     10  C   UNL     1      -1.550 -13.098   8.101  0.00  0.00    +0.070 A 
ATOM     11  N   UNL     1      -3.666 -13.174   9.199  0.00  0.00    -0.286 N 
ATOM     12  C   UNL     1      -3.340 -14.315   9.774  0.00  0.00    +0.214 C 
ATOM     13  O   UNL     1      -2.178 -14.681   9.785  0.00  0.00    -0.276 OA
ATOM     14  C   UNL     1      -4.405 -15.166  10.416  0.00  0.00    +0.109 C 
ATOM     15  H   UNL     1      -4.572 -12.835   9.273  0.00  0.00    +0.155 HD
ENDROOT
BRANCH   3  16
ATOM     16  O   UNL     1       2.623 -12.901   5.971  0.00  0.00    -0.480 OA
ATOM     17  H   UNL     1       2.674 -13.826   6.248  0.00  0.00    +0.295 HD
ENDBRANCH   3  16
BRANCH   1  18
ATOM     18  C   UNL     1      -0.093  -8.859   5.995  0.00  0.00    +0.268 C 
BRANCH  18  19
ATOM     19  O   UNL     1       0.052  -8.693   4.583  0.00  0.00    -0.460 OA
BRANCH  19  20
ATOM     20  C   UNL     1      -0.118  -7.454   4.094  0.00  0.00    +0.307 C 
ATOM     21  O   UNL     1      -0.380  -6.541   4.840  0.00  0.00    -0.251 OA
BRANCH  20  22
ATOM     22  C   UNL     1       0.019  -7.203   2.615  0.00  0.00    +0.124 C 
BRANCH  22  23
ATOM     23  C   UNL     1      -0.221  -5.720   2.325  0.00  0.00    +0.052 C 
BRANCH  23  24
ATOM     24  C   UNL     1      -0.082  -5.464   0.823  0.00  0.00    +0.229 C 
BRANCH  24  25
ATOM     25  O   UNL     1      -0.306  -4.079   0.553  0.00  0.00    -0.492 OA
BRANCH  25  31
ATOM     26  C   UNL     1      -0.560  -0.504  -2.760  0.00  0.00    +0.044 C 
ATOM     27  C   UNL     1      -0.336  -1.949  -2.397  0.00  0.00    -0.047 A 
ATOM     28  C   UNL     1      -0.042  -2.872  -3.383  0.00  0.00    +0.003 A 
ATOM     29  C   UNL     1       0.164  -4.199  -3.053  0.00  0.00    +0.004 A 
ATOM     30  C   UNL     1       0.076  -4.605  -1.735  0.00  0.00    +0.045 A 
ATOM     31  C   UNL     1      -0.219  -3.681  -0.744  0.00  0.00    +0.121 A 
ATOM     32  C   UNL     1      -0.419  -2.349  -1.077  0.00  0.00    +0.049 A 
ENDBRANCH  25  31
ENDBRANCH  24  25
ENDBRANCH  23  24
ENDBRANCH  22  23
ENDBRANCH  20  22
ENDBRANCH  19  20
ENDBRANCH  18  19
ENDBRANCH   1  18
TORSDOF 9
