REMARK  Name = ZINC64414862
REMARK  3 active torsions:
REMARK  status: ('A' for Active; 'I' for Inactive)
REMARK    1  A    between atoms: C_4  and  N_11
REMARK    2  A    between atoms: C_5  and  C_7
REMARK    3  A    between atoms: N_17  and  C_20
REMARK                            x       y       z     vdW  Elec       q    Type
REMARK                         _______ _______ _______ _____ _____    ______ ____
ROOT
ATOM      1  N   UNL     1       3.621  -0.651  -0.046  0.00  0.00    -0.269 N 
ATOM      2  C   UNL     1       4.776   0.037  -0.146  0.00  0.00    +0.307 C 
ATOM      3  O   UNL     1       4.763   1.252  -0.130  0.00  0.00    -0.252 OA
ATOM      4  N   UNL     1       5.945  -0.623  -0.263  0.00  0.00    -0.283 N 
ATOM      5  C   UNL     1       5.976  -2.088  -0.388  0.00  0.00    +0.125 C 
ATOM      6  C   UNL     1       6.837  -2.454  -1.602  0.00  0.00    +0.107 C 
ATOM      7  N   UNL     1       8.153  -1.814  -1.476  0.00  0.00    -0.263 NA
ATOM      8  C   UNL     1       8.036  -0.350  -1.486  0.00  0.00    +0.107 C 
ATOM      9  C   UNL     1       7.224   0.103  -0.274  0.00  0.00    +0.125 C 
ATOM     10  H   UNL     1       3.634  -1.620  -0.020  0.00  0.00    +0.156 HD
ENDROOT
BRANCH   7  11
ATOM     11  C   UNL     1       9.066  -2.277  -2.529  0.00  0.00    +0.252 C 
ATOM     12  N   UNL     1      10.388  -1.660  -2.356  0.00  0.00    -0.351 N 
ATOM     13  C   UNL     1      10.637  -0.964  -3.427  0.00  0.00    +0.061 A 
ATOM     14  C   UNL     1      11.780  -0.136  -3.838  0.00  0.00    +0.027 A 
ATOM     15  C   UNL     1      11.757   0.482  -5.036  0.00  0.00    +0.002 A 
ATOM     16  C   UNL     1      10.674   0.371  -5.926  0.00  0.00    +0.002 A 
ATOM     17  C   UNL     1       9.577  -0.362  -5.648  0.00  0.00    +0.027 A 
ATOM     18  C   UNL     1       9.491  -1.081  -4.370  0.00  0.00    +0.061 A 
ATOM     19  N   UNL     1       8.578  -1.846  -3.845  0.00  0.00    -0.351 N 
ATOM     20  H   UNL     1      10.969  -1.754  -1.585  0.00  0.00    +0.163 HD
ATOM     21  H   UNL     1       7.729  -2.088  -4.249  0.00  0.00    +0.163 HD
ENDBRANCH   7  11
BRANCH   1  25
ATOM     22  C   UNL     1      -0.007   1.388   0.147  0.00  0.00    +0.001 A 
ATOM     23  C   UNL     1       1.161   2.021   0.530  0.00  0.00    +0.002 A 
ATOM     24  C   UNL     1       2.365   1.348   0.467  0.00  0.00    +0.024 A 
ATOM     25  C   UNL     1       2.402   0.034   0.019  0.00  0.00    +0.046 A 
ATOM     26  C   UNL     1       1.227  -0.599  -0.364  0.00  0.00    +0.076 A 
ATOM     27  C   UNL     1       0.026   0.080  -0.299  0.00  0.00    +0.014 A 
BRANCH  26  28
ATOM     28  C   UNL     1       1.262  -2.025  -0.851  0.00  0.00    +0.419 C 
ATOM     29  F   UNL     1      -0.034  -2.439  -1.175  0.00  0.00    -0.166 F 
ATOM     30  F   UNL     1       2.077  -2.110  -1.985  0.00  0.00    -0.166 F 
ATOM     31  F   UNL     1       1.777  -2.849   0.156  0.00  0.00    -0.166 F 
ENDBRANCH  26  28
ENDBRANCH   1  25
TORSDOF 3
