REMARK  Name = ZINC08754270
REMARK  7 active torsions:
REMARK  status: ('A' for Active; 'I' for Inactive)
REMARK    1  A    between atoms: C_1  and  C_2
REMARK    2  A    between atoms: C_5  and  C_29
REMARK    3  A    between atoms: C_9  and  C_10
REMARK    4  A    between atoms: C_9  and  N_53
REMARK    5  A    between atoms: C_10  and  C_12
REMARK    6  A    between atoms: C_10  and  O_28
REMARK    7  A    between atoms: C_12  and  N_13
REMARK                            x       y       z     vdW  Elec       q    Type
REMARK                         _______ _______ _______ _____ _____    ______ ____
ROOT
ATOM      1  N   UNL     1      -3.692   7.258   2.373  0.00  0.00    -0.337 N 
ATOM      2  C   UNL     1      -5.073   7.331   2.393  0.00  0.00    +0.050 A 
ATOM      3  C   UNL     1      -6.038   7.102   1.417  0.00  0.00    +0.027 A 
ATOM      4  C   UNL     1      -7.375   7.253   1.719  0.00  0.00    +0.017 A 
ATOM      5  C   UNL     1      -7.772   7.633   2.993  0.00  0.00    +0.019 A 
ATOM      6  C   UNL     1      -6.830   7.857   3.975  0.00  0.00    +0.026 A 
ATOM      7  C   UNL     1      -5.476   7.712   3.682  0.00  0.00    +0.009 A 
ATOM      8  C   UNL     1      -4.244   7.884   4.472  0.00  0.00    +0.009 A 
ATOM      9  C   UNL     1      -3.175   7.590   3.613  0.00  0.00    +0.050 A 
ATOM     10  C   UNL     1      -1.872   7.669   4.094  0.00  0.00    +0.027 A 
ATOM     11  C   UNL     1      -1.640   8.034   5.403  0.00  0.00    +0.017 A 
ATOM     12  C   UNL     1      -2.698   8.324   6.252  0.00  0.00    +0.019 A 
ATOM     13  C   UNL     1      -3.997   8.251   5.793  0.00  0.00    +0.026 A 
ATOM     14 BR   UNL     1      -2.359   8.822   8.044  0.00  0.00    -0.050 Br
ATOM     15 BR   UNL     1      -9.611   7.833   3.386  0.00  0.00    -0.050 Br
ENDROOT
BRANCH   1  16
ATOM     16  C   UNL     1      -2.890   6.887   1.204  0.00  0.00    +0.151 C 
BRANCH  16  17
ATOM     17  C   UNL     1      -2.673   5.373   1.193  0.00  0.00    +0.118 C 
BRANCH  17  18
ATOM     18  O   UNL     1      -3.928   4.713   1.016  0.00  0.00    -0.392 OA
ATOM     19  H   UNL     1      -4.380   4.941   0.192  0.00  0.00    +0.210 HD
ENDBRANCH  17  18
BRANCH  17  20
ATOM     20  C   UNL     1      -1.734   5.000   0.044  0.00  0.00    -0.045 C 
BRANCH  20  28
ATOM     21  C   UNL     1      -2.173   1.018  -1.248  0.00  0.00    +0.005 C 
ATOM     22  C   UNL     1      -0.756   1.594  -1.230  0.00  0.00    -0.031 C 
ATOM     23  C   UNL     1      -0.013   1.086   0.008  0.00  0.00    +0.003 C 
ATOM     24  C   UNL     1      -0.732   1.581   1.266  0.00  0.00    -0.031 C 
ATOM     25  C   UNL     1      -0.804   3.109   1.238  0.00  0.00    -0.076 C 
ATOM     26  C   UNL     1      -0.826   3.122  -1.185  0.00  0.00    -0.076 C 
ATOM     27  C   UNL     1       0.039   1.127   2.507  0.00  0.00    +0.005 C 
ATOM     28  N   UNL     1      -1.552   3.533   0.035  0.00  0.00    +0.382 N 
ATOM     29  H   UNL     1      -2.475   3.083   0.041  0.00  0.00    -0.082 HD
ENDBRANCH  20  28
ENDBRANCH  17  20
ENDBRANCH  16  17
ENDBRANCH   1  16
TORSDOF 5
