REMARK  Name = ZINC06812266
REMARK  9 active torsions:
REMARK  status: ('A' for Active; 'I' for Inactive)
REMARK    1  A    between atoms: C_1  and  C_2
REMARK    2  A    between atoms: C_2  and  C_3
REMARK    3  A    between atoms: C_3  and  C_4
REMARK    4  A    between atoms: C_10  and  C_26
REMARK    5  A    between atoms: C_12  and  C_15
REMARK    6  A    between atoms: N_17  and  C_18
REMARK    7  A    between atoms: C_23  and  O_24
REMARK    8  A    between atoms: O_24  and  C_25
REMARK    9  A    between atoms: C_29  and  C_32
REMARK                            x       y       z     vdW  Elec       q    Type
REMARK                         _______ _______ _______ _____ _____    ______ ____
ROOT
ATOM      1  C   UNL     1      -1.079   2.217   0.017  0.00  0.00    +0.151 A 
ATOM      2  N   UNL     1      -0.633   3.443   0.030  0.00  0.00    -0.132 NA
ATOM      3  N   UNL     1       0.655   3.447   0.018  0.00  0.00    -0.121 NA
ATOM      4  C   UNL     1       1.092   2.219  -0.007  0.00  0.00    +0.209 A 
ATOM      5  N   UNL     1       0.006   1.390  -0.001  0.00  0.00    -0.225 N 
ATOM      6  N   UNL     1       0.014   0.032  -0.007  0.00  0.00    -0.272 N 
ATOM      7  C   UNL     1       1.255  -0.548  -0.522  0.00  0.00    +0.140 C 
ATOM      8  C   UNL     1       2.451  -0.094   0.326  0.00  0.00    +0.166 C 
ATOM      9  S   UNL     1       2.765   1.657  -0.047  0.00  0.00    -0.069 S 
ATOM     10  H   UNL     1      -0.205  -0.335   0.907  0.00  0.00    +0.167 HD
ENDROOT
BRANCH   7  11
ATOM     11  C   UNL     1       1.159  -2.051  -0.476  0.00  0.00    -0.024 A 
ATOM     12  C   UNL     1       0.572  -2.674   0.610  0.00  0.00    +0.006 A 
ATOM     13  C   UNL     1       0.479  -4.053   0.649  0.00  0.00    +0.004 A 
ATOM     14  C   UNL     1       0.984  -4.809  -0.392  0.00  0.00    -0.050 A 
ATOM     15  C   UNL     1       1.577  -4.187  -1.475  0.00  0.00    +0.004 A 
ATOM     16  C   UNL     1       1.664  -2.808  -1.517  0.00  0.00    +0.006 A 
ATOM     17  C   UNL     1       0.888  -6.312  -0.346  0.00  0.00    +0.044 C 
ENDBRANCH   7  11
BRANCH   8  18
ATOM     18  C   UNL     1       3.665  -0.916  -0.023  0.00  0.00    +0.233 C 
ATOM     19  O   UNL     1       3.839  -1.286  -1.165  0.00  0.00    -0.274 OA
ATOM     20  N   UNL     1       4.557  -1.240   0.934  0.00  0.00    -0.282 N 
ATOM     21  H   UNL     1       4.452  -0.891   1.833  0.00  0.00    +0.155 HD
BRANCH  20  22
ATOM     22  C   UNL     1       5.635  -2.082   0.631  0.00  0.00    +0.076 A 
ATOM     23  C   UNL     1       6.232  -2.024  -0.620  0.00  0.00    +0.027 A 
ATOM     24  C   UNL     1       7.299  -2.851  -0.915  0.00  0.00    +0.002 A 
ATOM     25  C   UNL     1       7.768  -3.745   0.030  0.00  0.00    +0.004 A 
ATOM     26  C   UNL     1       7.175  -3.812   1.277  0.00  0.00    +0.047 A 
ATOM     27  C   UNL     1       6.108  -2.983   1.583  0.00  0.00    +0.141 A 
BRANCH  27  28
ATOM     28  O   UNL     1       5.524  -3.047   2.809  0.00  0.00    -0.493 OA
ATOM     29  C   UNL     1       6.061  -3.994   3.734  0.00  0.00    +0.277 C 
ENDBRANCH  27  28
ENDBRANCH  20  22
ENDBRANCH   8  18
BRANCH   1  30
ATOM     30  C   UNL     1      -2.526   1.793   0.020  0.00  0.00    +0.078 C 
BRANCH  30  32
ATOM     31  C   UNL     1      -4.474   1.200   1.467  0.00  0.00    +0.004 C 
ATOM     32  C   UNL     1      -3.006   1.630   1.464  0.00  0.00    +0.004 C 
ENDBRANCH  30  32
ENDBRANCH   1  30
TORSDOF 6
