REMARK  Name = ZINC14034272
REMARK  10 active torsions:
REMARK  status: ('A' for Active; 'I' for Inactive)
REMARK    1  A    between atoms: C_1  and  C_2
REMARK    2  A    between atoms: C_5  and  N_12
REMARK    3  A    between atoms: C_8  and  C_10
REMARK    4  A    between atoms: C_8  and  C_11
REMARK    5  A    between atoms: C_13  and  C_15
REMARK    6  A    between atoms: C_15  and  C_16
REMARK    7  A    between atoms: C_25  and  C_27
REMARK    8  A    between atoms: C_27  and  C_28
REMARK    9  A    between atoms: C_27  and  C_29
REMARK   10  A    between atoms: C_27  and  C_30
REMARK                            x       y       z     vdW  Elec       q    Type
REMARK                         _______ _______ _______ _____ _____    ______ ____
ROOT
ATOM      1  C   UNL     1      -0.019   1.526   0.010  0.00  0.00    +0.121 C 
ENDROOT
BRANCH   1   2
ATOM      2  C   UNL     1      -0.036   0.022  -0.270  0.00  0.00    +0.112 C 
ATOM      3  C   UNL     1       0.467  -0.213  -1.701  0.00  0.00    +0.103 C 
ATOM      4  S   UNL     1      -0.965  -1.072  -2.445  0.00  0.00    -0.086 S 
ATOM      5  C   UNL     1      -2.050  -1.093  -1.034  0.00  0.00    +0.172 A 
ATOM      6  N   UNL     1      -1.385  -0.481  -0.016  0.00  0.00    -0.283 N 
ATOM      7  C   UNL     1      -2.045  -0.386   1.181  0.00  0.00    +0.255 A 
ATOM      8  O   UNL     1      -1.504   0.151   2.134  0.00  0.00    -0.268 OA
ATOM      9  C   UNL     1      -3.337  -0.904   1.314  0.00  0.00    +0.094 A 
ATOM     10  C   UNL     1      -3.933  -1.503   0.242  0.00  0.00    +0.055 A 
ATOM     11  N   UNL     1      -3.267  -1.579  -0.906  0.00  0.00    -0.227 NA
BRANCH  10  12
ATOM     12  C   UNL     1      -5.325  -2.070   0.359  0.00  0.00    +0.005 C 
ATOM     13  C   UNL     1      -5.849  -1.846   1.779  0.00  0.00    +0.017 C 
ATOM     14  C   UNL     1      -6.247  -1.369  -0.641  0.00  0.00    +0.017 C 
ATOM     15  C   UNL     1      -5.292  -3.569   0.058  0.00  0.00    +0.017 C 
ENDBRANCH  10  12
ENDBRANCH   1   2
BRANCH   1  17
ATOM     16  N   UNL     1       1.637   3.363  -0.011  0.00  0.00    -0.312 N 
ATOM     17  C   UNL     1       1.393   2.040  -0.099  0.00  0.00    +0.215 C 
ATOM     18  O   UNL     1       2.311   1.264  -0.265  0.00  0.00    -0.276 OA
ATOM     19  H   UNL     1       0.904   3.984   0.122  0.00  0.00    +0.149 HD
BRANCH  16  23
ATOM     20  C   UNL     1       5.174   4.744  -3.177  0.00  0.00    +0.007 C 
ATOM     21  C   UNL     1       4.809   4.565  -1.702  0.00  0.00    -0.012 C 
ATOM     22  C   UNL     1       3.375   4.043  -1.592  0.00  0.00    +0.025 C 
ATOM     23  C   UNL     1       3.010   3.863  -0.117  0.00  0.00    +0.074 C 
ATOM     24  C   UNL     1       3.120   5.209   0.603  0.00  0.00    +0.028 C 
ATOM     25  C   UNL     1       4.553   5.731   0.492  0.00  0.00    -0.033 C 
ATOM     26  C   UNL     1       4.919   5.911  -0.983  0.00  0.00    +0.009 C 
ATOM     27  C   UNL     1       5.513   4.729   1.137  0.00  0.00    +0.011 C 
ATOM     28  C   UNL     1       4.663   7.077   1.212  0.00  0.00    +0.011 C 
ENDBRANCH  16  23
ENDBRANCH   1  17
TORSDOF 4
