REMARK  Name = ZINC39652743
REMARK  10 active torsions:
REMARK  status: ('A' for Active; 'I' for Inactive)
REMARK    1  A    between atoms: C_1  and  C_2
REMARK    2  A    between atoms: C_2  and  O_3
REMARK    3  A    between atoms: O_3  and  C_4
REMARK    4  A    between atoms: C_9  and  C_10
REMARK    5  A    between atoms: C_10  and  C_11
REMARK    6  A    between atoms: C_11  and  N_12
REMARK    7  A    between atoms: C_13  and  C_15
REMARK    8  A    between atoms: C_26  and  C_28
REMARK    9  A    between atoms: C_33  and  O_34
REMARK   10  A    between atoms: O_34  and  C_35
REMARK                            x       y       z     vdW  Elec       q    Type
REMARK                         _______ _______ _______ _____ _____    ______ ____
ROOT
ATOM      1  C   UNL     1       5.731   1.155  -4.425  0.00  0.00    +0.100 C 
ATOM      2  C   UNL     1       4.856   2.367  -4.814  0.00  0.00    +0.121 C 
ATOM      3  N   UNL     1       5.446   3.508  -4.074  0.00  0.00    -0.296 N 
ATOM      4  C   UNL     1       6.910   3.284  -4.160  0.00  0.00    +0.115 C 
ATOM      5  C   UNL     1       7.079   1.760  -4.001  0.00  0.00    -0.004 C 
ATOM      6  C   UNL     1       8.195   1.255  -4.910  0.00  0.00    -0.010 C 
ATOM      7  C   UNL     1       9.534   1.825  -4.432  0.00  0.00    -0.082 C 
ATOM      8  N   UNL     1       9.778   1.408  -3.046  0.00  0.00    +0.379 N 
ATOM      9  C   UNL     1       8.751   1.977  -2.164  0.00  0.00    -0.082 C 
ATOM     10  C   UNL     1       7.379   1.413  -2.546  0.00  0.00    -0.010 C 
ATOM     11  C   UNL     1       4.800   4.519  -3.462  0.00  0.00    +0.252 C 
ATOM     12  O   UNL     1       5.430   5.437  -2.974  0.00  0.00    -0.270 OA
ATOM     13  H   UNL     1       9.749   0.402  -2.988  0.00  0.00    -0.086 HD
ATOM     14  H   UNL     1      10.688   1.734  -2.753  0.00  0.00    -0.086 HD
ENDROOT
BRANCH  11  15
ATOM     15  C   UNL     1       3.326   4.513  -3.385  0.00  0.00    +0.099 A 
ATOM     16  C   UNL     1       2.560   3.990  -4.433  0.00  0.00    +0.020 A 
ATOM     17  C   UNL     1       1.182   4.007  -4.311  0.00  0.00    +0.021 A 
ATOM     18  C   UNL     1       0.606   4.536  -3.169  0.00  0.00    +0.114 A 
ATOM     19  N   UNL     1       1.348   5.024  -2.194  0.00  0.00    -0.220 NA
ATOM     20  C   UNL     1       2.669   5.027  -2.257  0.00  0.00    +0.233 A 
BRANCH  20  21
ATOM     21  O   UNL     1       3.391   5.533  -1.229  0.00  0.00    -0.437 OA
BRANCH  21  22
ATOM     22  C   UNL     1       2.717   6.111  -0.200  0.00  0.00    +0.130 A 
ATOM     23  C   UNL     1       2.649   7.493  -0.102  0.00  0.00    +0.046 A 
ATOM     24  C   UNL     1       1.963   8.077   0.945  0.00  0.00    +0.004 A 
ATOM     25  C   UNL     1       1.345   7.285   1.895  0.00  0.00    +0.000 A 
ATOM     26  C   UNL     1       1.412   5.908   1.801  0.00  0.00    +0.004 A 
ATOM     27  C   UNL     1       2.092   5.319   0.752  0.00  0.00    +0.046 A 
ENDBRANCH  21  22
ENDBRANCH  20  21
ENDBRANCH  11  15
BRANCH   1  29
ATOM     28  N   UNL     1       5.324  -0.919  -3.139  0.00  0.00    -0.315 N 
ATOM     29  C   UNL     1       5.107   0.404  -3.276  0.00  0.00    +0.218 C 
ATOM     30  O   UNL     1       4.411   0.991  -2.476  0.00  0.00    -0.275 OA
ATOM     31  H   UNL     1       5.881  -1.388  -3.780  0.00  0.00    +0.149 HD
BRANCH  28  32
ATOM     32  C   UNL     1       4.718  -1.648  -2.022  0.00  0.00    +0.109 C 
BRANCH  32  33
ATOM     33  C   UNL     1       5.120  -3.123  -2.098  0.00  0.00    +0.057 C 
BRANCH  33  39
ATOM     34  C   UNL     1       3.201  -4.357  -1.058  0.00  0.00    +0.124 A 
ATOM     35  C   UNL     1       2.632  -5.052  -0.001  0.00  0.00    +0.046 A 
ATOM     36  C   UNL     1       3.354  -5.255   1.159  0.00  0.00    +0.004 A 
ATOM     37  C   UNL     1       4.643  -4.767   1.267  0.00  0.00    +0.000 A 
ATOM     38  C   UNL     1       5.213  -4.074   0.215  0.00  0.00    +0.007 A 
ATOM     39  C   UNL     1       4.496  -3.873  -0.950  0.00  0.00    -0.004 A 
BRANCH  34  40
ATOM     40  O   UNL     1       2.493  -4.157  -2.200  0.00  0.00    -0.492 OA
BRANCH  40  42
ATOM     41  C   UNL     1       0.530  -4.362  -3.596  0.00  0.00    +0.048 C 
ATOM     42  C   UNL     1       1.165  -4.684  -2.242  0.00  0.00    +0.225 C 
ENDBRANCH  40  42
ENDBRANCH  34  40
ENDBRANCH  33  39
ENDBRANCH  32  33
ENDBRANCH  28  32
ENDBRANCH   1  29
TORSDOF 9
