REMARK  Name = ZINC00642408
REMARK  7 active torsions:
REMARK  status: ('A' for Active; 'I' for Inactive)
REMARK    1  A    between atoms: C_1  and  C_2
REMARK    2  A    between atoms: C_9  and  C_34
REMARK    3  A    between atoms: C_10  and  C_11
REMARK    4  A    between atoms: N_13  and  N_14
REMARK    5  A    between atoms: C_15  and  C_16
REMARK    6  A    between atoms: C_17  and  C_27
REMARK    7  A    between atoms: N_19  and  C_21
REMARK                            x       y       z     vdW  Elec       q    Type
REMARK                         _______ _______ _______ _____ _____    ______ ____
ROOT
ATOM      1  C   UNL     1       7.712   2.893  -0.471  0.00  0.00    +0.113 A 
ATOM      2  C   UNL     1       8.590   4.060  -0.596  0.00  0.00    +0.029 A 
ATOM      3  C   UNL     1       9.864   3.586  -0.682  0.00  0.00    +0.123 A 
ATOM      4  N   UNL     1       9.814   2.232  -0.627  0.00  0.00    -0.239 N 
ATOM      5  N   UNL     1       8.483   1.823  -0.498  0.00  0.00    -0.165 NA
ENDROOT
BRANCH   2   6
ATOM      6  C   UNL     1       8.171   5.483  -0.620  0.00  0.00    -0.014 A 
ATOM      7  C   UNL     1       7.159   5.899  -1.482  0.00  0.00    +0.010 A 
ATOM      8  C   UNL     1       6.770   7.223  -1.497  0.00  0.00    +0.020 A 
ATOM      9  C   UNL     1       7.391   8.139  -0.666  0.00  0.00    +0.041 A 
ATOM     10  C   UNL     1       8.401   7.731   0.189  0.00  0.00    +0.020 A 
ATOM     11  C   UNL     1       8.794   6.409   0.215  0.00  0.00    +0.010 A 
ATOM     12 CL   UNL     1       6.902   9.805  -0.695  0.00  0.00    -0.084 Cl
ENDBRANCH   2   6
BRANCH   4  13
ATOM     13  C   UNL     1      10.921   1.377  -0.691  0.00  0.00    +0.065 A 
ATOM     14  C   UNL     1      12.200   1.903  -0.827  0.00  0.00    +0.028 A 
ATOM     15  C   UNL     1      13.290   1.057  -0.884  0.00  0.00    +0.002 A 
ATOM     16  C   UNL     1      13.109  -0.312  -0.818  0.00  0.00    +0.000 A 
ATOM     17  C   UNL     1      11.837  -0.839  -0.689  0.00  0.00    +0.002 A 
ATOM     18  C   UNL     1      10.743   0.001  -0.625  0.00  0.00    +0.028 A 
ENDBRANCH   4  13
BRANCH   1  20
ATOM     19  N   UNL     1       5.587   1.796  -0.248  0.00  0.00    -0.186 NA
ATOM     20  C   UNL     1       6.245   2.912  -0.346  0.00  0.00    +0.160 C 
BRANCH  19  23
ATOM     21  C   UNL     1       3.509   0.656  -0.028  0.00  0.00    +0.282 C 
ATOM     22  O   UNL     1       4.111  -0.400   0.055  0.00  0.00    -0.267 OA
ATOM     23  N   UNL     1       4.191   1.814  -0.129  0.00  0.00    -0.202 N 
ATOM     24  H   UNL     1       3.716   2.659  -0.120  0.00  0.00    +0.178 HD
BRANCH  21  34
ATOM     25  C   UNL     1      -1.980   0.977  -3.871  0.00  0.00    +0.044 C 
ATOM     26  C   UNL     1      -0.844   0.896  -2.886  0.00  0.00    -0.046 A 
ATOM     27  C   UNL     1       0.483   0.918  -3.337  0.00  0.00    +0.021 A 
ATOM     28  C   UNL     1       1.503   0.846  -2.451  0.00  0.00    +0.094 A 
ATOM     29  N   UNL     1       1.256   0.753  -1.117  0.00  0.00    -0.295 N 
ATOM     30  C   UNL     1      -0.025   0.730  -0.645  0.00  0.00    +0.139 A 
ATOM     31  C   UNL     1      -1.099   0.808  -1.550  0.00  0.00    +0.050 A 
ATOM     32  N   UNL     1       0.012   0.634   0.683  0.00  0.00    -0.232 NA
ATOM     33  C   UNL     1       1.269   0.594   1.095  0.00  0.00    +0.069 A 
ATOM     34  C   UNL     1       2.092   0.667  -0.018  0.00  0.00    +0.133 A 
ATOM     35  C   UNL     1       1.727   0.488   2.526  0.00  0.00    +0.068 C 
ENDBRANCH  21  34
ENDBRANCH  19  23
ENDBRANCH   1  20
TORSDOF 5
