REMARK  Name = ZINC34750234
REMARK  9 active torsions:
REMARK  status: ('A' for Active; 'I' for Inactive)
REMARK    1  A    between atoms: C_1  and  C_2
REMARK    2  A    between atoms: C_2  and  C_35
REMARK    3  A    between atoms: C_9  and  N_24
REMARK    4  A    between atoms: C_11  and  S_13
REMARK    5  A    between atoms: S_13  and  C_14
REMARK    6  A    between atoms: C_14  and  C_15
REMARK    7  A    between atoms: N_17  and  C_18
REMARK    8  A    between atoms: N_27  and  C_30
REMARK    9  A    between atoms: C_30  and  C_31
REMARK                            x       y       z     vdW  Elec       q    Type
REMARK                         _______ _______ _______ _____ _____    ______ ____
ROOT
ATOM      1  C   UNL     1      -0.397   1.348  -0.202  0.00  0.00    +0.041 C 
ATOM      2  C   UNL     1      -0.400  -0.182  -0.199  0.00  0.00    +0.068 C 
ATOM      3  C   UNL     1      -1.845  -0.687  -0.151  0.00  0.00    +0.071 C 
ATOM      4  C   UNL     1      -2.417  -0.363   1.227  0.00  0.00    -0.020 A 
ATOM      5  C   UNL     1      -1.572  -0.072   2.245  0.00  0.00    +0.021 A 
ATOM      6  S   UNL     1      -2.616   0.238   3.644  0.00  0.00    -0.071 S 
ATOM      7  C   UNL     1      -4.180  -0.020   2.868  0.00  0.00    +0.115 A 
ATOM      8  C   UNL     1      -3.836  -0.343   1.530  0.00  0.00    +0.051 A 
ATOM      9  C   UNL     1      -4.912  -0.611   0.634  0.00  0.00    +0.134 A 
ATOM     10  N   UNL     1      -6.135  -0.529   1.151  0.00  0.00    -0.206 NA
ATOM     11  C   UNL     1      -6.384  -0.221   2.415  0.00  0.00    +0.191 A 
ATOM     12  N   UNL     1      -5.422   0.040   3.303  0.00  0.00    -0.214 NA
ATOM     13  C   UNL     1      -0.078  -0.032   2.171  0.00  0.00    +0.203 C 
ATOM     14  O   UNL     1       0.324  -0.654   0.941  0.00  0.00    -0.368 OA
ATOM     15  C   UNL     1       0.272  -0.693  -1.474  0.00  0.00    +0.041 C 
ENDROOT
BRANCH   9  16
ATOM     16  N   UNL     1      -4.697  -0.936  -0.693  0.00  0.00    -0.318 N 
ATOM     17  C   UNL     1      -4.426  -2.325  -1.097  0.00  0.00    +0.088 C 
ATOM     18  C   UNL     1      -5.370  -2.688  -2.248  0.00  0.00    -0.059 C 
ATOM     19  N   UNL     1      -5.225  -1.704  -3.328  0.00  0.00    +0.384 N 
ATOM     20  C   UNL     1      -5.663  -0.382  -2.861  0.00  0.00    -0.059 C 
ATOM     21  C   UNL     1      -4.739   0.095  -1.741  0.00  0.00    +0.088 C 
ATOM     22  H   UNL     1      -4.258  -1.656  -3.611  0.00  0.00    -0.081 HD
BRANCH  19  23
ATOM     23  C   UNL     1      -6.048  -2.113  -4.475  0.00  0.00    -0.052 C 
BRANCH  23  24
ATOM     24  C   UNL     1      -5.806  -1.171  -5.627  0.00  0.00    -0.053 C 
ATOM     25  C   UNL     1      -5.434  -1.643  -6.791  0.00  0.00    +0.002 C 
ENDBRANCH  23  24
ENDBRANCH  19  23
ENDBRANCH   9  16
BRANCH  11  26
ATOM     26  S   UNL     1      -8.062  -0.153   2.949  0.00  0.00    -0.077 S 
BRANCH  26  27
ATOM     27  C   UNL     1      -7.946   0.293   4.703  0.00  0.00    +0.173 C 
BRANCH  27  28
ATOM     28  C   UNL     1      -9.331   0.386   5.290  0.00  0.00    +0.227 C 
ATOM     29  O   UNL     1     -10.301   0.172   4.593  0.00  0.00    -0.275 OA
ATOM     30  N   UNL     1      -9.493   0.707   6.589  0.00  0.00    -0.285 N 
ATOM     31  H   UNL     1      -8.724   0.953   7.127  0.00  0.00    +0.155 HD
BRANCH  30  32
ATOM     32  C   UNL     1     -10.769   0.684   7.162  0.00  0.00    +0.033 A 
ATOM     33  C   UNL     1     -11.111   1.614   8.136  0.00  0.00    +0.023 A 
ATOM     34  C   UNL     1     -12.372   1.588   8.699  0.00  0.00    +0.002 A 
ATOM     35  C   UNL     1     -13.293   0.639   8.296  0.00  0.00    +0.000 A 
ATOM     36  C   UNL     1     -12.954  -0.289   7.327  0.00  0.00    +0.002 A 
ATOM     37  C   UNL     1     -11.698  -0.265   6.755  0.00  0.00    +0.023 A 
ENDBRANCH  30  32
ENDBRANCH  27  28
ENDBRANCH  26  27
ENDBRANCH  11  26
TORSDOF 7
