REMARK  Name = ZINC40267232
REMARK  10 active torsions:
REMARK  status: ('A' for Active; 'I' for Inactive)
REMARK    1  A    between atoms: C_1  and  C_2
REMARK    2  A    between atoms: C_2  and  C_3
REMARK    3  A    between atoms: C_2  and  C_4
REMARK    4  A    between atoms: C_4  and  N_5
REMARK    5  A    between atoms: C_12  and  N_18
REMARK    6  A    between atoms: N_18  and  C_19
REMARK    7  A    between atoms: C_24  and  O_32
REMARK    8  A    between atoms: C_25  and  O_30
REMARK    9  A    between atoms: O_30  and  C_31
REMARK   10  A    between atoms: O_32  and  C_33
REMARK                            x       y       z     vdW  Elec       q    Type
REMARK                         _______ _______ _______ _____ _____    ______ ____
ROOT
ATOM      1  N   UNL     1      -2.807  -2.001   1.188  0.00  0.00    -0.293 NA
ATOM      2  C   UNL     1      -3.975  -2.717   0.656  0.00  0.00    +0.106 C 
ATOM      3  C   UNL     1      -3.530  -4.062   0.068  0.00  0.00    +0.139 C 
ATOM      4  N   UNL     1      -2.697  -4.747   1.062  0.00  0.00    -0.327 N 
ATOM      5  C   UNL     1      -2.336  -6.062   1.121  0.00  0.00    +0.067 A 
ATOM      6  C   UNL     1      -2.611  -7.156   0.307  0.00  0.00    +0.030 A 
ATOM      7  C   UNL     1      -2.067  -8.372   0.679  0.00  0.00    +0.025 A 
ATOM      8  C   UNL     1      -1.276  -8.508   1.816  0.00  0.00    +0.032 A 
ATOM      9  C   UNL     1      -0.988  -7.430   2.642  0.00  0.00    +0.050 A 
ATOM     10  C   UNL     1      -1.532  -6.192   2.280  0.00  0.00    +0.066 A 
ATOM     11  N   UNL     1      -1.451  -4.973   2.847  0.00  0.00    -0.342 N 
ATOM     12  C   UNL     1      -2.131  -4.118   2.139  0.00  0.00    +0.102 A 
ATOM     13  C   UNL     1      -2.304  -2.642   2.414  0.00  0.00    +0.156 C 
ATOM     14  H   UNL     1      -0.963  -4.764   3.659  0.00  0.00    +0.167 HD
ENDROOT
BRANCH   8  15
ATOM     15  N   UNL     1      -0.756  -9.767   2.135  0.00  0.00    -0.306 N 
ATOM     16  H   UNL     1      -1.031 -10.548   1.630  0.00  0.00    +0.150 HD
BRANCH  15  17
ATOM     17  C   UNL     1       0.203  -9.906   3.234  0.00  0.00    +0.296 C 
ATOM     18  C   UNL     1       1.150 -11.045   2.950  0.00  0.00    +0.029 A 
ATOM     19  C   UNL     1       2.055 -11.295   1.948  0.00  0.00    +0.013 A 
ATOM     20  C   UNL     1       2.802 -12.463   1.959  0.00  0.00    +0.050 A 
ATOM     21  C   UNL     1       2.642 -13.385   2.980  0.00  0.00    +0.162 A 
ATOM     22  C   UNL     1       1.728 -13.144   4.002  0.00  0.00    +0.176 A 
ATOM     23  C   UNL     1       0.974 -11.965   3.991  0.00  0.00    +0.112 A 
ATOM     24  C   UNL     1      -0.049 -11.423   4.897  0.00  0.00    +0.345 C 
ATOM     25  O   UNL     1      -0.445 -11.970   5.908  0.00  0.00    -0.245 OA
ATOM     26  O   UNL     1      -0.483 -10.233   4.445  0.00  0.00    -0.435 OA
BRANCH  22  27
ATOM     27  O   UNL     1       1.569 -14.047   5.003  0.00  0.00    -0.491 OA
ATOM     28  C   UNL     1       2.401 -13.892   6.154  0.00  0.00    +0.277 C 
ENDBRANCH  22  27
BRANCH  21  29
ATOM     29  O   UNL     1       3.377 -14.529   2.983  0.00  0.00    -0.491 OA
ATOM     30  C   UNL     1       4.296 -14.712   1.903  0.00  0.00    +0.277 C 
ENDBRANCH  21  29
ENDBRANCH  15  17
ENDBRANCH   8  15
BRANCH   1  31
ATOM     31  C   UNL     1      -3.121  -0.586   1.424  0.00  0.00    +0.088 C 
BRANCH  31  33
ATOM     32  C   UNL     1      -1.094   0.139   0.155  0.00  0.00    +0.008 C 
ATOM     33  C   UNL     1      -1.822   0.219   1.498  0.00  0.00    -0.003 C 
ATOM     34  C   UNL     1      -2.144   1.681   1.817  0.00  0.00    +0.008 C 
ENDBRANCH  31  33
ENDBRANCH   1  31
TORSDOF 6
