REMARK  Name = ZINC02374955
REMARK  14 active torsions:
REMARK  status: ('A' for Active; 'I' for Inactive)
REMARK    1  A    between atoms: C_1  and  C_2
REMARK    2  A    between atoms: C_2  and  C_3
REMARK    3  A    between atoms: C_3  and  S_4
REMARK    4  A    between atoms: S_4  and  C_5
REMARK    5  A    between atoms: C_14  and  C_16
REMARK    6  A    between atoms: C_14  and  C_17
REMARK    7  A    between atoms: C_18  and  S_20
REMARK    8  A    between atoms: S_20  and  C_21
REMARK    9  A    between atoms: C_21  and  C_22
REMARK   10  A    between atoms: N_24  and  C_25
REMARK   11  A    between atoms: C_28  and  O_33
REMARK   12  A    between atoms: C_30  and  O_31
REMARK   13  A    between atoms: O_31  and  C_32
REMARK   14  A    between atoms: O_33  and  C_34
REMARK                            x       y       z     vdW  Elec       q    Type
REMARK                         _______ _______ _______ _____ _____    ______ ____
ROOT
ATOM      1  C   UNL     1      -0.972   1.675  -3.961  0.00  0.00    +0.190 A 
ATOM      2  N   UNL     1      -0.690   1.469  -5.241  0.00  0.00    -0.215 NA
ATOM      3  C   UNL     1      -1.452   1.992  -6.182  0.00  0.00    +0.114 A 
ATOM      4  C   UNL     1      -2.579   2.779  -5.868  0.00  0.00    +0.043 A 
ATOM      5  C   UNL     1      -3.330   3.295  -7.011  0.00  0.00    -0.020 A 
ATOM      6  C   UNL     1      -2.877   2.971  -8.241  0.00  0.00    +0.021 A 
ATOM      7  S   UNL     1      -1.442   1.974  -7.957  0.00  0.00    -0.071 S 
ATOM      8  C   UNL     1      -3.484   3.384  -9.546  0.00  0.00    +0.203 C 
ATOM      9  O   UNL     1      -4.794   3.909  -9.277  0.00  0.00    -0.368 OA
ATOM     10  C   UNL     1      -4.819   4.864  -8.213  0.00  0.00    +0.068 C 
ATOM     11  C   UNL     1      -4.577   4.165  -6.872  0.00  0.00    +0.071 C 
ATOM     12  C   UNL     1      -3.727   5.910  -8.444  0.00  0.00    +0.041 C 
ATOM     13  C   UNL     1      -6.184   5.554  -8.183  0.00  0.00    +0.041 C 
ATOM     14  C   UNL     1      -2.829   2.964  -4.478  0.00  0.00    +0.110 A 
ATOM     15  N   UNL     1      -2.020   2.401  -3.595  0.00  0.00    -0.215 NA
ENDROOT
BRANCH   1  16
ATOM     16  S   UNL     1       0.062   0.964  -2.723  0.00  0.00    -0.086 S 
BRANCH  16  17
ATOM     17  C   UNL     1      -0.776   1.559  -1.234  0.00  0.00    +0.077 C 
BRANCH  17  19
ATOM     18  C   UNL     1      -0.744   1.556   1.264  0.00  0.00    +0.004 C 
ATOM     19  C   UNL     1      -0.036   1.052   0.005  0.00  0.00    +0.008 C 
ENDBRANCH  17  19
ENDBRANCH  16  17
ENDBRANCH   1  16
BRANCH  14  20
ATOM     20  S   UNL     1      -4.204   3.925  -3.942  0.00  0.00    -0.096 S 
BRANCH  20  21
ATOM     21  C   UNL     1      -3.998   3.794  -2.148  0.00  0.00    +0.171 C 
BRANCH  21  22
ATOM     22  C   UNL     1      -5.096   4.564  -1.459  0.00  0.00    +0.228 C 
ATOM     23  O   UNL     1      -5.935   5.144  -2.116  0.00  0.00    -0.275 OA
ATOM     24  N   UNL     1      -5.145   4.607  -0.113  0.00  0.00    -0.282 N 
ATOM     25  H   UNL     1      -4.514   4.092   0.413  0.00  0.00    +0.155 HD
BRANCH  24  26
ATOM     26  C   UNL     1      -6.110   5.399   0.529  0.00  0.00    +0.076 A 
ATOM     27  C   UNL     1      -7.370   5.547  -0.032  0.00  0.00    +0.030 A 
ATOM     28  C   UNL     1      -8.320   6.327   0.600  0.00  0.00    +0.047 A 
ATOM     29  C   UNL     1      -8.016   6.963   1.795  0.00  0.00    +0.124 A 
ATOM     30  C   UNL     1      -6.758   6.818   2.359  0.00  0.00    +0.093 A 
ATOM     31  C   UNL     1      -5.805   6.032   1.731  0.00  0.00    +0.145 A 
BRANCH  31  32
ATOM     32  O   UNL     1      -4.572   5.884   2.285  0.00  0.00    -0.493 OA
ATOM     33  C   UNL     1      -4.330   6.562   3.520  0.00  0.00    +0.277 C 
ENDBRANCH  31  32
BRANCH  29  34
ATOM     34  O   UNL     1      -8.953   7.729   2.414  0.00  0.00    -0.495 OA
ATOM     35  C   UNL     1     -10.229   7.835   1.778  0.00  0.00    +0.277 C 
ENDBRANCH  29  34
ENDBRANCH  24  26
ENDBRANCH  21  22
ENDBRANCH  20  21
ENDBRANCH  14  20
TORSDOF 9
