REMARK  Name = ZINC39706819
REMARK  7 active torsions:
REMARK  status: ('A' for Active; 'I' for Inactive)
REMARK    1  A    between atoms: C_1  and  C_2
REMARK    2  A    between atoms: C_2  and  O_3
REMARK    3  A    between atoms: O_3  and  C_4
REMARK    4  A    between atoms: C_4  and  C_6
REMARK    5  A    between atoms: C_7  and  C_36
REMARK    6  A    between atoms: C_14  and  C_15
REMARK    7  A    between atoms: C_25  and  C_27
REMARK                            x       y       z     vdW  Elec       q    Type
REMARK                         _______ _______ _______ _____ _____    ______ ____
ROOT
ATOM      1  C   UNL     1       1.237  -2.359  -2.582  0.00  0.00    +0.085 C 
ATOM      2  C   UNL     1       1.625  -3.668  -2.607  0.00  0.00    +0.053 C 
ATOM      3  N   UNL     1       2.416  -4.119  -3.573  0.00  0.00    -0.228 NA
ATOM      4  C   UNL     1       2.885  -3.394  -4.554  0.00  0.00    +0.178 A 
ATOM      5  N   UNL     1       2.618  -2.054  -4.717  0.00  0.00    -0.275 N 
ATOM      6  C   UNL     1       3.156  -1.412  -5.762  0.00  0.00    +0.268 A 
ATOM      7  O   UNL     1       2.949  -0.228  -5.947  0.00  0.00    -0.266 OA
ATOM      8  C   UNL     1       4.011  -2.191  -6.683  0.00  0.00    +0.080 A 
ATOM      9  C   UNL     1       4.678  -1.780  -7.820  0.00  0.00    +0.026 C 
ATOM     10  S   UNL     1       3.946  -3.807  -5.926  0.00  0.00    -0.046 S 
ATOM     11  C   UNL     1       1.730  -1.450  -3.684  0.00  0.00    +0.162 C 
ATOM     12  C   UNL     1       1.151  -4.608  -1.529  0.00  0.00    +0.066 C 
ENDROOT
BRANCH   9  13
ATOM     13  C   UNL     1       5.440  -2.694  -8.551  0.00  0.00    -0.018 C 
ATOM     14  C   UNL     1       6.174  -2.445  -9.710  0.00  0.00    +0.003 A 
ATOM     15  C   UNL     1       6.380  -1.278 -10.477  0.00  0.00    +0.010 A 
ATOM     16  C   UNL     1       7.162  -1.329 -11.584  0.00  0.00    +0.001 A 
ATOM     17  C   UNL     1       7.777  -2.517 -11.994  0.00  0.00    +0.002 A 
ATOM     18  C   UNL     1       7.625  -3.674 -11.308  0.00  0.00    +0.026 A 
ATOM     19  C   UNL     1       6.820  -3.700 -10.136  0.00  0.00    +0.043 A 
ATOM     20  N   UNL     1       6.519  -4.676  -9.309  0.00  0.00    -0.380 N 
ATOM     21  C   UNL     1       5.647  -4.162  -8.248  0.00  0.00    +0.149 C 
ATOM     22  H   UNL     1       6.827  -5.592  -9.387  0.00  0.00    +0.160 HD
ENDBRANCH   9  13
BRANCH  11  23
ATOM     23  C   UNL     1       0.525  -0.873  -4.382  0.00  0.00    -0.016 A 
ATOM     24  C   UNL     1      -0.155  -1.627  -5.320  0.00  0.00    +0.010 A 
ATOM     25  C   UNL     1      -1.261  -1.102  -5.962  0.00  0.00    +0.050 A 
ATOM     26  C   UNL     1      -1.690   0.182  -5.668  0.00  0.00    +0.166 A 
ATOM     27  C   UNL     1      -1.004   0.942  -4.723  0.00  0.00    +0.167 A 
ATOM     28  C   UNL     1       0.100   0.407  -4.079  0.00  0.00    +0.055 A 
ATOM     29  O   UNL     1      -1.615   2.158  -4.613  0.00  0.00    -0.453 OA
ATOM     30  C   UNL     1      -2.432   2.285  -5.792  0.00  0.00    +0.466 C 
ATOM     31  O   UNL     1      -2.731   0.922  -6.150  0.00  0.00    -0.453 OA
ENDBRANCH  11  23
BRANCH   1  32
ATOM     32  C   UNL     1       0.399  -1.872  -1.562  0.00  0.00    +0.339 C 
ATOM     33  O   UNL     1      -0.093  -2.643  -0.758  0.00  0.00    -0.245 OA
BRANCH  32  34
ATOM     34  O   UNL     1       0.139  -0.549  -1.476  0.00  0.00    -0.462 OA
BRANCH  34  36
ATOM     35  C   UNL     1      -0.896   1.394  -0.479  0.00  0.00    +0.048 C 
ATOM     36  C   UNL     1      -0.720  -0.125  -0.416  0.00  0.00    +0.229 C 
ENDBRANCH  34  36
ENDBRANCH  32  34
ENDBRANCH   1  32
TORSDOF 5
