REMARK  Name = ZINC28291733
REMARK  6 active torsions:
REMARK  status: ('A' for Active; 'I' for Inactive)
REMARK    1  A    between atoms: C_1  and  C_2
REMARK    2  A    between atoms: C_9  and  C_13
REMARK    3  A    between atoms: N_15  and  C_16
REMARK    4  A    between atoms: C_16  and  C_17
REMARK    5  A    between atoms: C_17  and  C_19
REMARK    6  A    between atoms: C_17  and  N_24
REMARK                            x       y       z     vdW  Elec       q    Type
REMARK                         _______ _______ _______ _____ _____    ______ ____
ROOT
ATOM      1  C   UNL     1       3.446  -4.203  -2.442  0.00  0.00    +0.279 C 
ATOM      2  O   UNL     1       2.979  -3.831  -3.500  0.00  0.00    -0.267 OA
ATOM      3  N   UNL     1       3.303  -3.445  -1.337  0.00  0.00    -0.310 N 
ATOM      4  H   UNL     1       3.726  -3.782  -0.380  0.00  0.00    +0.149 HD
ENDROOT
BRANCH   1  13
ATOM      5  C   UNL     1       7.087  -8.937   1.748  0.00  0.00    +0.044 C 
ATOM      6  C   UNL     1       6.546  -8.563   0.391  0.00  0.00    -0.047 A 
ATOM      7  C   UNL     1       6.747  -9.415  -0.686  0.00  0.00    +0.004 A 
ATOM      8  C   UNL     1       6.263  -9.092  -1.923  0.00  0.00    +0.015 A 
ATOM      9  C   UNL     1       5.563  -7.899  -2.100  0.00  0.00    +0.064 A 
ATOM     10  C   UNL     1       5.025  -7.513  -3.419  0.00  0.00    +0.193 A 
ATOM     11  O   UNL     1       5.171  -8.221  -4.400  0.00  0.00    -0.287 OA
ATOM     12  C   UNL     1       4.298  -6.236  -3.491  0.00  0.00    +0.103 A 
ATOM     13  C   UNL     1       4.174  -5.492  -2.366  0.00  0.00    +0.193 A 
ATOM     14  O   UNL     1       4.680  -5.878  -1.186  0.00  0.00    -0.450 OA
ATOM     15  C   UNL     1       5.356  -7.031  -1.015  0.00  0.00    +0.140 A 
ATOM     16  C   UNL     1       5.857  -7.380   0.235  0.00  0.00    +0.050 A 
ENDBRANCH   1  13
BRANCH   3  17
ATOM     17  C   UNL     1       2.583  -2.171  -1.412  0.00  0.00    +0.094 C 
BRANCH  17  18
ATOM     18  C   UNL     1       2.565  -1.514  -0.030  0.00  0.00    -0.013 C 
BRANCH  18  19
ATOM     19  N   UNL     1       1.998  -2.450   0.950  0.00  0.00    +0.386 N 
ATOM     20  C   UNL     1       0.662  -2.922   0.521  0.00  0.00    -0.078 C 
ATOM     21  C   UNL     1      -0.072  -3.662   1.606  0.00  0.00    -0.019 C 
ATOM     22  C   UNL     1      -0.974  -2.660   2.357  0.00  0.00    -0.002 C 
ATOM     23  C   UNL     1      -0.224  -1.848   3.307  0.00  0.00    -0.002 C 
ATOM     24  C   UNL     1       0.862  -0.996   2.616  0.00  0.00    -0.019 C 
ATOM     25  C   UNL     1       2.041  -1.880   2.315  0.00  0.00    -0.078 C 
ATOM     26  H   UNL     1       2.629  -3.350   0.987  0.00  0.00    -0.081 HD
ENDBRANCH  18  19
BRANCH  18  27
ATOM     27  C   UNL     1       1.721  -0.266  -0.079  0.00  0.00    -0.022 A 
ATOM     28  C   UNL     1       2.056   1.004   0.256  0.00  0.00    +0.009 A 
ATOM     29  C   UNL     1       1.108   2.003   0.130  0.00  0.00    +0.008 A 
ATOM     30  C   UNL     1      -0.128   1.682  -0.325  0.00  0.00    +0.045 A 
ATOM     31  S   UNL     1       0.021  -0.077  -0.591  0.00  0.00    -0.103 S 
ENDBRANCH  18  27
ENDBRANCH  17  18
ENDBRANCH   3  17
TORSDOF 5
