REMARK  Name = ZINC02841307
REMARK  12 active torsions:
REMARK  status: ('A' for Active; 'I' for Inactive)
REMARK    1  A    between atoms: C_1  and  C_2
REMARK    2  A    between atoms: C_6  and  N_8
REMARK    3  A    between atoms: C_20  and  S_21
REMARK    4  A    between atoms: S_21  and  C_22
REMARK    5  A    between atoms: C_22  and  C_23
REMARK    6  A    between atoms: N_25  and  C_26
REMARK    7  A    between atoms: C_26  and  C_28
REMARK    8  A    between atoms: C_26  and  C_29
REMARK    9  A    between atoms: C_29  and  C_30
REMARK   10  A    between atoms: C_38  and  C_41
REMARK   11  A    between atoms: C_41  and  C_43
REMARK   12  A    between atoms: C_41  and  C_44
REMARK                            x       y       z     vdW  Elec       q    Type
REMARK                         _______ _______ _______ _____ _____    ______ ____
ROOT
ATOM      1  N   UNL     1       1.138   1.903   0.001  0.00  0.00    -0.245 N 
ATOM      2  C   UNL     1       0.035   1.310  -0.484  0.00  0.00    +0.268 A 
ATOM      3  O   UNL     1       0.096   0.179  -0.931  0.00  0.00    -0.266 OA
ATOM      4  C   UNL     1      -1.254   2.039  -0.479  0.00  0.00    +0.075 A 
ATOM      5  C   UNL     1      -2.557   1.572  -0.949  0.00  0.00    -0.018 A 
ATOM      6  C   UNL     1      -3.581   2.443  -0.821  0.00  0.00    +0.021 A 
ATOM      7  S   UNL     1      -2.861   3.877  -0.080  0.00  0.00    -0.072 S 
ATOM      8  C   UNL     1      -1.232   3.324   0.055  0.00  0.00    +0.102 A 
ATOM      9  N   UNL     1      -0.076   3.893   0.541  0.00  0.00    -0.249 N 
ATOM     10  C   UNL     1       1.101   3.190   0.516  0.00  0.00    +0.245 A 
ATOM     11  N   UNL     1       2.038   3.950   1.032  0.00  0.00    -0.109 NA
ATOM     12  N   UNL     1       1.455   5.169   1.399  0.00  0.00    -0.120 NA
ATOM     13  C   UNL     1       0.181   5.118   1.097  0.00  0.00    +0.198 A 
ATOM     14  C   UNL     1      -5.000   2.204  -1.233  0.00  0.00    +0.203 C 
ATOM     15  O   UNL     1      -5.024   1.036  -2.069  0.00  0.00    -0.371 OA
ATOM     16  C   UNL     1      -4.309  -0.075  -1.522  0.00  0.00    +0.126 C 
ATOM     17  C   UNL     1      -2.801   0.197  -1.560  0.00  0.00    +0.068 C 
ENDROOT
BRANCH   1  23
ATOM     18  C   UNL     1       4.304  -1.130   2.226  0.00  0.00    +0.044 C 
ATOM     19  C   UNL     1       3.912  -0.271   1.052  0.00  0.00    -0.048 A 
ATOM     20  C   UNL     1       4.752  -0.170  -0.042  0.00  0.00    +0.003 A 
ATOM     21  C   UNL     1       4.396   0.618  -1.121  0.00  0.00    +0.002 A 
ATOM     22  C   UNL     1       3.196   1.302  -1.112  0.00  0.00    +0.026 A 
ATOM     23  C   UNL     1       2.352   1.207  -0.013  0.00  0.00    +0.053 A 
ATOM     24  C   UNL     1       2.713   0.415   1.069  0.00  0.00    +0.029 A 
ENDBRANCH   1  23
BRANCH  16  25
ATOM     25  C   UNL     1      -4.618  -1.330  -2.341  0.00  0.00    +0.012 C 
ATOM     26  C   UNL     1      -6.121  -1.615  -2.290  0.00  0.00    +0.010 C 
ATOM     27  C   UNL     1      -4.190  -1.110  -3.793  0.00  0.00    +0.010 C 
ENDBRANCH  16  25
BRANCH  13  28
ATOM     28  S   UNL     1      -0.996   6.403   1.358  0.00  0.00    -0.076 S 
BRANCH  28  29
ATOM     29  C   UNL     1      -0.028   7.738   2.114  0.00  0.00    +0.173 C 
BRANCH  29  30
ATOM     30  C   UNL     1      -0.928   8.915   2.393  0.00  0.00    +0.224 C 
ATOM     31  O   UNL     1      -2.105   8.858   2.109  0.00  0.00    -0.275 OA
ATOM     32  N   UNL     1      -0.423  10.030   2.958  0.00  0.00    -0.312 N 
ATOM     33  H   UNL     1       0.519  10.075   3.185  0.00  0.00    +0.149 HD
BRANCH  32  34
ATOM     34  C   UNL     1      -1.297  11.174   3.228  0.00  0.00    +0.074 C 
ATOM     35  C   UNL     1      -1.988  10.979   4.580  0.00  0.00    +0.028 C 
BRANCH  34  36
ATOM     36  C   UNL     1      -0.463  12.456   3.263  0.00  0.00    +0.057 C 
BRANCH  36  37
ATOM     37  C   UNL     1       0.118  12.713   1.896  0.00  0.00    -0.046 A 
ATOM     38  C   UNL     1       1.357  12.198   1.564  0.00  0.00    +0.004 A 
ATOM     39  C   UNL     1       1.889  12.430   0.309  0.00  0.00    +0.000 A 
ATOM     40  C   UNL     1       1.186  13.186  -0.610  0.00  0.00    +0.000 A 
ATOM     41  C   UNL     1      -0.051  13.706  -0.276  0.00  0.00    +0.000 A 
ATOM     42  C   UNL     1      -0.585  13.470   0.977  0.00  0.00    +0.004 A 
ENDBRANCH  36  37
ENDBRANCH  34  36
ENDBRANCH  32  34
ENDBRANCH  29  30
ENDBRANCH  28  29
ENDBRANCH  13  28
TORSDOF 8
