REMARK  Name = ZINC09045587
REMARK  5 active torsions:
REMARK  status: ('A' for Active; 'I' for Inactive)
REMARK    1  A    between atoms: C_4  and  C_7
REMARK    2  A    between atoms: C_8  and  O_20
REMARK    3  A    between atoms: O_20  and  C_21
REMARK    4  A    between atoms: C_21  and  C_22
REMARK    5  A    between atoms: C_22  and  C_24
REMARK                            x       y       z     vdW  Elec       q    Type
REMARK                         _______ _______ _______ _____ _____    ______ ____
ROOT
ATOM      1  C   UNL     1       2.343   5.207   0.001  0.00  0.00    +0.181 A 
ATOM      2  C   UNL     1       1.217   5.950   0.194  0.00  0.00    +0.211 A 
ATOM      3  C   UNL     1      -0.048   5.308   0.211  0.00  0.00    +0.235 A 
ATOM      4  O   UNL     1      -1.078   5.940   0.380  0.00  0.00    -0.283 OA
ATOM      5  C   UNL     1      -0.068   3.846   0.015  0.00  0.00    +0.071 A 
ATOM      6  C   UNL     1      -1.266   3.132   0.015  0.00  0.00    +0.035 A 
ATOM      7  C   UNL     1      -1.245   1.767  -0.176  0.00  0.00    +0.043 A 
ATOM      8  C   UNL     1      -0.038   1.104  -0.359  0.00  0.00    +0.043 A 
ATOM      9  C   UNL     1       1.153   1.800  -0.362  0.00  0.00    +0.085 A 
ATOM     10  C   UNL     1       1.152   3.178  -0.176  0.00  0.00    +0.158 A 
ATOM     11  O   UNL     1       2.307   3.876  -0.176  0.00  0.00    -0.449 OA
ATOM     12 CL   UNL     1       2.651   0.956  -0.599  0.00  0.00    -0.080 Cl
ATOM     13 CL   UNL     1      -2.732   0.871  -0.182  0.00  0.00    -0.083 Cl
ENDROOT
BRANCH   1  17
ATOM     14  C   UNL     1       6.106   7.172  -0.041  0.00  0.00    +0.000 A 
ATOM     15  C   UNL     1       5.932   6.035   0.727  0.00  0.00    +0.001 A 
ATOM     16  C   UNL     1       4.712   5.391   0.746  0.00  0.00    +0.012 A 
ATOM     17  C   UNL     1       3.651   5.890  -0.013  0.00  0.00    +0.021 A 
ATOM     18  C   UNL     1       3.836   7.036  -0.791  0.00  0.00    +0.012 A 
ATOM     19  C   UNL     1       5.060   7.672  -0.796  0.00  0.00    +0.001 A 
ENDBRANCH   1  17
BRANCH   2  20
ATOM     20  O   UNL     1       1.305   7.297   0.368  0.00  0.00    -0.477 OA
BRANCH  20  21
ATOM     21  C   UNL     1       1.334   7.776   1.714  0.00  0.00    +0.308 C 
BRANCH  21  22
ATOM     22  C   UNL     1       1.433   9.280   1.710  0.00  0.00    +0.202 C 
ATOM     23  O   UNL     1       1.474   9.882   0.657  0.00  0.00    -0.288 OA
BRANCH  22  24
ATOM     24  C   UNL     1       1.477   9.991   2.935  0.00  0.00    +0.046 A 
ATOM     25  C   UNL     1       1.434   9.455   4.205  0.00  0.00    +0.095 A 
ATOM     26  N   UNL     1       1.502  10.445   5.116  0.00  0.00    -0.360 N 
ATOM     27  H   UNL     1       1.492  10.312   6.077  0.00  0.00    +0.165 HD
ATOM     28  C   UNL     1       1.585  11.675   4.495  0.00  0.00    +0.047 A 
ATOM     29  C   UNL     1       1.573  11.453   3.109  0.00  0.00    +0.010 A 
ATOM     30  C   UNL     1       1.646  12.528   2.228  0.00  0.00    +0.011 A 
ATOM     31  C   UNL     1       1.730  13.812   2.724  0.00  0.00    +0.001 A 
ATOM     32  C   UNL     1       1.741  14.033   4.093  0.00  0.00    +0.002 A 
ATOM     33  C   UNL     1       1.670  12.977   4.976  0.00  0.00    +0.026 A 
ENDBRANCH  22  24
ENDBRANCH  21  22
ENDBRANCH  20  21
ENDBRANCH   2  20
TORSDOF 5
