REMARK  Name = ZINC39531482
REMARK  12 active torsions:
REMARK  status: ('A' for Active; 'I' for Inactive)
REMARK    1  A    between atoms: C_1  and  C_2
REMARK    2  A    between atoms: C_2  and  C_3
REMARK    3  A    between atoms: C_2  and  S_4
REMARK    4  A    between atoms: S_4  and  C_7
REMARK    5  A    between atoms: N_10  and  C_14
REMARK    6  A    between atoms: C_14  and  C_16
REMARK    7  A    between atoms: C_14  and  C_25
REMARK    8  A    between atoms: C_16  and  N_17
REMARK    9  A    between atoms: N_17  and  C_18
REMARK   10  A    between atoms: C_18  and  C_19
REMARK   11  A    between atoms: C_28  and  C_31
REMARK   12  A    between atoms: C_31  and  C_32
REMARK                            x       y       z     vdW  Elec       q    Type
REMARK                         _______ _______ _______ _____ _____    ______ ____
ROOT
ATOM      1  C   UNL     1       0.283  -0.149   6.573  0.00  0.00    +0.070 C 
ENDROOT
BRANCH   1   4
ATOM      2  C   UNL     1      -1.018   0.037   3.043  0.00  0.00    +0.212 C 
ATOM      3  C   UNL     1      -0.141  -0.434   4.206  0.00  0.00    +0.127 C 
ATOM      4  N   UNL     1      -0.583   0.221   5.445  0.00  0.00    -0.293 NA
ATOM      5  C   UNL     1      -1.988  -0.097   5.734  0.00  0.00    +0.100 C 
ATOM      6  C   UNL     1      -2.864   0.375   4.571  0.00  0.00    +0.098 C 
ATOM      7  N   UNL     1      -2.423  -0.280   3.332  0.00  0.00    -0.293 NA
ATOM      8  H   UNL     1      -3.018  -0.026   2.557  0.00  0.00    +0.124 HD
BRANCH   2   9
ATOM      9  S   UNL     1      -0.507  -0.805   1.520  0.00  0.00    -0.012 S 
ATOM     10  O   UNL     1      -0.777  -2.193   1.663  0.00  0.00    -0.173 OA
ATOM     11  O   UNL     1       0.812  -0.388   1.196  0.00  0.00    -0.173 OA
BRANCH   9  13
ATOM     12  C   UNL     1      -1.467   1.394   0.207  0.00  0.00    +0.031 C 
ATOM     13  C   UNL     1      -1.646  -0.123   0.284  0.00  0.00    +0.126 C 
ATOM     14  C   UNL     1      -1.345  -0.742  -1.083  0.00  0.00    +0.031 C 
ENDBRANCH   9  13
ENDBRANCH   2   9
ENDBRANCH   1   4
BRANCH   1  15
ATOM     15  C   UNL     1       0.174  -1.631   6.825  0.00  0.00    -0.032 A 
ATOM     16  C   UNL     1       1.231  -2.465   6.511  0.00  0.00    +0.005 A 
ATOM     17  C   UNL     1       1.131  -3.824   6.742  0.00  0.00    +0.004 A 
ATOM     18  C   UNL     1      -0.025  -4.349   7.288  0.00  0.00    -0.043 A 
ATOM     19  C   UNL     1      -1.081  -3.515   7.604  0.00  0.00    +0.004 A 
ATOM     20  C   UNL     1      -0.980  -2.155   7.376  0.00  0.00    +0.005 A 
BRANCH  18  21
ATOM     21  C   UNL     1      -0.134  -5.831   7.539  0.00  0.00    +0.070 C 
BRANCH  21  22
ATOM     22  C   UNL     1       0.363  -6.143   8.927  0.00  0.00    -0.043 A 
ATOM     23  C   UNL     1       1.698  -6.435   9.133  0.00  0.00    +0.004 A 
ATOM     24  C   UNL     1       2.155  -6.722  10.407  0.00  0.00    +0.000 A 
ATOM     25  C   UNL     1       1.276  -6.715  11.473  0.00  0.00    +0.000 A 
ATOM     26  C   UNL     1      -0.059  -6.422  11.267  0.00  0.00    +0.000 A 
ATOM     27  C   UNL     1      -0.515  -6.132   9.995  0.00  0.00    +0.004 A 
ENDBRANCH  21  22
ENDBRANCH  18  21
ENDBRANCH   1  15
BRANCH   1  28
ATOM     28  C   UNL     1      -0.155   0.615   7.824  0.00  0.00    -0.058 C 
BRANCH  28  29
ATOM     29  N   UNL     1      -0.164   2.056   7.540  0.00  0.00    +0.383 N 
ATOM     30  H   UNL     1       0.763   2.352   7.273  0.00  0.00    -0.085 HD
ATOM     31  H   UNL     1      -0.808   2.247   6.787  0.00  0.00    -0.085 HD
BRANCH  29  32
ATOM     32  C   UNL     1      -0.585   2.789   8.742  0.00  0.00    -0.047 C 
BRANCH  32  33
ATOM     33  C   UNL     1      -0.594   4.268   8.450  0.00  0.00    -0.064 A 
ATOM     34  C   UNL     1       0.545   5.021   8.665  0.00  0.00    +0.002 A 
ATOM     35  C   UNL     1       0.537   6.378   8.397  0.00  0.00    +0.000 A 
ATOM     36  C   UNL     1      -0.610   6.981   7.915  0.00  0.00    +0.000 A 
ATOM     37  C   UNL     1      -1.748   6.227   7.700  0.00  0.00    +0.000 A 
ATOM     38  C   UNL     1      -1.739   4.870   7.963  0.00  0.00    +0.002 A 
ENDBRANCH  32  33
ENDBRANCH  29  32
ENDBRANCH  28  29
ENDBRANCH   1  28
TORSDOF 10
