REMARK  Name = ZINC02859726
REMARK  7 active torsions:
REMARK  status: ('A' for Active; 'I' for Inactive)
REMARK    1  A    between atoms: C_1  and  C_2
REMARK    2  A    between atoms: C_2  and  C_3
REMARK    3  A    between atoms: C_2  and  C_4
REMARK    4  A    between atoms: C_2  and  C_5
REMARK    5  A    between atoms: C_8  and  C_11
REMARK    6  A    between atoms: N_26  and  C_27
REMARK    7  A    between atoms: C_27  and  C_28
REMARK                            x       y       z     vdW  Elec       q    Type
REMARK                         _______ _______ _______ _____ _____    ______ ____
ROOT
ATOM      1  C   UNL     1      -1.428  -0.477   0.013  0.00  0.00    +0.145 C 
ATOM      2  C   UNL     1       0.002  -0.004   0.002  0.00  0.00    +0.072 A 
ATOM      3  C   UNL     1       1.283  -0.716  -0.014  0.00  0.00    +0.199 A 
ATOM      4  O   UNL     1       1.338  -1.933  -0.021  0.00  0.00    -0.287 OA
ATOM      5  C   UNL     1       2.503   0.115  -0.021  0.00  0.00    +0.067 A 
ATOM      6  C   UNL     1       3.773  -0.460  -0.036  0.00  0.00    +0.053 A 
ATOM      7  C   UNL     1       4.887   0.354  -0.042  0.00  0.00    +0.124 A 
ATOM      8  C   UNL     1       4.741   1.737  -0.032  0.00  0.00    +0.042 A 
ATOM      9  C   UNL     1       3.490   2.314  -0.018  0.00  0.00    +0.050 A 
ATOM     10  C   UNL     1       2.353   1.512  -0.012  0.00  0.00    +0.140 A 
ATOM     11  O   UNL     1       1.126   2.066   0.002  0.00  0.00    -0.450 OA
ATOM     12  C   UNL     1      -0.016   1.351   0.009  0.00  0.00    +0.199 A 
ATOM     13  C   UNL     1      -1.431   1.799   0.032  0.00  0.00    +0.283 C 
ATOM     14  O   UNL     1      -1.793   2.959   0.043  0.00  0.00    -0.267 OA
ATOM     15  N   UNL     1      -2.255   0.737   0.028  0.00  0.00    -0.279 N 
ATOM     16  F   UNL     1       6.122  -0.193  -0.056  0.00  0.00    -0.205 F 
ENDROOT
BRANCH   1  20
ATOM     17  C   UNL     1      -2.179  -2.811   3.511  0.00  0.00    -0.042 A 
ATOM     18  C   UNL     1      -1.967  -3.435   2.296  0.00  0.00    +0.004 A 
ATOM     19  C   UNL     1      -1.724  -2.679   1.164  0.00  0.00    +0.006 A 
ATOM     20  C   UNL     1      -1.694  -1.300   1.247  0.00  0.00    -0.022 A 
ATOM     21  C   UNL     1      -1.900  -0.676   2.463  0.00  0.00    +0.006 A 
ATOM     22  C   UNL     1      -2.148  -1.431   3.594  0.00  0.00    +0.004 A 
BRANCH  17  24
ATOM     23  C   UNL     1      -1.254  -4.558   5.007  0.00  0.00    +0.015 C 
ATOM     24  C   UNL     1      -2.445  -3.634   4.745  0.00  0.00    -0.013 C 
ATOM     25  C   UNL     1      -2.644  -2.706   5.945  0.00  0.00    +0.015 C 
ATOM     26  C   UNL     1      -3.706  -4.475   4.536  0.00  0.00    +0.015 C 
ENDBRANCH  17  24
ENDBRANCH   1  20
BRANCH  15  27
ATOM     27  C   UNL     1      -3.719   0.781   0.042  0.00  0.00    +0.144 C 
BRANCH  27  28
ATOM     28  C   UNL     1      -4.208   0.789   1.467  0.00  0.00    -0.030 A 
ATOM     29  C   UNL     1      -4.474  -0.404   2.113  0.00  0.00    +0.005 A 
ATOM     30  C   UNL     1      -4.917  -0.397   3.423  0.00  0.00    +0.000 A 
ATOM     31  C   UNL     1      -5.105   0.803   4.082  0.00  0.00    +0.000 A 
ATOM     32  C   UNL     1      -4.844   1.996   3.435  0.00  0.00    +0.000 A 
ATOM     33  C   UNL     1      -4.395   1.989   2.127  0.00  0.00    +0.005 A 
ENDBRANCH  27  28
ENDBRANCH  15  27
TORSDOF 4
