REMARK  Name = ZINC08789150
REMARK  11 active torsions:
REMARK  status: ('A' for Active; 'I' for Inactive)
REMARK    1  A    between atoms: C_1  and  C_2
REMARK    2  A    between atoms: C_2  and  C_3
REMARK    3  A    between atoms: C_3  and  O_4
REMARK    4  A    between atoms: O_4  and  C_5
REMARK    5  A    between atoms: C_9  and  C_14
REMARK    6  A    between atoms: C_10  and  O_11
REMARK    7  A    between atoms: O_11  and  C_12
REMARK    8  A    between atoms: C_12  and  C_13
REMARK    9  A    between atoms: N_20  and  C_35
REMARK   10  A    between atoms: C_23  and  C_34
REMARK   11  A    between atoms: C_40  and  C_41
REMARK                            x       y       z     vdW  Elec       q    Type
REMARK                         _______ _______ _______ _____ _____    ______ ____
ROOT
ATOM      1  C   UNL     1      -3.128  -0.041   0.003  0.00  0.00    +0.072 C 
ATOM      2  C   UNL     1      -4.616  -0.065   0.381  0.00  0.00    +0.123 C 
ATOM      3  N   UNL     1      -5.251   1.102  -0.234  0.00  0.00    -0.265 N 
ATOM      4  C   UNL     1      -6.167   1.183  -1.199  0.00  0.00    +0.317 C 
ATOM      5  O   UNL     1      -6.850   0.249  -1.570  0.00  0.00    -0.252 OA
ATOM      6  N   UNL     1      -6.244   2.423  -1.711  0.00  0.00    -0.192 N 
ATOM      7  C   UNL     1      -5.449   3.299  -1.034  0.00  0.00    +0.257 C 
ATOM      8  O   UNL     1      -5.253   4.470  -1.281  0.00  0.00    -0.272 OA
ATOM      9  C   UNL     1      -4.856   2.492   0.097  0.00  0.00    +0.153 C 
ATOM     10  C   UNL     1      -3.346   2.502   0.054  0.00  0.00    +0.054 A 
ATOM     11  C   UNL     1      -2.604   1.372   0.028  0.00  0.00    -0.008 A 
ATOM     12  C   UNL     1      -1.213   1.792   0.017  0.00  0.00    +0.004 A 
ATOM     13  C   UNL     1      -0.013   1.076   0.008  0.00  0.00    +0.010 A 
ATOM     14  C   UNL     1       1.147   1.811   0.001  0.00  0.00    +0.001 A 
ATOM     15  C   UNL     1       1.141   3.196   0.008  0.00  0.00    +0.002 A 
ATOM     16  C   UNL     1      -0.033   3.929   0.025  0.00  0.00    +0.026 A 
ATOM     17  C   UNL     1      -1.226   3.209   0.034  0.00  0.00    +0.047 A 
ATOM     18  N   UNL     1      -2.533   3.603   0.053  0.00  0.00    -0.356 N 
ATOM     19  H   UNL     1      -2.839   4.523   0.064  0.00  0.00    +0.166 HD
ATOM     20  C   UNL     1      -5.391   2.936   1.459  0.00  0.00    +0.048 C 
ENDROOT
BRANCH   6  21
ATOM     21  C   UNL     1      -7.048   2.776  -2.803  0.00  0.00    +0.048 A 
ATOM     22  C   UNL     1      -8.353   3.204  -2.596  0.00  0.00    +0.024 A 
ATOM     23  C   UNL     1      -9.143   3.551  -3.674  0.00  0.00    +0.002 A 
ATOM     24  C   UNL     1      -8.636   3.473  -4.959  0.00  0.00    +0.000 A 
ATOM     25  C   UNL     1      -7.338   3.048  -5.168  0.00  0.00    +0.005 A 
ATOM     26  C   UNL     1      -6.541   2.704  -4.093  0.00  0.00    -0.029 A 
ATOM     27  C   UNL     1      -5.123   2.246  -4.321  0.00  0.00    +0.045 C 
ENDBRANCH   6  21
BRANCH   1  32
ATOM     28  C   UNL     1      -2.009  -2.258  -2.854  0.00  0.00    +0.162 A 
ATOM     29  C   UNL     1      -2.644  -1.657  -3.929  0.00  0.00    +0.049 A 
ATOM     30  C   UNL     1      -3.431  -0.538  -3.729  0.00  0.00    +0.004 A 
ATOM     31  C   UNL     1      -3.590  -0.019  -2.457  0.00  0.00    +0.008 A 
ATOM     32  C   UNL     1      -2.955  -0.612  -1.382  0.00  0.00    +0.007 A 
ATOM     33  C   UNL     1      -2.166  -1.733  -1.575  0.00  0.00    +0.166 A 
BRANCH  28  34
ATOM     34  O   UNL     1      -1.234  -3.359  -3.049  0.00  0.00    -0.488 OA
BRANCH  34  35
ATOM     35  C   UNL     1      -1.119  -3.842  -4.389  0.00  0.00    +0.229 C 
BRANCH  35  37
ATOM     36  C   UNL     1      -0.092  -5.593  -5.845  0.00  0.00    +0.007 C 
ATOM     37  C   UNL     1      -0.215  -5.076  -4.411  0.00  0.00    +0.038 C 
ENDBRANCH  35  37
ENDBRANCH  34  35
ENDBRANCH  28  34
BRANCH  33  38
ATOM     38  O   UNL     1      -1.544  -2.320  -0.517  0.00  0.00    -0.488 OA
BRANCH  38  39
ATOM     39  C   UNL     1      -2.263  -3.346   0.170  0.00  0.00    +0.226 C 
ATOM     40  C   UNL     1      -1.410  -3.883   1.321  0.00  0.00    +0.048 C 
ENDBRANCH  38  39
ENDBRANCH  33  38
ENDBRANCH   1  32
TORSDOF 7
