REMARK  Name = ZINC39878670
REMARK  13 active torsions:
REMARK  status: ('A' for Active; 'I' for Inactive)
REMARK    1  A    between atoms: C_1  and  C_2
REMARK    2  A    between atoms: C_5  and  N_9
REMARK    3  A    between atoms: C_7  and  C_8
REMARK    4  A    between atoms: C_10  and  C_27
REMARK    5  A    between atoms: C_17  and  C_26
REMARK    6  A    between atoms: C_18  and  C_25
REMARK    7  A    between atoms: C_30  and  O_35
REMARK    8  A    between atoms: C_31  and  O_33
REMARK    9  A    between atoms: O_33  and  C_34
REMARK   10  A    between atoms: O_35  and  C_36
REMARK   11  A    between atoms: C_36  and  C_37
REMARK   12  A    between atoms: C_37  and  C_38
REMARK   13  A    between atoms: C_37  and  C_39
REMARK                            x       y       z     vdW  Elec       q    Type
REMARK                         _______ _______ _______ _____ _____    ______ ____
ROOT
ATOM      1  N   UNL     1       0.059  -4.168  -0.021  0.00  0.00    -0.253 N 
ATOM      2  C   UNL     1       0.070  -5.027  -1.217  0.00  0.00    +0.150 C 
ATOM      3  C   UNL     1       0.086  -6.431  -0.710  0.00  0.00    +0.072 A 
ATOM      4  C   UNL     1       0.093  -7.715  -1.419  0.00  0.00    +0.199 A 
ATOM      5  O   UNL     1       0.261  -7.811  -2.622  0.00  0.00    -0.287 OA
ATOM      6  C   UNL     1      -0.124  -8.885  -0.532  0.00  0.00    +0.065 A 
ATOM      7  C   UNL     1      -0.343 -10.151  -1.074  0.00  0.00    +0.019 A 
ATOM      8  C   UNL     1      -0.547 -11.218  -0.244  0.00  0.00    -0.047 A 
ATOM      9  C   UNL     1      -0.538 -11.044   1.133  0.00  0.00    -0.044 A 
ATOM     10  C   UNL     1      -0.322  -9.801   1.685  0.00  0.00    +0.050 A 
ATOM     11  C   UNL     1      -0.108  -8.697   0.860  0.00  0.00    +0.140 A 
ATOM     12  O   UNL     1       0.112  -7.488   1.424  0.00  0.00    -0.450 OA
ATOM     13  C   UNL     1       0.090  -6.381   0.656  0.00  0.00    +0.199 A 
ATOM     14  C   UNL     1       0.075  -4.967   1.066  0.00  0.00    +0.287 C 
ATOM     15  O   UNL     1       0.075  -4.576   2.217  0.00  0.00    -0.266 OA
ATOM     16  C   UNL     1      -0.767 -12.229   2.035  0.00  0.00    +0.044 C 
ATOM     17  C   UNL     1      -0.783 -12.588  -0.826  0.00  0.00    +0.044 C 
ENDROOT
BRANCH   1  22
ATOM     18  C   UNL     1      -0.018   1.503   0.010  0.00  0.00    +0.044 C 
ATOM     19  C   UNL     1       0.002  -0.004   0.002  0.00  0.00    -0.047 A 
ATOM     20  C   UNL     1       0.006  -0.688  -1.200  0.00  0.00    +0.005 A 
ATOM     21  C   UNL     1       0.025  -2.068  -1.212  0.00  0.00    +0.024 A 
ATOM     22  C   UNL     1       0.040  -2.771  -0.013  0.00  0.00    +0.038 A 
ATOM     23  C   UNL     1       0.037  -2.081   1.192  0.00  0.00    +0.027 A 
ATOM     24  C   UNL     1       0.023  -0.700   1.196  0.00  0.00    -0.046 A 
ATOM     25  C   UNL     1       0.025   0.049   2.504  0.00  0.00    +0.044 C 
ENDBRANCH   1  22
BRANCH   2  26
ATOM     26  C   UNL     1       1.302  -4.755  -2.041  0.00  0.00    -0.018 A 
ATOM     27  C   UNL     1       2.517  -4.547  -1.415  0.00  0.00    +0.009 A 
ATOM     28  C   UNL     1       3.651  -4.297  -2.166  0.00  0.00    +0.050 A 
ATOM     29  C   UNL     1       3.570  -4.255  -3.549  0.00  0.00    +0.162 A 
ATOM     30  C   UNL     1       2.347  -4.465  -4.178  0.00  0.00    +0.162 A 
ATOM     31  C   UNL     1       1.216  -4.720  -3.420  0.00  0.00    +0.055 A 
BRANCH  30  32
ATOM     32  O   UNL     1       2.263  -4.425  -5.535  0.00  0.00    -0.491 OA
ATOM     33  C   UNL     1       0.975  -4.649  -6.112  0.00  0.00    +0.277 C 
ENDBRANCH  30  32
BRANCH  29  34
ATOM     34  O   UNL     1       4.684  -4.009  -4.289  0.00  0.00    -0.488 OA
BRANCH  34  35
ATOM     35  C   UNL     1       5.905  -3.803  -3.576  0.00  0.00    +0.232 C 
BRANCH  35  36
ATOM     36  C   UNL     1       7.039  -3.542  -4.570  0.00  0.00    +0.020 C 
ATOM     37  C   UNL     1       6.776  -2.230  -5.310  0.00  0.00    +0.010 C 
ATOM     38  C   UNL     1       8.366  -3.445  -3.815  0.00  0.00    +0.010 C 
ENDBRANCH  35  36
ENDBRANCH  34  35
ENDBRANCH  29  34
ENDBRANCH   2  26
TORSDOF 6
