REMARK  Name = ZINC06320997
REMARK  7 active torsions:
REMARK  status: ('A' for Active; 'I' for Inactive)
REMARK    1  A    between atoms: C_1  and  C_2
REMARK    2  A    between atoms: C_6  and  C_15
REMARK    3  A    between atoms: C_13  and  C_14
REMARK    4  A    between atoms: C_15  and  C_17
REMARK    5  A    between atoms: C_15  and  N_68
REMARK    6  A    between atoms: N_21  and  C_22
REMARK    7  A    between atoms: C_32  and  C_34
REMARK                            x       y       z     vdW  Elec       q    Type
REMARK                         _______ _______ _______ _____ _____    ______ ____
ROOT
ATOM      1  C   UNL     1      -4.819   4.740   0.331  0.00  0.00    +0.039 C 
ENDROOT
BRANCH   1   7
ATOM      2  C   UNL     1       2.467   5.504   1.728  0.00  0.00    +0.044 C 
ATOM      3  C   UNL     1       1.290   4.660   1.311  0.00  0.00    -0.047 A 
ATOM      4  C   UNL     1       0.042   5.215   1.263  0.00  0.00    +0.013 A 
ATOM      5  C   UNL     1      -1.050   4.431   0.875  0.00  0.00    -0.001 A 
ATOM      6  C   UNL     1      -2.400   4.994   0.812  0.00  0.00    +0.017 A 
ATOM      7  C   UNL     1      -3.418   4.191   0.412  0.00  0.00    +0.011 A 
ATOM      8  C   UNL     1      -3.171   2.841   0.085  0.00  0.00    +0.251 A 
ATOM      9  O   UNL     1      -4.102   2.134  -0.262  0.00  0.00    -0.268 OA
ATOM     10  N   UNL     1      -1.936   2.314   0.145  0.00  0.00    -0.322 N 
ATOM     11  H   UNL     1      -1.801   1.382  -0.087  0.00  0.00    +0.169 HD
ATOM     12  C   UNL     1      -0.857   3.080   0.533  0.00  0.00    +0.049 A 
ATOM     13  C   UNL     1       0.422   2.536   0.595  0.00  0.00    +0.030 A 
ATOM     14  C   UNL     1       1.484   3.326   0.980  0.00  0.00    -0.046 A 
ATOM     15  C   UNL     1       2.869   2.736   1.041  0.00  0.00    +0.044 C 
ENDBRANCH   1   7
BRANCH   1  23
ATOM     16  C   UNL     1      -7.075   4.481   1.170  0.00  0.00    -0.058 C 
ATOM     17  C   UNL     1      -7.995   3.542   1.958  0.00  0.00    +0.089 C 
ATOM     18  N   UNL     1      -7.439   3.370   3.309  0.00  0.00    -0.299 N 
ATOM     19  C   UNL     1      -6.025   2.988   3.436  0.00  0.00    +0.089 C 
ATOM     20  C   UNL     1      -5.183   3.948   2.590  0.00  0.00    -0.058 C 
ATOM     21  C   UNL     1      -8.206   3.558   4.402  0.00  0.00    +0.282 C 
ATOM     22  O   UNL     1      -7.704   3.529   5.510  0.00  0.00    -0.267 OA
ATOM     23  N   UNL     1      -5.700   3.937   1.204  0.00  0.00    +0.391 N 
ATOM     24  H   UNL     1      -5.716   2.969   0.862  0.00  0.00    -0.080 HD
BRANCH  21  25
ATOM     25  C   UNL     1      -9.646   3.797   4.255  0.00  0.00    +0.189 A 
ATOM     26  C   UNL     1     -10.511   4.125   5.259  0.00  0.00    +0.054 A 
ATOM     27  C   UNL     1     -11.779   4.258   4.671  0.00  0.00    +0.042 A 
ATOM     28  C   UNL     1     -11.633   4.009   3.351  0.00  0.00    +0.196 A 
ATOM     29  O   UNL     1     -10.346   3.736   3.103  0.00  0.00    -0.458 OA
ENDBRANCH  21  25
ENDBRANCH   1  23
BRANCH   1  30
ATOM     30  C   UNL     1      -5.316   4.638  -1.089  0.00  0.00    +0.143 A 
ATOM     31  N   UNL     1      -5.711   3.550  -1.703  0.00  0.00    -0.115 NA
ATOM     32  N   UNL     1      -6.061   3.874  -2.900  0.00  0.00    -0.023 NA
ATOM     33  N   UNL     1      -5.899   5.140  -3.065  0.00  0.00    -0.044 NA
ATOM     34  N   UNL     1      -5.446   5.648  -1.969  0.00  0.00    -0.227 N 
BRANCH  34  35
ATOM     35  C   UNL     1      -5.130   7.058  -1.728  0.00  0.00    +0.111 C 
ATOM     36  C   UNL     1      -6.379   7.929  -1.972  0.00  0.00    +0.027 C 
ATOM     37  C   UNL     1      -5.821   9.219  -2.624  0.00  0.00    +0.002 C 
ATOM     38  C   UNL     1      -4.695   8.680  -3.541  0.00  0.00    +0.002 C 
ATOM     39  C   UNL     1      -4.059   7.535  -2.725  0.00  0.00    +0.027 C 
ENDBRANCH  34  35
ENDBRANCH   1  30
TORSDOF 5
