REMARK  Name = ZINC39667401
REMARK  7 active torsions:
REMARK  status: ('A' for Active; 'I' for Inactive)
REMARK    1  A    between atoms: C_1  and  S_2
REMARK    2  A    between atoms: S_2  and  C_3
REMARK    3  A    between atoms: C_6  and  C_9
REMARK    4  A    between atoms: C_9  and  N_10
REMARK    5  A    between atoms: C_11  and  C_13
REMARK    6  A    between atoms: C_24  and  C_26
REMARK    7  A    between atoms: C_29  and  C_31
REMARK                            x       y       z     vdW  Elec       q    Type
REMARK                         _______ _______ _______ _____ _____    ______ ____
ROOT
ATOM      1  C   UNL     1      -8.099  -2.132  -2.980  0.00  0.00    +0.100 C 
ATOM      2  C   UNL     1      -7.265  -3.180  -3.751  0.00  0.00    +0.121 C 
ATOM      3  N   UNL     1      -8.040  -4.438  -3.631  0.00  0.00    -0.294 N 
ATOM      4  C   UNL     1      -9.454  -4.014  -3.768  0.00  0.00    +0.115 C 
ATOM      5  C   UNL     1      -9.535  -2.682  -2.996  0.00  0.00    -0.004 C 
ATOM      6  C   UNL     1     -10.023  -2.927  -1.571  0.00  0.00    -0.010 C 
ATOM      7  C   UNL     1     -11.472  -3.419  -1.611  0.00  0.00    -0.082 C 
ATOM      8  N   UNL     1     -12.314  -2.414  -2.271  0.00  0.00    +0.379 N 
ATOM      9  C   UNL     1     -11.897  -2.251  -3.669  0.00  0.00    -0.082 C 
ATOM     10  C   UNL     1     -10.465  -1.710  -3.717  0.00  0.00    -0.010 C 
ATOM     11  C   UNL     1      -7.566  -5.685  -3.441  0.00  0.00    +0.282 C 
ATOM     12  O   UNL     1      -8.337  -6.623  -3.362  0.00  0.00    -0.267 OA
ATOM     13  H   UNL     1     -13.277  -2.712  -2.242  0.00  0.00    -0.086 HD
ATOM     14  H   UNL     1     -12.223  -1.532  -1.790  0.00  0.00    -0.086 HD
ENDROOT
BRANCH  11  15
ATOM     15  C   UNL     1      -6.123  -5.911  -3.328  0.00  0.00    +0.190 A 
ATOM     16  C   UNL     1      -5.507  -7.129  -3.138  0.00  0.00    +0.055 A 
ATOM     17  C   UNL     1      -4.131  -6.882  -3.089  0.00  0.00    +0.050 A 
ATOM     18  C   UNL     1      -3.959  -5.537  -3.248  0.00  0.00    +0.136 A 
ATOM     19  O   UNL     1      -5.164  -4.963  -3.397  0.00  0.00    -0.450 OA
BRANCH  18  20
ATOM     20  C   UNL     1      -2.662  -4.831  -3.261  0.00  0.00    +0.017 A 
ATOM     21  C   UNL     1      -1.472  -5.547  -3.106  0.00  0.00    +0.014 A 
ATOM     22  C   UNL     1      -0.264  -4.883  -3.119  0.00  0.00    +0.039 A 
ATOM     23  C   UNL     1      -0.229  -3.507  -3.285  0.00  0.00    +0.123 A 
ATOM     24  C   UNL     1      -1.406  -2.791  -3.438  0.00  0.00    +0.039 A 
ATOM     25  C   UNL     1      -2.619  -3.445  -3.433  0.00  0.00    +0.014 A 
ATOM     26  F   UNL     1       0.958  -2.861  -3.297  0.00  0.00    -0.205 F 
ENDBRANCH  18  20
ENDBRANCH  11  15
BRANCH   1  28
ATOM     27  N   UNL     1      -7.746  -0.841  -0.900  0.00  0.00    -0.311 N 
ATOM     28  C   UNL     1      -7.601  -2.005  -1.563  0.00  0.00    +0.218 C 
ATOM     29  O   UNL     1      -7.070  -2.951  -1.020  0.00  0.00    -0.275 OA
ATOM     30  H   UNL     1      -8.171  -0.085  -1.335  0.00  0.00    +0.149 HD
BRANCH  27  31
ATOM     31  C   UNL     1      -7.263  -0.718   0.477  0.00  0.00    +0.139 C 
BRANCH  31  35
ATOM     32  C   UNL     1      -8.062   3.226   1.919  0.00  0.00    +0.008 A 
ATOM     33  C   UNL     1      -9.002   2.217   2.093  0.00  0.00    +0.015 A 
ATOM     34  C   UNL     1      -8.740   0.944   1.626  0.00  0.00    +0.006 A 
ATOM     35  C   UNL     1      -7.544   0.673   0.986  0.00  0.00    -0.030 A 
ATOM     36  C   UNL     1      -6.607   1.674   0.811  0.00  0.00    +0.006 A 
ATOM     37  C   UNL     1      -6.864   2.951   1.271  0.00  0.00    +0.015 A 
BRANCH  32  39
ATOM     38  C   UNL     1     -10.036   4.718   3.268  0.00  0.00    +0.090 C 
ATOM     39  S   UNL     1      -8.391   4.851   2.514  0.00  0.00    -0.129 S 
ENDBRANCH  32  39
ENDBRANCH  31  35
ENDBRANCH  27  31
ENDBRANCH   1  28
TORSDOF 6
