REMARK  Name = ZINC04284110
REMARK  10 active torsions:
REMARK  status: ('A' for Active; 'I' for Inactive)
REMARK    1  A    between atoms: C_1  and  C_2
REMARK    2  A    between atoms: C_2  and  C_30
REMARK    3  A    between atoms: C_4  and  N_52
REMARK    4  A    between atoms: C_7  and  C_9
REMARK    5  A    between atoms: C_7  and  C_10
REMARK    6  A    between atoms: C_10  and  N_11
REMARK    7  A    between atoms: N_11  and  C_12
REMARK    8  A    between atoms: C_15  and  S_21
REMARK    9  A    between atoms: C_17  and  N_18
REMARK   10  A    between atoms: S_21  and  C_24
REMARK                            x       y       z     vdW  Elec       q    Type
REMARK                         _______ _______ _______ _____ _____    ______ ____
ROOT
ATOM      1  N   UNL     1      -2.535   2.799   4.675  0.00  0.00    -0.342 N 
ATOM      2  H   UNL     1      -2.309   3.620   5.140  0.00  0.00    +0.146 HD
ENDROOT
BRANCH   1   3
ATOM      3  C   UNL     1      -1.912   2.489   3.464  0.00  0.00    +0.058 A 
ATOM      4  C   UNL     1      -2.141   1.259   2.859  0.00  0.00    +0.027 A 
ATOM      5  C   UNL     1      -1.524   0.955   1.662  0.00  0.00    +0.029 A 
ATOM      6  C   UNL     1      -0.678   1.873   1.065  0.00  0.00    +0.100 A 
ATOM      7  C   UNL     1      -0.444   3.095   1.668  0.00  0.00    +0.062 A 
ATOM      8  C   UNL     1      -1.062   3.408   2.862  0.00  0.00    +0.149 A 
BRANCH   8   9
ATOM      9  N   UNL     1      -0.816   4.719   3.503  0.00  0.00    +0.058 N 
ATOM     10  O   UNL     1      -0.163   5.567   2.923  0.00  0.00    -0.126 OA
ATOM     11  O   UNL     1      -1.265   4.949   4.612  0.00  0.00    -0.126 OA
ENDBRANCH   8   9
BRANCH   6  12
ATOM     12  S   UNL     1       0.108   1.480  -0.462  0.00  0.00    +0.091 S 
ATOM     13  O   UNL     1       0.183   0.061  -0.477  0.00  0.00    -0.161 OA
ATOM     14  O   UNL     1       1.291   2.268  -0.474  0.00  0.00    -0.161 OA
BRANCH  12  15
ATOM     15  C   UNL     1      -1.041   2.059  -1.740  0.00  0.00    +0.526 C 
ATOM     16  F   UNL     1      -1.240   3.437  -1.599  0.00  0.00    -0.150 F 
ATOM     17  F   UNL     1      -0.505   1.792  -3.005  0.00  0.00    -0.150 F 
ATOM     18  F   UNL     1      -2.265   1.395  -1.602  0.00  0.00    -0.150 F 
ENDBRANCH  12  15
ENDBRANCH   6  12
ENDBRANCH   1   3
BRANCH   1  19
ATOM     19  C   UNL     1      -3.528   1.885   5.244  0.00  0.00    +0.108 C 
BRANCH  19  25
ATOM     20  C   UNL     1      -5.326   2.029   9.572  0.00  0.00    +0.011 C 
ATOM     21  C   UNL     1      -6.002   2.014   8.198  0.00  0.00    -0.036 C 
ATOM     22  C   UNL     1      -6.569   3.382   7.860  0.00  0.00    -0.010 C 
ATOM     23  C   UNL     1      -5.528   4.379   7.387  0.00  0.00    -0.074 C 
ATOM     24  C   UNL     1      -4.661   3.825   6.272  0.00  0.00    -0.008 C 
ATOM     25  C   UNL     1      -4.058   2.464   6.579  0.00  0.00    -0.018 C 
ATOM     26  C   UNL     1      -5.066   1.476   7.133  0.00  0.00    +0.014 C 
ATOM     27  C   UNL     1      -2.850   2.602   7.510  0.00  0.00    +0.012 C 
ATOM     28  C   UNL     1      -7.198   1.034   8.301  0.00  0.00    +0.011 C 
BRANCH  23  31
ATOM     29  H   UNL     1      -4.179   5.696   8.204  0.00  0.00    -0.090 HD
ATOM     30  H   UNL     1      -5.308   5.130   9.286  0.00  0.00    -0.090 HD
ATOM     31  N   UNL     1      -4.711   4.879   8.500  0.00  0.00    +0.380 N 
ATOM     32  H   UNL     1      -4.058   4.144   8.797  0.00  0.00    -0.090 HD
ENDBRANCH  23  31
ENDBRANCH  19  25
ENDBRANCH   1  19
TORSDOF 7
