REMARK  Name = ZINC19352855
REMARK  14 active torsions:
REMARK  status: ('A' for Active; 'I' for Inactive)
REMARK    1  A    between atoms: C_1  and  C_2
REMARK    2  A    between atoms: C_5  and  C_34
REMARK    3  A    between atoms: C_6  and  O_8
REMARK    4  A    between atoms: O_8  and  C_9
REMARK    5  A    between atoms: C_9  and  C_10
REMARK    6  A    between atoms: C_13  and  S_16
REMARK    7  A    between atoms: N_14  and  N_15
REMARK    8  A    between atoms: S_16  and  C_17
REMARK    9  A    between atoms: C_17  and  C_18
REMARK   10  A    between atoms: N_20  and  C_21
REMARK   11  A    between atoms: C_21  and  C_23
REMARK   12  A    between atoms: C_21  and  C_24
REMARK   13  A    between atoms: C_34  and  C_35
REMARK   14  A    between atoms: C_34  and  C_36
REMARK                            x       y       z     vdW  Elec       q    Type
REMARK                         _______ _______ _______ _____ _____    ______ ____
ROOT
ATOM      1  C   UNL     1       1.500  -0.253  -0.448  0.00  0.00    +0.189 A 
ATOM      2  N   UNL     1       2.170   0.863  -0.397  0.00  0.00    -0.128 NA
ATOM      3  N   UNL     1       1.362   1.860  -0.325  0.00  0.00    -0.121 NA
ATOM      4  C   UNL     1       0.122   1.429  -0.326  0.00  0.00    +0.209 A 
ATOM      5  N   UNL     1       0.172   0.067  -0.405  0.00  0.00    -0.225 N 
ENDROOT
BRANCH   5   6
ATOM      6  N   UNL     1      -0.886  -0.797  -0.435  0.00  0.00    -0.295 N 
ATOM      7  H   UNL     1      -1.915  -0.408  -0.394  0.00  0.00    +0.163 HD
ATOM      8  H   UNL     1      -0.710  -1.880  -0.501  0.00  0.00    +0.163 HD
ENDBRANCH   5   6
BRANCH   1   9
ATOM      9  C   UNL     1       2.082  -1.640  -0.539  0.00  0.00    +0.306 C 
BRANCH   9  10
ATOM     10  O   UNL     1       2.241  -2.002  -1.912  0.00  0.00    -0.484 OA
BRANCH  10  16
ATOM     11  C   UNL     1       4.008  -6.238  -0.253  0.00  0.00    +0.044 C 
ATOM     12  C   UNL     1       3.631  -5.323  -1.389  0.00  0.00    -0.047 A 
ATOM     13  C   UNL     1       3.810  -5.735  -2.697  0.00  0.00    +0.004 A 
ATOM     14  C   UNL     1       3.466  -4.898  -3.742  0.00  0.00    +0.008 A 
ATOM     15  C   UNL     1       2.934  -3.650  -3.482  0.00  0.00    -0.003 A 
ATOM     16  C   UNL     1       2.758  -3.232  -2.171  0.00  0.00    +0.125 A 
ATOM     17  C   UNL     1       3.105  -4.074  -1.124  0.00  0.00    +0.049 A 
BRANCH  15  18
ATOM     18  C   UNL     1       2.553  -2.740  -4.621  0.00  0.00    +0.016 C 
ATOM     19  C   UNL     1       3.787  -2.451  -5.478  0.00  0.00    +0.012 C 
ATOM     20  C   UNL     1       1.483  -3.419  -5.479  0.00  0.00    +0.012 C 
ENDBRANCH  15  18
ENDBRANCH  10  16
ENDBRANCH   9  10
ENDBRANCH   1   9
BRANCH   4  21
ATOM     21  S   UNL     1      -1.332   2.422  -0.249  0.00  0.00    -0.075 S 
BRANCH  21  22
ATOM     22  C   UNL     1      -0.585   4.068  -0.165  0.00  0.00    +0.173 C 
BRANCH  22  23
ATOM     23  C   UNL     1      -1.671   5.110  -0.089  0.00  0.00    +0.224 C 
ATOM     24  O   UNL     1      -2.836   4.772  -0.093  0.00  0.00    -0.275 OA
ATOM     25  N   UNL     1      -1.348   6.416  -0.019  0.00  0.00    -0.308 N 
ATOM     26  H   UNL     1      -0.291   6.722  -0.016  0.00  0.00    +0.149 HD
BRANCH  25  27
ATOM     27  C   UNL     1      -2.404   7.429   0.054  0.00  0.00    +0.101 C 
ATOM     28  C   UNL     1      -2.840   7.814  -1.361  0.00  0.00    +0.033 C 
BRANCH  27  29
ATOM     29  C   UNL     1      -1.882   8.649   0.769  0.00  0.00    -0.020 A 
ATOM     30  C   UNL     1      -0.552   8.938   0.747  0.00  0.00    +0.006 A 
ATOM     31  C   UNL     1      -0.051  10.063   1.397  0.00  0.00    +0.001 A 
ATOM     32  C   UNL     1      -0.876  10.902   2.082  0.00  0.00    +0.008 A 
ATOM     33  C   UNL     1      -2.255  10.633   2.132  0.00  0.00    -0.018 A 
ATOM     34  C   UNL     1      -2.765   9.491   1.466  0.00  0.00    -0.013 A 
ATOM     35  C   UNL     1      -4.143   9.223   1.516  0.00  0.00    +0.009 A 
ATOM     36  C   UNL     1      -4.968  10.062   2.200  0.00  0.00    +0.001 A 
ATOM     37  C   UNL     1      -4.467  11.185   2.855  0.00  0.00    +0.001 A 
ATOM     38  C   UNL     1      -3.138  11.476   2.829  0.00  0.00    +0.008 A 
ENDBRANCH  27  29
ENDBRANCH  25  27
ENDBRANCH  22  23
ENDBRANCH  21  22
ENDBRANCH   4  21
TORSDOF 10
