REMARK  Name = ZINC12644670
REMARK  15 active torsions:
REMARK  status: ('A' for Active; 'I' for Inactive)
REMARK    1  A    between atoms: C_1  and  C_2
REMARK    2  A    between atoms: C_2  and  O_3
REMARK    3  A    between atoms: O_3  and  C_4
REMARK    4  A    between atoms: C_4  and  C_6
REMARK    5  A    between atoms: C_8  and  C_35
REMARK    6  A    between atoms: C_10  and  N_11
REMARK    7  A    between atoms: C_12  and  C_14
REMARK    8  A    between atoms: C_14  and  N_15
REMARK    9  A    between atoms: C_16  and  C_29
REMARK   10  A    between atoms: C_18  and  C_24
REMARK   11  A    between atoms: C_19  and  C_23
REMARK   12  A    between atoms: C_24  and  O_26
REMARK   13  A    between atoms: O_26  and  C_27
REMARK   14  A    between atoms: C_27  and  C_28
REMARK   15  A    between atoms: C_35  and  C_37
REMARK                            x       y       z     vdW  Elec       q    Type
REMARK                         _______ _______ _______ _____ _____    ______ ____
ROOT
ATOM      1  N   UNL     1       2.814  -2.105   4.576  0.00  0.00    -0.265 N 
ATOM      2  C   UNL     1       2.357  -1.483   3.322  0.00  0.00    +0.147 C 
ATOM      3  C   UNL     1       1.661  -2.384   2.322  0.00  0.00    +0.078 C 
ATOM      4  C   UNL     1       1.504  -3.684   2.651  0.00  0.00    +0.021 C 
ATOM      5  N   UNL     1       1.967  -4.171   3.840  0.00  0.00    -0.273 N 
ATOM      6  C   UNL     1       2.588  -3.421   4.758  0.00  0.00    +0.307 C 
ATOM      7  O   UNL     1       2.961  -3.944   5.790  0.00  0.00    -0.252 OA
ATOM      8  C   UNL     1       0.811  -4.613   1.688  0.00  0.00    +0.061 C 
ATOM      9  H   UNL     1       1.835  -5.113   4.031  0.00  0.00    +0.156 HD
ENDROOT
BRANCH   2  10
ATOM     10  C   UNL     1       3.556  -0.874   2.642  0.00  0.00    -0.022 A 
ATOM     11  C   UNL     1       4.724  -1.603   2.517  0.00  0.00    +0.006 A 
ATOM     12  C   UNL     1       5.823  -1.046   1.889  0.00  0.00    +0.000 A 
ATOM     13  C   UNL     1       5.756   0.243   1.395  0.00  0.00    +0.000 A 
ATOM     14  C   UNL     1       4.590   0.974   1.525  0.00  0.00    +0.000 A 
ATOM     15  C   UNL     1       3.490   0.416   2.148  0.00  0.00    +0.006 A 
ENDBRANCH   2  10
BRANCH   3  16
ATOM     16  C   UNL     1       1.186  -1.878   1.089  0.00  0.00    +0.339 C 
ATOM     17  O   UNL     1       0.739  -2.639   0.252  0.00  0.00    -0.245 OA
BRANCH  16  18
ATOM     18  O   UNL     1       1.228  -0.552   0.842  0.00  0.00    -0.462 OA
BRANCH  18  19
ATOM     19  C   UNL     1       0.732  -0.112  -0.424  0.00  0.00    +0.229 C 
ATOM     20  C   UNL     1       0.862   1.409  -0.521  0.00  0.00    +0.048 C 
ENDBRANCH  18  19
ENDBRANCH  16  18
ENDBRANCH   3  16
BRANCH   1  21
ATOM     21  C   UNL     1       3.497  -1.312   5.601  0.00  0.00    +0.206 C 
BRANCH  21  23
ATOM     22  N   UNL     1       2.880   0.025   7.588  0.00  0.00    -0.278 N 
ATOM     23  C   UNL     1       2.479  -0.743   6.556  0.00  0.00    +0.235 C 
ATOM     24  O   UNL     1       1.300  -0.977   6.396  0.00  0.00    -0.274 OA
ATOM     25  H   UNL     1       3.823   0.212   7.717  0.00  0.00    +0.155 HD
BRANCH  22  30
ATOM     26  C   UNL     1       2.165   1.354   9.586  0.00  0.00    +0.088 A 
ATOM     27  C   UNL     1       1.060   1.761  10.313  0.00  0.00    +0.036 A 
ATOM     28  C   UNL     1      -0.181   1.328   9.880  0.00  0.00    +0.057 A 
ATOM     29  S   UNL     1       0.226   0.355   8.442  0.00  0.00    -0.070 S 
ATOM     30  C   UNL     1       1.948   0.547   8.463  0.00  0.00    +0.086 A 
BRANCH  28  31
ATOM     31  C   UNL     1      -1.450   1.591  10.436  0.00  0.00    +0.167 C 
ATOM     32  O   UNL     1      -1.546   2.283  11.430  0.00  0.00    -0.292 OA
ATOM     33  C   UNL     1      -2.687   1.013   9.798  0.00  0.00    +0.092 C 
ENDBRANCH  28  31
BRANCH  26  34
ATOM     34  C   UNL     1       3.520   1.760   9.978  0.00  0.00    +0.342 C 
ATOM     35  O   UNL     1       4.477   1.394   9.322  0.00  0.00    -0.245 OA
BRANCH  34  36
ATOM     36  O   UNL     1       3.704   2.537  11.063  0.00  0.00    -0.461 OA
BRANCH  36  38
ATOM     37  C   UNL     1       5.081   3.777  12.644  0.00  0.00    +0.048 C 
ATOM     38  C   UNL     1       5.072   2.899  11.391  0.00  0.00    +0.229 C 
ENDBRANCH  36  38
ENDBRANCH  34  36
ENDBRANCH  26  34
ENDBRANCH  22  30
ENDBRANCH  21  23
ENDBRANCH   1  21
TORSDOF 11
