REMARK  Name = ZINC02353930
REMARK  7 active torsions:
REMARK  status: ('A' for Active; 'I' for Inactive)
REMARK    1  A    between atoms: C_1  and  C_2
REMARK    2  A    between atoms: C_7  and  C_8
REMARK    3  A    between atoms: C_17  and  C_19
REMARK    4  A    between atoms: C_19  and  C_20
REMARK    5  A    between atoms: C_19  and  C_21
REMARK    6  A    between atoms: N_24  and  C_27
REMARK    7  A    between atoms: C_27  and  C_28
REMARK                            x       y       z     vdW  Elec       q    Type
REMARK                         _______ _______ _______ _____ _____    ______ ____
ROOT
ATOM      1  C   UNL     1       7.730   2.481  -0.717  0.00  0.00    +0.044 C 
ATOM      2  C   UNL     1       6.233   2.454  -0.883  0.00  0.00    -0.046 A 
ATOM      3  C   UNL     1       5.466   3.494  -0.391  0.00  0.00    +0.004 A 
ATOM      4  C   UNL     1       4.091   3.469  -0.543  0.00  0.00    +0.005 A 
ATOM      5  C   UNL     1       3.488   2.409  -1.183  0.00  0.00    -0.027 A 
ATOM      6  C   UNL     1       4.249   1.357  -1.684  0.00  0.00    +0.039 A 
ATOM      7  C   UNL     1       5.633   1.391  -1.526  0.00  0.00    -0.026 A 
ATOM      8  C   UNL     1       6.477   0.262  -2.060  0.00  0.00    +0.046 C 
ATOM      9  N   UNL     1       3.422   0.408  -2.289  0.00  0.00    -0.286 N 
ATOM     10  C   UNL     1       2.123   0.756  -2.231  0.00  0.00    +0.211 C 
ATOM     11  O   UNL     1       1.184   0.128  -2.673  0.00  0.00    -0.277 OA
ATOM     12  C   UNL     1       2.061   2.074  -1.508  0.00  0.00    +0.050 C 
ATOM     13  C   UNL     1       1.202   1.978  -0.241  0.00  0.00    +0.088 C 
ATOM     14  C   UNL     1       0.487   3.353  -0.129  0.00  0.00    +0.073 C 
ATOM     15  C   UNL     1       1.001   4.152  -1.366  0.00  0.00    -0.055 C 
ATOM     16  C   UNL     1      -0.971   3.006  -0.327  0.00  0.00    +0.224 C 
ATOM     17  O   UNL     1      -1.887   3.800  -0.322  0.00  0.00    -0.275 OA
ATOM     18  N   UNL     1      -1.093   1.687  -0.512  0.00  0.00    -0.237 N 
ATOM     19  C   UNL     1       0.061   1.012  -0.474  0.00  0.00    +0.225 C 
ATOM     20  O   UNL     1       0.176  -0.187  -0.611  0.00  0.00    -0.275 OA
ATOM     21  H   UNL     1       3.747  -0.406  -2.704  0.00  0.00    +0.155 HD
ATOM     22  N   UNL     1       1.440   3.117  -2.306  0.00  0.00    +0.394 N 
ATOM     23  H   UNL     1       0.635   2.740  -2.820  0.00  0.00    -0.083 HD
ATOM     24  H   UNL     1       2.118   3.507  -2.971  0.00  0.00    -0.083 HD
ENDROOT
BRANCH  15  25
ATOM     25  C   UNL     1      -0.123   5.004  -1.958  0.00  0.00    -0.031 C 
ATOM     26  C   UNL     1      -0.468   6.137  -0.991  0.00  0.00    +0.005 C 
ATOM     27  C   UNL     1       0.335   5.595  -3.293  0.00  0.00    +0.005 C 
ENDBRANCH  15  25
BRANCH  18  28
ATOM     28  C   UNL     1      -2.386   1.034  -0.734  0.00  0.00    +0.153 C 
BRANCH  28  29
ATOM     29  C   UNL     1      -3.028   0.728   0.595  0.00  0.00    -0.011 A 
ATOM     30  C   UNL     1      -2.333   0.956   1.768  0.00  0.00    +0.006 A 
ATOM     31  C   UNL     1      -2.924   0.680   2.986  0.00  0.00    +0.000 A 
ATOM     32  C   UNL     1      -4.206   0.164   3.032  0.00  0.00    +0.001 A 
ATOM     33  C   UNL     1      -4.900  -0.070   1.860  0.00  0.00    +0.020 A 
ATOM     34  C   UNL     1      -4.311   0.212   0.640  0.00  0.00    +0.046 A 
ATOM     35 CL   UNL     1      -5.181  -0.082  -0.833  0.00  0.00    -0.083 Cl
ENDBRANCH  28  29
ENDBRANCH  18  28
TORSDOF 3
