REMARK  Name = ZINC18182778
REMARK  7 active torsions:
REMARK  status: ('A' for Active; 'I' for Inactive)
REMARK    1  A    between atoms: C_1  and  O_2
REMARK    2  A    between atoms: O_2  and  C_3
REMARK    3  A    between atoms: C_5  and  C_11
REMARK    4  A    between atoms: C_8  and  O_9
REMARK    5  A    between atoms: N_19  and  C_22
REMARK    6  A    between atoms: C_22  and  C_23
REMARK    7  A    between atoms: N_30  and  C_31
REMARK                            x       y       z     vdW  Elec       q    Type
REMARK                         _______ _______ _______ _____ _____    ______ ____
ROOT
ATOM      1  C   UNL     1       2.401   0.380  -4.231  0.00  0.00    +0.157 C 
ATOM      2  C   UNL     1       3.916   0.434  -4.076  0.00  0.00    +0.145 C 
ATOM      3  C   UNL     1       4.269   0.560  -5.608  0.00  0.00    +0.249 C 
ATOM      4  C   UNL     1       5.629   1.057  -5.552  0.00  0.00    +0.254 C 
ATOM      5  O   UNL     1       6.529   0.823  -6.329  0.00  0.00    -0.272 OA
ATOM      6  N   UNL     1       5.680   1.849  -4.434  0.00  0.00    -0.235 N 
ATOM      7  C   UNL     1       4.590   1.686  -3.607  0.00  0.00    +0.231 C 
ATOM      8  O   UNL     1       4.241   2.403  -2.694  0.00  0.00    -0.275 OA
ATOM      9  O   UNL     1       3.523  -0.436  -6.173  0.00  0.00    -0.257 OA
ATOM     10  N   UNL     1       2.205  -0.267  -5.560  0.00  0.00    -0.244 N 
ENDROOT
BRANCH   1  13
ATOM     11  C   UNL     1       0.606  -0.608  -1.056  0.00  0.00    +0.163 A 
ATOM     12  C   UNL     1       1.173   0.159  -2.062  0.00  0.00    +0.055 A 
ATOM     13  C   UNL     1       1.786  -0.455  -3.138  0.00  0.00    -0.017 A 
ATOM     14  C   UNL     1       1.836  -1.835  -3.214  0.00  0.00    +0.025 A 
ATOM     15  C   UNL     1       1.273  -2.606  -2.213  0.00  0.00    +0.063 A 
ATOM     16  C   UNL     1       0.662  -1.996  -1.129  0.00  0.00    +0.173 A 
ATOM     17 BR   UNL     1       1.342  -4.493  -2.321  0.00  0.00    -0.046 Br
BRANCH  11  19
ATOM     18  C   UNL     1      -0.017   1.425   0.010  0.00  0.00    +0.277 C 
ATOM     19  O   UNL     1       0.002  -0.004   0.002  0.00  0.00    -0.491 OA
ENDBRANCH  11  19
BRANCH  16  20
ATOM     20  O   UNL     1       0.112  -2.752  -0.141  0.00  0.00    -0.503 OA
ATOM     21  H   UNL     1      -0.816  -2.979  -0.290  0.00  0.00    +0.292 HD
ENDBRANCH  16  20
ENDBRANCH   1  13
BRANCH  10  22
ATOM     22  C   UNL     1       0.982  -0.652  -6.114  0.00  0.00    +0.065 A 
ATOM     23  C   UNL     1      -0.198  -0.434  -5.413  0.00  0.00    +0.028 A 
ATOM     24  C   UNL     1      -1.406  -0.816  -5.963  0.00  0.00    +0.002 A 
ATOM     25  C   UNL     1      -1.442  -1.414  -7.210  0.00  0.00    +0.000 A 
ATOM     26  C   UNL     1      -0.269  -1.632  -7.909  0.00  0.00    +0.002 A 
ATOM     27  C   UNL     1       0.942  -1.248  -7.368  0.00  0.00    +0.028 A 
ENDBRANCH  10  22
BRANCH   6  28
ATOM     28  C   UNL     1       6.785   2.764  -4.139  0.00  0.00    +0.151 C 
BRANCH  28  29
ATOM     29  C   UNL     1       6.492   4.115  -4.741  0.00  0.00    -0.030 A 
ATOM     30  C   UNL     1       6.899   4.400  -6.031  0.00  0.00    +0.005 A 
ATOM     31  C   UNL     1       6.631   5.639  -6.582  0.00  0.00    +0.000 A 
ATOM     32  C   UNL     1       5.955   6.592  -5.844  0.00  0.00    +0.000 A 
ATOM     33  C   UNL     1       5.547   6.307  -4.554  0.00  0.00    +0.000 A 
ATOM     34  C   UNL     1       5.812   5.067  -4.004  0.00  0.00    +0.005 A 
ENDBRANCH  28  29
ENDBRANCH   6  28
TORSDOF 6
