REMARK  Name = ZINC41585023
REMARK  8 active torsions:
REMARK  status: ('A' for Active; 'I' for Inactive)
REMARK    1  A    between atoms: C_1  and  O_2
REMARK    2  A    between atoms: O_2  and  C_3
REMARK    3  A    between atoms: C_6  and  C_9
REMARK    4  A    between atoms: C_16  and  O_37
REMARK    5  A    between atoms: C_17  and  C_20
REMARK    6  A    between atoms: C_20  and  N_21
REMARK    7  A    between atoms: N_24  and  C_27
REMARK    8  A    between atoms: C_27  and  C_28
REMARK                            x       y       z     vdW  Elec       q    Type
REMARK                         _______ _______ _______ _____ _____    ______ ____
ROOT
ATOM      1  C   UNL     1       2.489  -2.488  -4.354  0.00  0.00    +0.058 C 
ATOM      2  C   UNL     1       2.627  -3.838  -4.377  0.00  0.00    +0.176 C 
ATOM      3  C   UNL     1       3.349  -4.620  -5.392  0.00  0.00    +0.231 C 
ATOM      4  O   UNL     1       3.939  -4.203  -6.374  0.00  0.00    -0.283 OA
ATOM      5  C   UNL     1       3.198  -6.020  -4.956  0.00  0.00    +0.068 A 
ATOM      6  C   UNL     1       3.643  -7.235  -5.478  0.00  0.00    +0.019 A 
ATOM      7  C   UNL     1       3.340  -8.403  -4.838  0.00  0.00    +0.046 A 
ATOM      8  C   UNL     1       2.588  -8.383  -3.666  0.00  0.00    +0.125 A 
ATOM      9  C   UNL     1       2.139  -7.184  -3.137  0.00  0.00    +0.051 A 
ATOM     10  C   UNL     1       2.440  -5.987  -3.775  0.00  0.00    +0.147 A 
ATOM     11  O   UNL     1       2.132  -4.709  -3.467  0.00  0.00    -0.451 OA
ENDROOT
BRANCH   1  15
ATOM     12  C   UNL     1       0.619  -0.605  -1.047  0.00  0.00    +0.120 A 
ATOM     13  C   UNL     1       0.646  -1.993  -1.130  0.00  0.00    +0.046 A 
ATOM     14  C   UNL     1       1.252  -2.609  -2.201  0.00  0.00    +0.011 A 
ATOM     15  C   UNL     1       1.841  -1.836  -3.209  0.00  0.00    -0.021 A 
ATOM     16  C   UNL     1       1.810  -0.438  -3.121  0.00  0.00    +0.011 A 
ATOM     17  C   UNL     1       1.198   0.168  -2.048  0.00  0.00    +0.046 A 
BRANCH  12  19
ATOM     18  C   UNL     1      -0.554  -0.855   1.004  0.00  0.00    +0.277 C 
ATOM     19  O   UNL     1       0.021  -0.003   0.012  0.00  0.00    -0.495 OA
ENDBRANCH  12  19
ENDBRANCH   1  15
BRANCH   8  20
ATOM     20  O   UNL     1       2.292  -9.549  -3.037  0.00  0.00    -0.506 OA
ATOM     21  H   UNL     1       2.948  -9.819  -2.380  0.00  0.00    +0.292 HD
ENDBRANCH   8  20
BRANCH   9  22
ATOM     22  C   UNL     1       1.326  -7.178  -1.868  0.00  0.00    +0.126 C 
BRANCH  22  23
ATOM     23  N   UNL     1       2.224  -7.070  -0.711  0.00  0.00    -0.301 NA
ATOM     24  C   UNL     1       3.060  -8.272  -0.578  0.00  0.00    +0.066 C 
ATOM     25  C   UNL     1       4.020  -8.094   0.600  0.00  0.00    -0.063 C 
ATOM     26  N   UNL     1       3.250  -7.874   1.831  0.00  0.00    +0.384 N 
ATOM     27  C   UNL     1       2.439  -6.657   1.692  0.00  0.00    -0.063 C 
ATOM     28  C   UNL     1       1.466  -6.823   0.523  0.00  0.00    +0.066 C 
ATOM     29  H   UNL     1       2.644  -8.665   1.994  0.00  0.00    -0.081 HD
BRANCH  26  30
ATOM     30  C   UNL     1       4.172  -7.722   2.965  0.00  0.00    -0.043 C 
BRANCH  30  31
ATOM     31  C   UNL     1       3.382  -7.619   4.244  0.00  0.00    -0.060 A 
ATOM     32  C   UNL     1       2.970  -6.382   4.703  0.00  0.00    +0.005 A 
ATOM     33  C   UNL     1       2.245  -6.283   5.876  0.00  0.00    +0.050 A 
ATOM     34  C   UNL     1       1.930  -7.424   6.595  0.00  0.00    +0.166 A 
ATOM     35  C   UNL     1       2.344  -8.671   6.132  0.00  0.00    +0.166 A 
ATOM     36  C   UNL     1       3.066  -8.763   4.953  0.00  0.00    +0.051 A 
ATOM     37  O   UNL     1       1.914  -9.626   7.007  0.00  0.00    -0.453 OA
ATOM     38  C   UNL     1       1.586  -8.919   8.217  0.00  0.00    +0.466 C 
ATOM     39  O   UNL     1       1.239  -7.598   7.759  0.00  0.00    -0.453 OA
ENDBRANCH  30  31
ENDBRANCH  26  30
ENDBRANCH  22  23
ENDBRANCH   9  22
TORSDOF 7
