REMARK  Name = ZINC39654488
REMARK  9 active torsions:
REMARK  status: ('A' for Active; 'I' for Inactive)
REMARK    1  A    between atoms: C_1  and  C_2
REMARK    2  A    between atoms: C_2  and  C_3
REMARK    3  A    between atoms: C_6  and  C_9
REMARK    4  A    between atoms: C_9  and  C_10
REMARK    5  A    between atoms: C_10  and  N_11
REMARK    6  A    between atoms: C_12  and  C_14
REMARK    7  A    between atoms: C_25  and  C_27
REMARK    8  A    between atoms: C_32  and  O_33
REMARK    9  A    between atoms: O_33  and  C_34
REMARK                            x       y       z     vdW  Elec       q    Type
REMARK                         _______ _______ _______ _____ _____    ______ ____
ROOT
ATOM      1  C   UNL     1       4.763  -0.360  -8.609  0.00  0.00    +0.100 C 
ATOM      2  C   UNL     1       3.996  -1.391  -9.468  0.00  0.00    +0.121 C 
ATOM      3  N   UNL     1       3.451  -0.604 -10.599  0.00  0.00    -0.296 N 
ATOM      4  C   UNL     1       4.535   0.349 -10.941  0.00  0.00    +0.115 C 
ATOM      5  C   UNL     1       5.117   0.778  -9.580  0.00  0.00    -0.004 C 
ATOM      6  C   UNL     1       6.632   0.935  -9.680  0.00  0.00    -0.010 C 
ATOM      7  C   UNL     1       6.959   2.110 -10.606  0.00  0.00    -0.082 C 
ATOM      8  N   UNL     1       6.354   3.337 -10.074  0.00  0.00    +0.379 N 
ATOM      9  C   UNL     1       4.891   3.212 -10.069  0.00  0.00    -0.082 C 
ATOM     10  C   UNL     1       4.477   2.084  -9.121  0.00  0.00    -0.010 C 
ATOM     11  C   UNL     1       2.243  -0.726 -11.185  0.00  0.00    +0.252 C 
ATOM     12  O   UNL     1       1.976  -0.066 -12.170  0.00  0.00    -0.270 OA
ATOM     13  H   UNL     1       6.680   3.491  -9.132  0.00  0.00    -0.086 HD
ATOM     14  H   UNL     1       6.621   4.120 -10.652  0.00  0.00    -0.086 HD
ENDROOT
BRANCH  11  15
ATOM     15  C   UNL     1       1.246  -1.661 -10.630  0.00  0.00    +0.099 A 
ATOM     16  C   UNL     1       1.648  -2.871 -10.053  0.00  0.00    +0.020 A 
ATOM     17  C   UNL     1       0.674  -3.713  -9.547  0.00  0.00    +0.021 A 
ATOM     18  C   UNL     1      -0.656  -3.340  -9.625  0.00  0.00    +0.114 A 
ATOM     19  N   UNL     1      -1.013  -2.195 -10.173  0.00  0.00    -0.220 NA
ATOM     20  C   UNL     1      -0.122  -1.351 -10.666  0.00  0.00    +0.233 A 
BRANCH  20  21
ATOM     21  O   UNL     1      -0.532  -0.183 -11.216  0.00  0.00    -0.437 OA
BRANCH  21  22
ATOM     22  C   UNL     1      -1.869   0.037 -11.321  0.00  0.00    +0.130 A 
ATOM     23  C   UNL     1      -2.504  -0.119 -12.545  0.00  0.00    +0.046 A 
ATOM     24  C   UNL     1      -3.864   0.105 -12.650  0.00  0.00    +0.004 A 
ATOM     25  C   UNL     1      -4.591   0.483 -11.537  0.00  0.00    +0.000 A 
ATOM     26  C   UNL     1      -3.961   0.639 -10.316  0.00  0.00    +0.004 A 
ATOM     27  C   UNL     1      -2.603   0.411 -10.205  0.00  0.00    +0.046 A 
ENDBRANCH  21  22
ENDBRANCH  20  21
ENDBRANCH  11  15
BRANCH   1  29
ATOM     28  N   UNL     1       4.436   0.572  -6.341  0.00  0.00    -0.315 N 
ATOM     29  C   UNL     1       3.884   0.153  -7.497  0.00  0.00    +0.218 C 
ATOM     30  O   UNL     1       2.681   0.190  -7.643  0.00  0.00    -0.275 OA
ATOM     31  H   UNL     1       5.399   0.542  -6.224  0.00  0.00    +0.149 HD
BRANCH  28  32
ATOM     32  C   UNL     1       3.582   1.071  -5.260  0.00  0.00    +0.109 C 
BRANCH  32  33
ATOM     33  C   UNL     1       4.452   1.478  -4.070  0.00  0.00    +0.054 C 
BRANCH  33  37
ATOM     34  C   UNL     1       1.964   2.934  -0.917  0.00  0.00    -0.048 A 
ATOM     35  C   UNL     1       2.278   1.590  -0.985  0.00  0.00    +0.004 A 
ATOM     36  C   UNL     1       3.083   1.119  -2.005  0.00  0.00    +0.004 A 
ATOM     37  C   UNL     1       3.574   1.992  -2.958  0.00  0.00    -0.046 A 
ATOM     38  C   UNL     1       3.259   3.336  -2.891  0.00  0.00    +0.004 A 
ATOM     39  C   UNL     1       2.450   3.807  -1.873  0.00  0.00    +0.004 A 
BRANCH  34  41
ATOM     40  C   UNL     1      -0.379   3.384  -0.241  0.00  0.00    +0.009 C 
ATOM     41  C   UNL     1       1.086   3.448   0.195  0.00  0.00    +0.032 C 
ENDBRANCH  34  41
ENDBRANCH  33  37
ENDBRANCH  32  33
ENDBRANCH  28  32
ENDBRANCH   1  29
TORSDOF 8
