REMARK  Name = ZINC59262781
REMARK  6 active torsions:
REMARK  status: ('A' for Active; 'I' for Inactive)
REMARK    1  A    between atoms: C_4  and  C_7
REMARK    2  A    between atoms: C_10  and  S_18
REMARK    3  A    between atoms: N_11  and  C_12
REMARK    4  A    between atoms: S_18  and  C_19
REMARK    5  A    between atoms: C_19  and  C_20
REMARK    6  A    between atoms: N_22  and  C_23
REMARK                            x       y       z     vdW  Elec       q    Type
REMARK                         _______ _______ _______ _____ _____    ______ ____
ROOT
ATOM      1  C   UNL     1       8.673  -4.578   0.150  0.00  0.00    +0.228 C 
ATOM      2  O   UNL     1       8.159  -5.631   0.464  0.00  0.00    -0.275 OA
ATOM      3  N   UNL     1      10.004  -4.512  -0.049  0.00  0.00    -0.284 N 
ATOM      4  H   UNL     1      10.407  -3.688  -0.365  0.00  0.00    +0.155 HD
ENDROOT
BRANCH   3   5
ATOM      5  C   UNL     1      10.801  -5.624   0.199  0.00  0.00    +0.045 A 
ATOM      6  C   UNL     1      10.316  -6.906  -0.060  0.00  0.00    +0.024 A 
ATOM      7  C   UNL     1      11.103  -8.012   0.185  0.00  0.00    +0.003 A 
ATOM      8  C   UNL     1      12.386  -7.867   0.692  0.00  0.00    +0.012 A 
ATOM      9  C   UNL     1      12.890  -6.600   0.957  0.00  0.00    +0.035 A 
ATOM     10  C   UNL     1      12.095  -5.464   0.705  0.00  0.00    +0.054 A 
ATOM     11  C   UNL     1      12.633  -4.119   0.980  0.00  0.00    +0.196 C 
ATOM     12  O   UNL     1      11.892  -3.156   1.013  0.00  0.00    -0.287 OA
ATOM     13  C   UNL     1      14.084  -3.955   1.216  0.00  0.00    +0.033 A 
ATOM     14  C   UNL     1      14.667  -2.693   1.194  0.00  0.00    +0.012 A 
ATOM     15  C   UNL     1      16.026  -2.559   1.418  0.00  0.00    +0.001 A 
ATOM     16  C   UNL     1      16.810  -3.671   1.662  0.00  0.00    +0.001 A 
ATOM     17  C   UNL     1      16.246  -4.935   1.688  0.00  0.00    +0.012 A 
ATOM     18  C   UNL     1      14.882  -5.088   1.465  0.00  0.00    +0.033 A 
ATOM     19  C   UNL     1      14.256  -6.431   1.497  0.00  0.00    +0.195 C 
ATOM     20  O   UNL     1      14.862  -7.383   1.948  0.00  0.00    -0.287 OA
ENDBRANCH   3   5
BRANCH   1  21
ATOM     21  C   UNL     1       7.823  -3.345  -0.018  0.00  0.00    +0.173 C 
BRANCH  21  22
ATOM     22  S   UNL     1       6.088  -3.756   0.315  0.00  0.00    -0.076 S 
BRANCH  22  26
ATOM     23  C   UNL     1       3.692  -0.690  -0.064  0.00  0.00    +0.169 A 
ATOM     24  N   UNL     1       4.867  -0.176  -0.344  0.00  0.00    -0.128 NA
ATOM     25  N   UNL     1       5.775  -1.082  -0.260  0.00  0.00    -0.122 NA
ATOM     26  C   UNL     1       5.236  -2.232   0.081  0.00  0.00    +0.197 A 
ATOM     27  N   UNL     1       3.892  -2.023   0.222  0.00  0.00    -0.270 N 
BRANCH  23  31
ATOM     28  C   UNL     1      -0.022   1.371  -0.030  0.00  0.00    +0.000 A 
ATOM     29  C   UNL     1       1.162   2.086  -0.042  0.00  0.00    +0.001 A 
ATOM     30  C   UNL     1       2.372   1.423  -0.053  0.00  0.00    +0.011 A 
ATOM     31  C   UNL     1       2.399   0.027  -0.052  0.00  0.00    +0.020 A 
ATOM     32  C   UNL     1       1.201  -0.688  -0.039  0.00  0.00    +0.011 A 
ATOM     33  C   UNL     1      -0.002  -0.013  -0.028  0.00  0.00    +0.001 A 
ENDBRANCH  23  31
BRANCH  27  34
ATOM     34  C   UNL     1       2.921  -2.968   0.581  0.00  0.00    +0.051 A 
ATOM     35  C   UNL     1       2.222  -2.829   1.773  0.00  0.00    +0.026 A 
ATOM     36  C   UNL     1       1.265  -3.762   2.123  0.00  0.00    +0.002 A 
ATOM     37  C   UNL     1       1.004  -4.833   1.289  0.00  0.00    +0.000 A 
ATOM     38  C   UNL     1       1.698  -4.974   0.102  0.00  0.00    +0.002 A 
ATOM     39  C   UNL     1       2.651  -4.041  -0.257  0.00  0.00    +0.026 A 
ENDBRANCH  27  34
ENDBRANCH  22  26
ENDBRANCH  21  22
ENDBRANCH   1  21
TORSDOF 6
