REMARK  Name = ZINC39227524
REMARK  9 active torsions:
REMARK  status: ('A' for Active; 'I' for Inactive)
REMARK    1  A    between atoms: C_1  and  C_2
REMARK    2  A    between atoms: C_2  and  C_3
REMARK    3  A    between atoms: C_2  and  N_4
REMARK    4  A    between atoms: C_15  and  C_20
REMARK    5  A    between atoms: C_23  and  C_26
REMARK    6  A    between atoms: N_28  and  C_29
REMARK    7  A    between atoms: N_28  and  C_30
REMARK    8  A    between atoms: C_30  and  C_31
REMARK    9  A    between atoms: C_31  and  C_32
REMARK                            x       y       z     vdW  Elec       q    Type
REMARK                         _______ _______ _______ _____ _____    ______ ____
ROOT
ATOM      1  N   UNL     1      -2.138   1.269   0.229  0.00  0.00    +0.381 N 
ATOM      2  C   UNL     1      -2.041  -0.185   0.404  0.00  0.00    -0.075 C 
ATOM      3  C   UNL     1      -3.445  -0.788   0.485  0.00  0.00    +0.030 C 
ATOM      4  C   UNL     1      -4.204  -0.475  -0.807  0.00  0.00    +0.114 C 
ATOM      5  C   UNL     1      -4.233   1.040  -1.021  0.00  0.00    +0.030 C 
ATOM      6  C   UNL     1      -2.799   1.574  -1.046  0.00  0.00    -0.075 C 
ATOM      7  C   UNL     1      -5.642  -0.999  -0.692  0.00  0.00    +0.127 C 
ATOM      8  C   UNL     1      -6.338  -0.683  -2.003  0.00  0.00    +0.170 C 
ATOM      9  O   UNL     1      -7.489  -0.299  -2.039  0.00  0.00    -0.292 OA
ATOM     10  C   UNL     1      -5.544  -0.866  -3.231  0.00  0.00    +0.060 A 
ATOM     11  C   UNL     1      -6.156  -0.838  -4.483  0.00  0.00    +0.023 A 
ATOM     12  C   UNL     1      -5.383  -1.008  -5.627  0.00  0.00    -0.017 A 
ATOM     13  C   UNL     1      -4.004  -1.203  -5.514  0.00  0.00    +0.012 A 
ATOM     14  C   UNL     1      -3.399  -1.232  -4.277  0.00  0.00    +0.047 A 
ATOM     15  C   UNL     1      -4.157  -1.066  -3.123  0.00  0.00    +0.132 A 
ATOM     16  O   UNL     1      -3.556  -1.104  -1.911  0.00  0.00    -0.485 OA
ATOM     17  H   UNL     1      -2.674   1.662   0.987  0.00  0.00    -0.081 HD
ENDROOT
BRANCH  12  18
ATOM     18  C   UNL     1      -6.022  -0.982  -6.965  0.00  0.00    -0.018 A 
ATOM     19  C   UNL     1      -7.398  -0.782  -7.076  0.00  0.00    +0.009 A 
ATOM     20  C   UNL     1      -7.992  -0.759  -8.318  0.00  0.00    +0.013 A 
ATOM     21  C   UNL     1      -7.216  -0.935  -9.466  0.00  0.00    +0.037 A 
ATOM     22  C   UNL     1      -5.838  -1.135  -9.353  0.00  0.00    +0.013 A 
ATOM     23  C   UNL     1      -5.245  -1.153  -8.111  0.00  0.00    +0.009 A 
BRANCH  21  24
ATOM     24  C   UNL     1      -7.853  -0.910 -10.799  0.00  0.00    +0.246 C 
ATOM     25  O   UNL     1      -7.293  -0.365 -11.730  0.00  0.00    -0.270 OA
ATOM     26  N   UNL     1      -9.055  -1.492 -10.982  0.00  0.00    -0.300 N 
ATOM     27  C   UNL     1      -9.778  -2.055  -9.840  0.00  0.00    +0.132 C 
BRANCH  26  28
ATOM     28  C   UNL     1      -9.638  -1.561 -12.325  0.00  0.00    +0.112 C 
BRANCH  28  29
ATOM     29  C   UNL     1      -9.193  -2.856 -13.008  0.00  0.00    +0.054 C 
BRANCH  29  30
ATOM     30  C   UNL     1      -9.792  -2.928 -14.388  0.00  0.00    -0.046 A 
ATOM     31  C   UNL     1     -11.027  -3.519 -14.576  0.00  0.00    +0.004 A 
ATOM     32  C   UNL     1     -11.577  -3.585 -15.842  0.00  0.00    +0.000 A 
ATOM     33  C   UNL     1     -10.892  -3.058 -16.921  0.00  0.00    +0.000 A 
ATOM     34  C   UNL     1      -9.657  -2.466 -16.734  0.00  0.00    +0.000 A 
ATOM     35  C   UNL     1      -9.109  -2.396 -15.467  0.00  0.00    +0.004 A 
ENDBRANCH  29  30
ENDBRANCH  28  29
ENDBRANCH  26  28
ENDBRANCH  21  24
ENDBRANCH  12  18
BRANCH   1  37
ATOM     36  C   UNL     1      -0.890   3.369   0.058  0.00  0.00    -0.014 C 
ATOM     37  C   UNL     1      -0.790   1.852   0.231  0.00  0.00    -0.075 C 
ATOM     38  C   UNL     1      -0.099   1.535   1.559  0.00  0.00    -0.014 C 
ENDBRANCH   1  37
TORSDOF 6
