REMARK  Name = ZINC13244697
REMARK  12 active torsions:
REMARK  status: ('A' for Active; 'I' for Inactive)
REMARK    1  A    between atoms: C_1  and  C_2
REMARK    2  A    between atoms: C_4  and  C_33
REMARK    3  A    between atoms: C_5  and  N_9
REMARK    4  A    between atoms: C_6  and  C_8
REMARK    5  A    between atoms: C_10  and  C_12
REMARK    6  A    between atoms: C_12  and  N_13
REMARK    7  A    between atoms: C_14  and  C_16
REMARK    8  A    between atoms: C_16  and  N_17
REMARK    9  A    between atoms: N_20  and  CA_21
REMARK   10  A    between atoms: CA_21  and  C_23
REMARK   11  A    between atoms: CA_21  and  C_31
REMARK   12  A    between atoms: C_23  and  C_24
REMARK                            x       y       z     vdW  Elec       q    Type
REMARK                         _______ _______ _______ _____ _____    ______ ____
ROOT
ATOM      1  C   UNL     1      11.053   0.064  -1.550  0.00  0.00    +0.201 C 
ENDROOT
BRANCH   1   2
ATOM      2  N   UNL     1      10.075   0.771  -0.720  0.00  0.00    -0.291 N 
ATOM      3  C   UNL     1       9.928   2.105  -0.840  0.00  0.00    +0.301 C 
ATOM      4  O   UNL     1      10.607   2.722  -1.637  0.00  0.00    -0.253 OA
ATOM      5  N   UNL     1       9.029   2.756  -0.075  0.00  0.00    -0.286 N 
ATOM      6  H   UNL     1       9.533   0.279  -0.083  0.00  0.00    +0.151 HD
ATOM      7  H   UNL     1       8.487   2.263   0.561  0.00  0.00    +0.151 HD
BRANCH   5   8
ATOM      8  CA  UNL     1       8.869   4.206  -0.206  0.00  0.00    +0.196 C 
BRANCH   8   9
ATOM      9  C   UNL     1       9.890   4.903   0.656  0.00  0.00    +0.376 C 
ATOM     10  O   UNL     1      10.670   4.255   1.312  0.00  0.00    -0.244 OA
ATOM     11  OXT UNL     1       9.932   6.244   0.695  0.00  0.00    -0.244 OA
ENDBRANCH   8   9
BRANCH   8  12
ATOM     12  C   UNL     1       7.463   4.607   0.243  0.00  0.00    +0.130 C 
BRANCH  12  13
ATOM     13  C   UNL     1       6.446   4.008  -0.694  0.00  0.00    +0.218 C 
ATOM     14  O   UNL     1       6.810   3.327  -1.629  0.00  0.00    -0.276 OA
ATOM     15  N   UNL     1       5.131   4.228  -0.492  0.00  0.00    -0.301 N 
ATOM     16  C   UNL     1       4.553   5.033   0.599  0.00  0.00    +0.108 C 
ATOM     17  C   UNL     1       3.172   5.490   0.065  0.00  0.00    +0.020 C 
ATOM     18  C   UNL     1       2.716   4.239  -0.732  0.00  0.00    +0.020 C 
ATOM     19  C   UNL     1       4.038   3.708  -1.326  0.00  0.00    +0.108 C 
ENDBRANCH  12  13
ENDBRANCH   8  12
ENDBRANCH   5   8
ENDBRANCH   1   2
BRANCH   1  21
ATOM     20  N   UNL     1      11.840  -2.260  -1.869  0.00  0.00    -0.305 N 
ATOM     21  C   UNL     1      11.019  -1.407  -1.224  0.00  0.00    +0.231 C 
ATOM     22  O   UNL     1      10.254  -1.824  -0.380  0.00  0.00    -0.274 OA
ATOM     23  H   UNL     1      12.452  -1.926  -2.544  0.00  0.00    +0.149 HD
BRANCH  20  24
ATOM     24  C   UNL     1      11.807  -3.689  -1.552  0.00  0.00    +0.200 C 
BRANCH  24  26
ATOM     25  N   UNL     1      12.960  -5.751  -2.286  0.00  0.00    -0.284 N 
ATOM     26  C   UNL     1      12.813  -4.417  -2.406  0.00  0.00    +0.234 C 
ATOM     27  O   UNL     1      13.491  -3.801  -3.202  0.00  0.00    -0.274 OA
ATOM     28  H   UNL     1      12.457  -6.236  -1.614  0.00  0.00    +0.155 HD
BRANCH  25  33
ATOM     29  C   UNL     1      16.522  -8.534  -5.715  0.00  0.00    +0.044 C 
ATOM     30  C   UNL     1      15.576  -7.795  -4.804  0.00  0.00    -0.050 A 
ATOM     31  C   UNL     1      15.670  -7.956  -3.434  0.00  0.00    +0.008 A 
ATOM     32  C   UNL     1      14.804  -7.280  -2.596  0.00  0.00    -0.029 A 
ATOM     33  C   UNL     1      13.839  -6.437  -3.132  0.00  0.00    +0.039 A 
ATOM     34  C   UNL     1      13.744  -6.282  -4.508  0.00  0.00    -0.029 A 
ATOM     35  C   UNL     1      14.616  -6.957  -5.340  0.00  0.00    +0.008 A 
ATOM     36  C   UNL     1      12.694  -5.373  -5.094  0.00  0.00    +0.045 C 
ATOM     37  C   UNL     1      14.908  -7.455  -1.103  0.00  0.00    +0.045 C 
ENDBRANCH  25  33
ENDBRANCH  24  26
ENDBRANCH  20  24
ENDBRANCH   1  21
TORSDOF 9
