REMARK  Name = ZINC20801370
REMARK  8 active torsions:
REMARK  status: ('A' for Active; 'I' for Inactive)
REMARK    1  A    between atoms: C_1  and  C_2
REMARK    2  A    between atoms: C_2  and  O_3
REMARK    3  A    between atoms: O_3  and  C_4
REMARK    4  A    between atoms: C_4  and  C_6
REMARK    5  A    between atoms: C_8  and  C_31
REMARK    6  A    between atoms: N_18  and  C_21
REMARK    7  A    between atoms: C_21  and  C_22
REMARK    8  A    between atoms: C_35  and  C_37
REMARK                            x       y       z     vdW  Elec       q    Type
REMARK                         _______ _______ _______ _____ _____    ______ ____
ROOT
ATOM      1  C   UNL     1       4.259   2.200  -1.441  0.00  0.00    +0.210 C 
ATOM      2  C   UNL     1       3.672   2.182  -0.023  0.00  0.00    +0.126 C 
ATOM      3  N   UNL     1       4.653   1.522   0.856  0.00  0.00    -0.311 N 
ATOM      4  C   UNL     1       5.151   0.312   0.461  0.00  0.00    +0.175 C 
ATOM      5  N   UNL     1       5.189  -0.005  -0.823  0.00  0.00    -0.151 NA
ATOM      6  C   UNL     1       4.775   0.823  -1.772  0.00  0.00    +0.255 C 
ATOM      7  O   UNL     1       4.812   0.464  -2.933  0.00  0.00    -0.273 OA
ATOM      8  N   UNL     1       5.610  -0.570   1.393  0.00  0.00    -0.303 N 
ATOM      9  C   UNL     1       5.583  -0.237   2.825  0.00  0.00    +0.123 C 
ATOM     10  C   UNL     1       4.902  -1.392   3.575  0.00  0.00    +0.103 C 
ATOM     11  N   UNL     1       5.580  -2.652   3.244  0.00  0.00    -0.295 NA
ATOM     12  C   UNL     1       5.452  -2.966   1.814  0.00  0.00    +0.103 C 
ATOM     13  C   UNL     1       6.151  -1.877   0.992  0.00  0.00    +0.123 C 
ATOM     14  H   UNL     1       4.961   2.003   1.795  0.00  0.00    +0.149 HD
ENDROOT
BRANCH   2  15
ATOM     15  C   UNL     1       2.377   1.411  -0.015  0.00  0.00    -0.026 A 
ATOM     16  C   UNL     1       2.396   0.028  -0.021  0.00  0.00    +0.005 A 
ATOM     17  C   UNL     1       1.209  -0.679  -0.013  0.00  0.00    +0.001 A 
ATOM     18  C   UNL     1       0.002  -0.004   0.002  0.00  0.00    +0.003 A 
ATOM     19  C   UNL     1      -0.017   1.378   0.010  0.00  0.00    -0.050 A 
ATOM     20  C   UNL     1       1.171   2.085   0.002  0.00  0.00    +0.008 A 
ATOM     21  C   UNL     1      -1.332   2.114   0.020  0.00  0.00    +0.044 C 
ENDBRANCH   2  15
BRANCH   1  22
ATOM     22  C   UNL     1       5.391   3.193  -1.507  0.00  0.00    +0.321 C 
ATOM     23  O   UNL     1       5.699   3.823  -0.523  0.00  0.00    -0.250 OA
BRANCH  22  24
ATOM     24  O   UNL     1       6.056   3.377  -2.658  0.00  0.00    -0.464 OA
BRANCH  24  26
ATOM     25  C   UNL     1       7.769   4.420  -4.038  0.00  0.00    +0.048 C 
ATOM     26  C   UNL     1       7.134   4.349  -2.648  0.00  0.00    +0.229 C 
ENDBRANCH  24  26
ENDBRANCH  22  24
ENDBRANCH   1  22
BRANCH  11  27
ATOM     27  C   UNL     1       5.074  -3.756   4.072  0.00  0.00    +0.119 C 
BRANCH  27  28
ATOM     28  C   UNL     1       4.992  -3.309   5.508  0.00  0.00    -0.030 A 
ATOM     29  C   UNL     1       6.074  -3.486   6.349  0.00  0.00    +0.009 A 
ATOM     30  C   UNL     1       6.005  -3.074   7.667  0.00  0.00    +0.050 A 
ATOM     31  C   UNL     1       4.845  -2.490   8.150  0.00  0.00    +0.166 A 
ATOM     32  C   UNL     1       3.753  -2.316   7.304  0.00  0.00    +0.167 A 
ATOM     33  C   UNL     1       3.831  -2.727   5.984  0.00  0.00    +0.054 A 
ATOM     34  O   UNL     1       2.744  -1.726   8.010  0.00  0.00    -0.453 OA
ATOM     35  C   UNL     1       3.369  -1.170   9.182  0.00  0.00    +0.466 C 
ATOM     36  O   UNL     1       4.521  -2.009   9.386  0.00  0.00    -0.453 OA
ENDBRANCH  27  28
ENDBRANCH  11  27
TORSDOF 6
