REMARK  Name = ZINC67295011
REMARK  4 active torsions:
REMARK  status: ('A' for Active; 'I' for Inactive)
REMARK    1  A    between atoms: C_1  and  C_2
REMARK    2  A    between atoms: C_5  and  C_29
REMARK    3  A    between atoms: C_6  and  N_8
REMARK    4  A    between atoms: C_10  and  C_20
REMARK                            x       y       z     vdW  Elec       q    Type
REMARK                         _______ _______ _______ _____ _____    ______ ____
ROOT
ATOM      1  N   UNL     1       0.005  -2.774   2.290  0.00  0.00    -0.325 N 
ATOM      2  C   UNL     1       0.191  -2.170   3.443  0.00  0.00    +0.212 A 
ATOM      3  C   UNL     1       0.476  -2.942   4.669  0.00  0.00    +0.098 A 
ATOM      4  C   UNL     1       1.196  -2.300   5.668  0.00  0.00    +0.030 A 
ATOM      5  C   UNL     1       1.609  -0.917   5.417  0.00  0.00    +0.019 A 
ATOM      6  C   UNL     1       2.553  -0.290   6.239  0.00  0.00    +0.026 A 
ATOM      7  C   UNL     1       2.926   1.010   5.979  0.00  0.00    +0.019 A 
ATOM      8  C   UNL     1       2.372   1.698   4.908  0.00  0.00    +0.019 A 
ATOM      9  C   UNL     1       1.440   1.094   4.090  0.00  0.00    +0.048 A 
ATOM     10  C   UNL     1       1.048  -0.214   4.334  0.00  0.00    +0.137 A 
ATOM     11  O   UNL     1       0.133  -0.817   3.542  0.00  0.00    -0.439 OA
ATOM     12 BR   UNL     1       4.200   1.862   7.087  0.00  0.00    -0.050 Br
ATOM     13  H   UNL     1       0.121  -3.735   2.221  0.00  0.00    +0.169 HD
ENDROOT
BRANCH   3  14
ATOM     14  C   UNL     1       0.016  -4.332   4.827  0.00  0.00    +0.254 C 
ATOM     15  O   UNL     1       0.347  -4.975   5.804  0.00  0.00    -0.270 OA
ATOM     16  N   UNL     1      -0.772  -4.891   3.887  0.00  0.00    -0.266 N 
ATOM     17  C   UNL     1      -1.173  -6.219   4.015  0.00  0.00    +0.125 A 
ATOM     18  C   UNL     1      -1.128  -6.835   5.261  0.00  0.00    +0.044 A 
ATOM     19  C   UNL     1      -1.530  -8.154   5.374  0.00  0.00    +0.005 A 
ATOM     20  C   UNL     1      -1.966  -8.814   4.233  0.00  0.00    +0.020 A 
ATOM     21  C   UNL     1      -1.985  -8.140   3.028  0.00  0.00    +0.113 A 
ATOM     22  N   UNL     1      -1.600  -6.880   2.951  0.00  0.00    -0.240 NA
ATOM     23  H   UNL     1      -1.060  -4.369   3.122  0.00  0.00    +0.157 HD
ENDBRANCH   3  14
BRANCH   1  29
ATOM     24  C   UNL     1      -2.929   0.543   0.206  0.00  0.00    +0.044 C 
ATOM     25  C   UNL     1      -1.776  -0.424   0.137  0.00  0.00    -0.048 A 
ATOM     26  C   UNL     1      -1.074  -0.578  -1.046  0.00  0.00    +0.004 A 
ATOM     27  C   UNL     1      -0.013  -1.463  -1.118  0.00  0.00    +0.005 A 
ATOM     28  C   UNL     1       0.353  -2.199  -0.010  0.00  0.00    -0.027 A 
ATOM     29  C   UNL     1      -0.351  -2.048   1.187  0.00  0.00    +0.045 A 
ATOM     30  C   UNL     1      -1.418  -1.149   1.254  0.00  0.00    +0.029 A 
ATOM     31  C   UNL     1       1.508  -3.163  -0.090  0.00  0.00    +0.046 C 
ENDBRANCH   1  29
TORSDOF 2
