REMARK  Name = ZINC36029894
REMARK  8 active torsions:
REMARK  status: ('A' for Active; 'I' for Inactive)
REMARK    1  A    between atoms: C_1  and  C_2
REMARK    2  A    between atoms: C_2  and  C_3
REMARK    3  A    between atoms: C_3  and  C_5
REMARK    4  A    between atoms: C_3  and  C_6
REMARK    5  A    between atoms: N_10  and  C_28
REMARK    6  A    between atoms: N_15  and  S_18
REMARK    7  A    between atoms: S_18  and  C_21
REMARK    8  A    between atoms: C_28  and  C_29
REMARK                            x       y       z     vdW  Elec       q    Type
REMARK                         _______ _______ _______ _____ _____    ______ ____
ROOT
ATOM      1  C   UNL     1      -2.129  -2.398   0.039  0.00  0.00    +0.022 C 
ATOM      2  C   UNL     1      -1.308  -2.575   1.299  0.00  0.00    +0.201 C 
ATOM      3  O   UNL     1      -0.371  -1.883   1.636  0.00  0.00    -0.277 OA
ATOM      4  N   UNL     1      -1.796  -3.631   1.983  0.00  0.00    -0.311 N 
ATOM      5  C   UNL     1      -2.926  -4.208   1.250  0.00  0.00    +0.006 C 
ATOM      6  N   UNL     1      -3.364  -3.184   0.277  0.00  0.00    +0.401 N 
ATOM      7  C   UNL     1      -2.484  -5.468   0.506  0.00  0.00    +0.023 C 
ATOM      8  C   UNL     1      -1.994  -6.509   1.518  0.00  0.00    +0.109 C 
ATOM      9  N   UNL     1      -3.046  -6.727   2.519  0.00  0.00    -0.177 NA
ATOM     10  C   UNL     1      -3.592  -5.566   3.236  0.00  0.00    +0.109 C 
ATOM     11  C   UNL     1      -4.068  -4.533   2.210  0.00  0.00    +0.023 C 
ATOM     12  H   UNL     1      -4.086  -2.601   0.674  0.00  0.00    -0.082 HD
ATOM     13  H   UNL     1      -3.682  -3.615  -0.579  0.00  0.00    -0.082 HD
ENDROOT
BRANCH   9  14
ATOM     14  S   UNL     1      -3.608  -8.253   2.833  0.00  0.00    +0.061 S 
ATOM     15  O   UNL     1      -4.917  -8.102   3.366  0.00  0.00    -0.153 OA
ATOM     16  O   UNL     1      -3.343  -9.030   1.674  0.00  0.00    -0.153 OA
BRANCH  14  17
ATOM     17  C   UNL     1      -2.612  -8.919   4.125  0.00  0.00    +0.106 A 
ATOM     18  C   UNL     1      -1.462  -9.622   3.818  0.00  0.00    +0.030 A 
ATOM     19  C   UNL     1      -0.680 -10.145   4.830  0.00  0.00    +0.022 A 
ATOM     20  C   UNL     1      -1.049  -9.965   6.152  0.00  0.00    +0.041 A 
ATOM     21  C   UNL     1      -2.200  -9.261   6.458  0.00  0.00    +0.022 A 
ATOM     22  C   UNL     1      -2.978  -8.734   5.445  0.00  0.00    +0.030 A 
ATOM     23 CL   UNL     1      -0.067 -10.622   7.424  0.00  0.00    -0.084 Cl
ENDBRANCH  14  17
ENDBRANCH   9  14
BRANCH   1  24
ATOM     24  C   UNL     1      -2.469  -0.921  -0.172  0.00  0.00    -0.020 C 
ATOM     25  C   UNL     1      -3.359  -0.775  -1.408  0.00  0.00    +0.006 C 
BRANCH  24  27
ATOM     26  C   UNL     1      -1.508   1.367  -0.463  0.00  0.00    +0.004 C 
ATOM     27  C   UNL     1      -1.179  -0.125  -0.376  0.00  0.00    -0.001 C 
ENDBRANCH  24  27
ENDBRANCH   1  24
BRANCH   4  28
ATOM     28  C   UNL     1      -1.276  -4.123   3.261  0.00  0.00    +0.137 C 
BRANCH  28  29
ATOM     29  C   UNL     1      -1.866  -3.296   4.404  0.00  0.00    +0.136 C 
ATOM     30  C   UNL     1      -1.381  -3.854   5.760  0.00  0.00    +0.035 C 
ATOM     31  C   UNL     1      -2.653  -3.726   6.643  0.00  0.00    +0.031 C 
ATOM     32  C   UNL     1      -3.765  -3.997   5.598  0.00  0.00    +0.160 C 
ATOM     33  O   UNL     1      -3.296  -3.386   4.383  0.00  0.00    -0.375 OA
ENDBRANCH  28  29
ENDBRANCH   4  28
TORSDOF 6
