REMARK  Name = ZINC41585621
REMARK  9 active torsions:
REMARK  status: ('A' for Active; 'I' for Inactive)
REMARK    1  A    between atoms: C_1  and  C_2
REMARK    2  A    between atoms: C_2  and  N_3
REMARK    3  A    between atoms: C_5  and  C_14
REMARK    4  A    between atoms: C_10  and  O_12
REMARK    5  A    between atoms: O_12  and  C_13
REMARK    6  A    between atoms: C_21  and  O_39
REMARK    7  A    between atoms: C_22  and  C_25
REMARK    8  A    between atoms: C_25  and  N_26
REMARK    9  A    between atoms: N_29  and  C_32
REMARK                            x       y       z     vdW  Elec       q    Type
REMARK                         _______ _______ _______ _____ _____    ______ ____
ROOT
ATOM      1  C   UNL     1      -4.354  -1.756   1.684  0.00  0.00    +0.060 C 
ATOM      2  C   UNL     1      -4.099  -1.913   3.013  0.00  0.00    +0.176 C 
ATOM      3  C   UNL     1      -2.894  -1.557   3.675  0.00  0.00    +0.231 C 
ATOM      4  O   UNL     1      -1.897  -1.058   3.180  0.00  0.00    -0.283 OA
ATOM      5  C   UNL     1      -3.107  -1.918   5.087  0.00  0.00    +0.068 A 
ATOM      6  C   UNL     1      -2.318  -1.823   6.233  0.00  0.00    +0.019 A 
ATOM      7  C   UNL     1      -2.807  -2.254   7.434  0.00  0.00    +0.046 A 
ATOM      8  C   UNL     1      -4.090  -2.788   7.517  0.00  0.00    +0.125 A 
ATOM      9  C   UNL     1      -4.886  -2.889   6.387  0.00  0.00    +0.051 A 
ATOM     10  C   UNL     1      -4.403  -2.455   5.160  0.00  0.00    +0.147 A 
ATOM     11  O   UNL     1      -4.954  -2.431   3.927  0.00  0.00    -0.451 OA
ENDROOT
BRANCH   1  14
ATOM     12  N   UNL     1      -1.273  -1.100  -0.159  0.00  0.00    -0.346 N 
ATOM     13  C   UNL     1      -1.953  -1.683   0.858  0.00  0.00    +0.094 A 
ATOM     14  C   UNL     1      -3.285  -1.338   0.779  0.00  0.00    +0.004 A 
ATOM     15  C   UNL     1      -3.417  -0.463  -0.401  0.00  0.00    +0.011 A 
ATOM     16  C   UNL     1      -2.127  -0.347  -0.943  0.00  0.00    +0.050 A 
ATOM     17  C   UNL     1      -1.929   0.433  -2.078  0.00  0.00    +0.030 A 
ATOM     18  C   UNL     1      -2.994   1.087  -2.659  0.00  0.00    +0.047 A 
ATOM     19  C   UNL     1      -4.272   0.975  -2.121  0.00  0.00    +0.121 A 
ATOM     20  C   UNL     1      -4.487   0.197  -0.998  0.00  0.00    +0.056 A 
BRANCH  12  22
ATOM     21  C   UNL     1       0.907  -0.074   0.256  0.00  0.00    +0.027 C 
ATOM     22  C   UNL     1       0.166  -1.244  -0.393  0.00  0.00    +0.118 C 
ENDBRANCH  12  22
BRANCH  19  23
ATOM     23  O   UNL     1      -5.313   1.625  -2.705  0.00  0.00    -0.495 OA
ATOM     24  C   UNL     1      -5.021   2.404  -3.867  0.00  0.00    +0.277 C 
ENDBRANCH  19  23
ENDBRANCH   1  14
BRANCH   8  25
ATOM     25  O   UNL     1      -4.565  -3.215   8.715  0.00  0.00    -0.506 OA
ATOM     26  H   UNL     1      -5.028  -2.532   9.220  0.00  0.00    +0.292 HD
ENDBRANCH   8  25
BRANCH   9  27
ATOM     27  C   UNL     1      -6.273  -3.469   6.490  0.00  0.00    +0.127 C 
BRANCH  27  28
ATOM     28  N   UNL     1      -7.234  -2.394   6.771  0.00  0.00    -0.295 NA
ATOM     29  C   UNL     1      -6.994  -1.806   8.095  0.00  0.00    +0.103 C 
ATOM     30  C   UNL     1      -7.892  -0.578   8.275  0.00  0.00    +0.120 C 
ATOM     31  N   UNL     1      -9.284  -0.974   8.014  0.00  0.00    -0.327 N 
ATOM     32  C   UNL     1      -9.580  -1.693   6.765  0.00  0.00    +0.120 C 
ATOM     33  C   UNL     1      -8.615  -2.877   6.645  0.00  0.00    +0.103 C 
BRANCH  31  34
ATOM     34  C   UNL     1     -10.299  -0.677   8.928  0.00  0.00    +0.030 A 
ATOM     35  C   UNL     1     -10.024   0.108  10.041  0.00  0.00    +0.026 A 
ATOM     36  C   UNL     1     -11.029   0.402  10.943  0.00  0.00    +0.040 A 
ATOM     37  C   UNL     1     -12.308  -0.087  10.738  0.00  0.00    +0.124 A 
ATOM     38  C   UNL     1     -12.584  -0.870   9.630  0.00  0.00    +0.040 A 
ATOM     39  C   UNL     1     -11.584  -1.161   8.723  0.00  0.00    +0.026 A 
ATOM     40  F   UNL     1     -13.289   0.201  11.622  0.00  0.00    -0.205 F 
ENDBRANCH  31  34
ENDBRANCH  27  28
ENDBRANCH   9  27
TORSDOF 7
