REMARK  Name = ZINC49769525
REMARK  8 active torsions:
REMARK  status: ('A' for Active; 'I' for Inactive)
REMARK    1  A    between atoms: C_1  and  C_2
REMARK    2  A    between atoms: N_5  and  C_8
REMARK    3  A    between atoms: C_8  and  C_9
REMARK    4  A    between atoms: N_14  and  C_15
REMARK    5  A    between atoms: C_15  and  C_17
REMARK    6  A    between atoms: C_20  and  O_23
REMARK    7  A    between atoms: O_23  and  C_24
REMARK    8  A    between atoms: C_24  and  C_25
REMARK                            x       y       z     vdW  Elec       q    Type
REMARK                         _______ _______ _______ _____ _____    ______ ____
ROOT
ATOM      1  C   UNL     1      -0.034  -4.388   2.671  0.00  0.00    +0.008 A 
ATOM      2  C   UNL     1      -0.664  -5.079   3.628  0.00  0.00    +0.067 A 
ATOM      3  S   UNL     1       0.632  -5.312   4.830  0.00  0.00    -0.061 S 
ATOM      4  C   UNL     1       1.874  -4.514   4.024  0.00  0.00    +0.163 A 
ATOM      5  N   UNL     1       1.280  -4.099   2.872  0.00  0.00    -0.341 N 
ATOM      6  N   UNL     1       3.134  -4.334   4.417  0.00  0.00    -0.152 NA
ATOM      7  H   UNL     1       1.784  -3.604   2.207  0.00  0.00    +0.167 HD
ENDROOT
BRANCH   6   8
ATOM      8  C   UNL     1       3.543  -4.822   5.590  0.00  0.00    +0.269 C 
ATOM      9  O   UNL     1       2.764  -5.432   6.303  0.00  0.00    -0.268 OA
BRANCH   8  10
ATOM     10  C   UNL     1       4.943  -4.623   6.026  0.00  0.00    +0.039 A 
ATOM     11  C   UNL     1       5.836  -3.920   5.214  0.00  0.00    +0.017 A 
ATOM     12  C   UNL     1       7.138  -3.736   5.623  0.00  0.00    +0.046 A 
ATOM     13  C   UNL     1       7.564  -4.249   6.843  0.00  0.00    +0.121 A 
ATOM     14  C   UNL     1       6.679  -4.949   7.653  0.00  0.00    +0.046 A 
ATOM     15  C   UNL     1       5.373  -5.132   7.253  0.00  0.00    +0.017 A 
BRANCH  13  16
ATOM     16  O   UNL     1       8.849  -4.067   7.242  0.00  0.00    -0.489 OA
BRANCH  16  17
ATOM     17  C   UNL     1       9.220  -4.621   8.506  0.00  0.00    +0.260 C 
BRANCH  17  18
ATOM     18  C   UNL     1      10.693  -4.316   8.784  0.00  0.00    +0.156 C 
ATOM     19  C   UNL     1      11.135  -5.013  10.089  0.00  0.00    +0.037 C 
ATOM     20  C   UNL     1      12.058  -3.944  10.736  0.00  0.00    +0.031 C 
ATOM     21  C   UNL     1      11.355  -2.638  10.290  0.00  0.00    +0.160 C 
ATOM     22  O   UNL     1      10.873  -2.906   8.961  0.00  0.00    -0.373 OA
ENDBRANCH  17  18
ENDBRANCH  16  17
ENDBRANCH  13  16
ENDBRANCH   8  10
ENDBRANCH   6   8
BRANCH   1  23
ATOM     23  C   UNL     1      -0.750  -3.952   1.419  0.00  0.00    -0.024 C 
BRANCH  23  28
ATOM     24  C   UNL     1      -2.194   1.558   1.146  0.00  0.00    +0.007 C 
ATOM     25  C   UNL     1      -2.248   0.029   1.167  0.00  0.00    -0.018 C 
ATOM     26  C   UNL     1      -1.695  -0.484   2.499  0.00  0.00    -0.016 C 
ATOM     27  C   UNL     1      -1.678  -2.014   2.482  0.00  0.00    -0.078 C 
ATOM     28  N   UNL     1      -0.826  -2.485   1.383  0.00  0.00    +0.383 N 
ATOM     29  C   UNL     1      -1.389  -2.057   0.097  0.00  0.00    -0.078 C 
ATOM     30  C   UNL     1      -1.396  -0.528   0.023  0.00  0.00    -0.016 C 
ATOM     31  H   UNL     1       0.100  -2.100   1.489  0.00  0.00    -0.081 HD
ENDBRANCH  23  28
ENDBRANCH   1  23
TORSDOF 7
