REMARK  Name = ZINC35097089
REMARK  15 active torsions:
REMARK  status: ('A' for Active; 'I' for Inactive)
REMARK    1  A    between atoms: C_1  and  C_2
REMARK    2  A    between atoms: C_2  and  C_3
REMARK    3  A    between atoms: C_3  and  C_4
REMARK    4  A    between atoms: C_4  and  C_5
REMARK    5  A    between atoms: C_5  and  C_7
REMARK    6  A    between atoms: C_5  and  C_9
REMARK    7  A    between atoms: C_7  and  C_8
REMARK    8  A    between atoms: N_14  and  C_17
REMARK    9  A    between atoms: C_17  and  C_18
REMARK   10  A    between atoms: C_18  and  N_19
REMARK   11  A    between atoms: N_19  and  C_20
REMARK   12  A    between atoms: C_20  and  C_21
REMARK   13  A    between atoms: C_29  and  C_30
REMARK   14  A    between atoms: C_29  and  C_31
REMARK   15  A    between atoms: N_34  and  C_35
REMARK                            x       y       z     vdW  Elec       q    Type
REMARK                         _______ _______ _______ _____ _____    ______ ____
ROOT
ATOM      1  N   UNL     1      -8.052  -9.347  -3.890  0.00  0.00    -0.280 N 
ATOM      2  C   UNL     1      -9.388  -9.177  -3.851  0.00  0.00    +0.307 C 
ATOM      3  O   UNL     1      -9.878  -8.387  -3.067  0.00  0.00    -0.252 OA
ATOM      4  N   UNL     1     -10.182  -9.883  -4.681  0.00  0.00    -0.269 N 
ATOM      5  H   UNL     1      -9.799 -10.561  -5.258  0.00  0.00    +0.156 HD
ENDROOT
BRANCH   4   6
ATOM      6  C   UNL     1     -11.560  -9.635  -4.709  0.00  0.00    +0.035 A 
ATOM      7  C   UNL     1     -12.256  -9.718  -5.908  0.00  0.00    +0.025 A 
ATOM      8  C   UNL     1     -13.615  -9.473  -5.934  0.00  0.00    +0.022 A 
ATOM      9  C   UNL     1     -14.283  -9.147  -4.766  0.00  0.00    +0.041 A 
ATOM     10  C   UNL     1     -13.591  -9.064  -3.571  0.00  0.00    +0.022 A 
ATOM     11  C   UNL     1     -12.233  -9.313  -3.538  0.00  0.00    +0.025 A 
ATOM     12 CL   UNL     1     -15.992  -8.841  -4.802  0.00  0.00    -0.084 Cl
ENDBRANCH   4   6
BRANCH   1  13
ATOM     13  C   UNL     1      -7.189  -8.580  -2.989  0.00  0.00    +0.125 C 
BRANCH  13  14
ATOM     14  C   UNL     1      -6.785  -7.268  -3.663  0.00  0.00    +0.103 C 
BRANCH  14  20
ATOM     15  C   UNL     1      -2.529  -4.428  -1.857  0.00  0.00    +0.219 C 
ATOM     16  O   UNL     1      -1.543  -5.014  -1.463  0.00  0.00    -0.275 OA
ATOM     17  N   UNL     1      -3.728  -5.041  -1.842  0.00  0.00    -0.299 N 
ATOM     18  C   UNL     1      -4.952  -4.316  -2.214  0.00  0.00    +0.123 C 
ATOM     19  C   UNL     1      -5.704  -5.137  -3.267  0.00  0.00    +0.103 C 
ATOM     20  N   UNL     1      -5.919  -6.499  -2.758  0.00  0.00    -0.298 NA
ATOM     21  C   UNL     1      -4.644  -7.192  -2.534  0.00  0.00    +0.103 C 
ATOM     22  C   UNL     1      -3.848  -6.456  -1.458  0.00  0.00    +0.123 C 
BRANCH  15  23
ATOM     23  C   UNL     1      -2.412  -3.013  -2.364  0.00  0.00    +0.075 C 
BRANCH  23  24
ATOM     24  C   UNL     1      -1.034  -2.810  -2.996  0.00  0.00    +0.009 C 
ATOM     25  C   UNL     1      -0.908  -3.692  -4.239  0.00  0.00    +0.004 C 
ENDBRANCH  23  24
BRANCH  23  26
ATOM     26  C   UNL     1      -2.587  -2.038  -1.198  0.00  0.00    +0.013 C 
BRANCH  26  27
ATOM     27  C   UNL     1      -2.594  -0.603  -1.730  0.00  0.00    +0.000 C 
BRANCH  27  29
ATOM     28  C   UNL     1      -2.776   1.807  -1.096  0.00  0.00    +0.004 C 
ATOM     29  C   UNL     1      -2.769   0.372  -0.564  0.00  0.00    -0.003 C 
ENDBRANCH  27  29
ENDBRANCH  26  27
ENDBRANCH  23  26
ENDBRANCH  15  23
ENDBRANCH  14  20
ENDBRANCH  13  14
ENDBRANCH   1  13
BRANCH   1  30
ATOM     30  C   UNL     1      -7.462 -10.299  -4.835  0.00  0.00    +0.140 C 
BRANCH  30  31
ATOM     31  C   UNL     1      -7.362 -11.655  -4.186  0.00  0.00    -0.053 C 
ATOM     32  C   UNL     1      -8.295 -12.563  -4.357  0.00  0.00    -0.025 C 
ATOM     33  C   UNL     1      -8.161 -13.907  -3.682  0.00  0.00    +0.031 C 
ATOM     34  C   UNL     1      -6.824 -13.977  -2.931  0.00  0.00    -0.000 C 
ATOM     35  C   UNL     1      -5.645 -13.437  -3.759  0.00  0.00    +0.012 C 
ATOM     36  C   UNL     1      -6.176 -12.026  -3.314  0.00  0.00    +0.022 C 
ATOM     37  C   UNL     1      -6.637 -12.742  -2.026  0.00  0.00    -0.025 C 
ATOM     38  C   UNL     1      -5.534 -12.903  -0.978  0.00  0.00    +0.012 C 
ATOM     39  C   UNL     1      -7.944 -12.197  -1.445  0.00  0.00    +0.012 C 
ENDBRANCH  30  31
ENDBRANCH   1  30
TORSDOF 11
