REMARK  Name = ZINC19848852
REMARK  13 active torsions:
REMARK  status: ('A' for Active; 'I' for Inactive)
REMARK    1  A    between atoms: C_1  and  C_2
REMARK    2  A    between atoms: C_3  and  C_33
REMARK    3  A    between atoms: C_4  and  C_23
REMARK    4  A    between atoms: C_10  and  C_15
REMARK    5  A    between atoms: C_20  and  O_21
REMARK    6  A    between atoms: O_21  and  C_22
REMARK    7  A    between atoms: C_26  and  O_31
REMARK    8  A    between atoms: C_27  and  O_29
REMARK    9  A    between atoms: O_29  and  C_30
REMARK   10  A    between atoms: O_31  and  C_32
REMARK   11  A    between atoms: C_33  and  O_35
REMARK   12  A    between atoms: O_35  and  C_36
REMARK   13  A    between atoms: C_36  and  C_37
REMARK                            x       y       z     vdW  Elec       q    Type
REMARK                         _______ _______ _______ _____ _____    ______ ____
ROOT
ATOM      1  C   UNL     1      -4.484   7.884  -2.636  0.00  0.00    +0.061 C 
ATOM      2  C   UNL     1      -5.322   7.314  -1.521  0.00  0.00    +0.016 C 
ATOM      3  C   UNL     1      -4.990   6.132  -0.974  0.00  0.00    +0.065 C 
ATOM      4  C   UNL     1      -5.793   5.539   0.147  0.00  0.00    +0.092 C 
ATOM      5  C   UNL     1      -7.157   6.179   0.232  0.00  0.00    +0.024 C 
ATOM      6  C   UNL     1      -7.401   7.363  -0.367  0.00  0.00    +0.016 C 
ATOM      7  N   UNL     1      -6.418   8.000  -1.075  0.00  0.00    -0.321 N 
ATOM      8  C   UNL     1      -8.757   8.018  -0.270  0.00  0.00    +0.060 C 
ATOM      9  C   UNL     1      -9.840   6.942  -0.162  0.00  0.00    +0.035 C 
ATOM     10  C   UNL     1      -9.548   6.079   1.070  0.00  0.00    +0.088 C 
ATOM     11  C   UNL     1      -8.162   5.508   0.950  0.00  0.00    +0.162 C 
ATOM     12  O   UNL     1      -7.906   4.446   1.483  0.00  0.00    -0.292 OA
ATOM     13  H   UNL     1      -6.516   9.075  -1.285  0.00  0.00    +0.152 HD
ENDROOT
BRANCH   9  14
ATOM     14  C   UNL     1     -11.190   7.596  -0.019  0.00  0.00    -0.002 A 
ATOM     15  C   UNL     1     -11.446   8.425   1.056  0.00  0.00    +0.007 A 
ATOM     16  C   UNL     1     -12.683   9.029   1.186  0.00  0.00    +0.001 A 
ATOM     17  C   UNL     1     -13.671   8.796   0.246  0.00  0.00    +0.004 A 
ATOM     18  C   UNL     1     -13.422   7.963  -0.828  0.00  0.00    +0.046 A 
ATOM     19  C   UNL     1     -12.179   7.360  -0.963  0.00  0.00    +0.124 A 
BRANCH  19  20
ATOM     20  O   UNL     1     -11.931   6.541  -2.018  0.00  0.00    -0.495 OA
ATOM     21  C   UNL     1     -12.996   6.344  -2.950  0.00  0.00    +0.277 C 
ENDBRANCH  19  20
ENDBRANCH   9  14
BRANCH   4  22
ATOM     22  C   UNL     1      -5.063   5.756   1.447  0.00  0.00    -0.032 A 
ATOM     23  C   UNL     1      -4.775   7.040   1.871  0.00  0.00    +0.008 A 
ATOM     24  C   UNL     1      -4.111   7.244   3.066  0.00  0.00    +0.050 A 
ATOM     25  C   UNL     1      -3.721   6.159   3.836  0.00  0.00    +0.162 A 
ATOM     26  C   UNL     1      -4.006   4.867   3.406  0.00  0.00    +0.162 A 
ATOM     27  C   UNL     1      -4.677   4.670   2.210  0.00  0.00    +0.054 A 
BRANCH  26  28
ATOM     28  O   UNL     1      -3.626   3.799   4.159  0.00  0.00    -0.491 OA
ATOM     29  C   UNL     1      -3.952   2.502   3.655  0.00  0.00    +0.277 C 
ENDBRANCH  26  28
BRANCH  25  30
ATOM     30  O   UNL     1      -3.063   6.358   5.009  0.00  0.00    -0.491 OA
ATOM     31  C   UNL     1      -2.804   7.712   5.387  0.00  0.00    +0.277 C 
ENDBRANCH  25  30
ENDBRANCH   4  22
BRANCH   3  32
ATOM     32  C   UNL     1      -3.859   5.436  -1.460  0.00  0.00    +0.338 C 
ATOM     33  O   UNL     1      -3.259   5.854  -2.432  0.00  0.00    -0.245 OA
BRANCH  32  34
ATOM     34  O   UNL     1      -3.445   4.308  -0.845  0.00  0.00    -0.459 OA
BRANCH  34  35
ATOM     35  C   UNL     1      -2.296   3.656  -1.390  0.00  0.00    +0.264 C 
BRANCH  35  36
ATOM     36  C   UNL     1      -1.980   2.406  -0.566  0.00  0.00    +0.156 C 
ATOM     37  C   UNL     1      -0.818   1.617  -1.210  0.00  0.00    +0.037 C 
ATOM     38  C   UNL     1      -0.012   1.085  -0.004  0.00  0.00    +0.031 C 
ATOM     39  C   UNL     1      -0.779   1.615   1.228  0.00  0.00    +0.160 C 
ATOM     40  O   UNL     1      -1.495   2.775   0.743  0.00  0.00    -0.373 OA
ENDBRANCH  35  36
ENDBRANCH  34  35
ENDBRANCH  32  34
ENDBRANCH   3  32
TORSDOF 9
