REMARK  Name = ZINC12034668
REMARK  11 active torsions:
REMARK  status: ('A' for Active; 'I' for Inactive)
REMARK    1  A    between atoms: C_1  and  C_2
REMARK    2  A    between atoms: C_6  and  C_7
REMARK    3  A    between atoms: C_12  and  C_15
REMARK    4  A    between atoms: C_15  and  C_27
REMARK    5  A    between atoms: N_18  and  C_22
REMARK    6  A    between atoms: C_22  and  C_23
REMARK    7  A    between atoms: C_23  and  C_24
REMARK    8  A    between atoms: C_24  and  N_68
REMARK    9  A    between atoms: C_25  and  N_68
REMARK   10  A    between atoms: C_26  and  N_68
REMARK   11  A    between atoms: C_27  and  C_28
REMARK                            x       y       z     vdW  Elec       q    Type
REMARK                         _______ _______ _______ _____ _____    ______ ____
ROOT
ATOM      1  C   UNL     1       2.690  -3.564   6.044  0.00  0.00    +0.119 C 
ATOM      2  C   UNL     1       2.651  -3.264   7.530  0.00  0.00    +0.247 C 
ATOM      3  O   UNL     1       1.812  -3.625   8.328  0.00  0.00    -0.273 OA
ATOM      4  N   UNL     1       3.741  -2.513   7.779  0.00  0.00    -0.224 N 
ATOM      5  C   UNL     1       4.457  -2.299   6.670  0.00  0.00    +0.309 C 
ATOM      6  O   UNL     1       5.485  -1.650   6.643  0.00  0.00    -0.252 OA
ATOM      7  N   UNL     1       3.914  -2.883   5.587  0.00  0.00    -0.284 N 
ATOM      8  H   UNL     1       4.260  -2.861   4.681  0.00  0.00    +0.151 HD
ENDROOT
BRANCH   1  14
ATOM      9  C   UNL     1       0.031  -0.395   2.495  0.00  0.00    +0.282 C 
ATOM     10  O   UNL     1      -0.091  -0.754   1.339  0.00  0.00    -0.267 OA
ATOM     11  N   UNL     1       0.154  -1.310   3.476  0.00  0.00    -0.295 N 
ATOM     12  C   UNL     1       0.276  -2.739   3.156  0.00  0.00    +0.108 C 
ATOM     13  C   UNL     1       1.533  -3.289   3.847  0.00  0.00    +0.025 C 
ATOM     14  C   UNL     1       1.459  -2.985   5.345  0.00  0.00    +0.025 C 
ATOM     15  C   UNL     1       1.416  -1.470   5.559  0.00  0.00    +0.025 C 
ATOM     16  C   UNL     1       0.163  -0.899   4.887  0.00  0.00    +0.108 C 
BRANCH   9  22
ATOM     17  C   UNL     1      -0.560   1.932   0.492  0.00  0.00    +0.048 C 
ATOM     18  C   UNL     1      -0.213   2.058   1.953  0.00  0.00    -0.000 A 
ATOM     19  C   UNL     1      -0.086   3.249   2.684  0.00  0.00    +0.045 A 
ATOM     20  C   UNL     1       0.229   2.905   3.953  0.00  0.00    +0.196 A 
ATOM     21  O   UNL     1       0.309   1.571   4.030  0.00  0.00    -0.458 OA
ATOM     22  C   UNL     1       0.043   1.035   2.821  0.00  0.00    +0.192 A 
ENDBRANCH   9  22
ENDBRANCH   1  14
BRANCH   4  23
ATOM     23  C   UNL     1       4.098  -1.994   9.102  0.00  0.00    +0.116 C 
BRANCH  23  24
ATOM     24  C   UNL     1       4.986  -3.010   9.825  0.00  0.00    +0.001 C 
BRANCH  24  25
ATOM     25  C   UNL     1       5.359  -2.468  11.207  0.00  0.00    -0.078 C 
BRANCH  25  28
ATOM     26  C   UNL     1       6.782  -2.865  13.125  0.00  0.00    -0.097 C 
ATOM     27  C   UNL     1       5.467  -4.674  12.198  0.00  0.00    -0.097 C 
ATOM     28  N   UNL     1       6.232  -3.449  11.884  0.00  0.00    +0.376 N 
ATOM     29  H   UNL     1       7.009  -3.692  11.257  0.00  0.00    -0.083 HD
ENDBRANCH  25  28
ENDBRANCH  24  25
ENDBRANCH  23  24
ENDBRANCH   4  23
BRANCH   1  30
ATOM     30  C   UNL     1       2.786  -5.072   5.802  0.00  0.00    +0.070 C 
BRANCH  30  31
ATOM     31  C   UNL     1       4.006  -5.616   6.500  0.00  0.00    -0.042 A 
ATOM     32  C   UNL     1       3.913  -6.065   7.805  0.00  0.00    +0.004 A 
ATOM     33  C   UNL     1       5.030  -6.565   8.446  0.00  0.00    +0.003 A 
ATOM     34  C   UNL     1       6.243  -6.616   7.785  0.00  0.00    +0.038 A 
ATOM     35  C   UNL     1       6.337  -6.166   6.479  0.00  0.00    +0.124 A 
ATOM     36  C   UNL     1       5.216  -5.671   5.835  0.00  0.00    +0.042 A 
ATOM     37  F   UNL     1       7.522  -6.216   5.831  0.00  0.00    -0.205 F 
ENDBRANCH  30  31
ENDBRANCH   1  30
TORSDOF 8
