REMARK  Name = ZINC09109009
REMARK  3 active torsions:
REMARK  status: ('A' for Active; 'I' for Inactive)
REMARK    1  A    between atoms: C_4  and  C_7
REMARK    2  A    between atoms: C_9  and  C_24
REMARK    3  A    between atoms: C_14  and  C_16
REMARK                            x       y       z     vdW  Elec       q    Type
REMARK                         _______ _______ _______ _____ _____    ______ ____
ROOT
ATOM      1  C   UNL     1       3.691  -0.679  -0.037  0.00  0.00    +0.055 C 
ATOM      2  C   UNL     1       3.681  -2.182  -0.051  0.00  0.00    +0.087 C 
ATOM      3  C   UNL     1       4.862  -2.737  -0.855  0.00  0.00    +0.147 C 
ATOM      4  N   UNL     1       6.050  -1.952  -0.516  0.00  0.00    -0.221 N 
ATOM      5  C   UNL     1       5.982  -0.636  -0.143  0.00  0.00    +0.250 A 
ATOM      6  N   UNL     1       7.205  -0.222   0.074  0.00  0.00    -0.189 NA
ATOM      7  C   UNL     1       8.066  -1.228  -0.137  0.00  0.00    +0.183 A 
ATOM      8  N   UNL     1       7.394  -2.306  -0.498  0.00  0.00    -0.147 NA
ATOM      9  N   UNL     1       4.795   0.018  -0.044  0.00  0.00    -0.215 NA
ENDROOT
BRANCH   7  10
ATOM     10  C   UNL     1       9.540  -1.144   0.012  0.00  0.00    +0.021 A 
ATOM     11  C   UNL     1      10.333  -2.261  -0.242  0.00  0.00    +0.013 A 
ATOM     12  C   UNL     1      11.704  -2.178  -0.101  0.00  0.00    +0.021 A 
ATOM     13  C   UNL     1      12.290  -0.987   0.291  0.00  0.00    +0.041 A 
ATOM     14  C   UNL     1      11.506   0.126   0.545  0.00  0.00    +0.021 A 
ATOM     15  C   UNL     1      10.136   0.054   0.402  0.00  0.00    +0.013 A 
ATOM     16 CL   UNL     1      14.015  -0.889   0.467  0.00  0.00    -0.084 Cl
ENDBRANCH   7  10
BRANCH   3  17
ATOM     17  C   UNL     1       5.088  -4.183  -0.495  0.00  0.00    -0.022 A 
ATOM     18  C   UNL     1       5.376  -4.533   0.811  0.00  0.00    +0.008 A 
ATOM     19  C   UNL     1       5.583  -5.859   1.142  0.00  0.00    +0.038 A 
ATOM     20  C   UNL     1       5.500  -6.837   0.165  0.00  0.00    +0.123 A 
ATOM     21  C   UNL     1       5.211  -6.485  -1.142  0.00  0.00    +0.038 A 
ATOM     22  C   UNL     1       5.000  -5.159  -1.470  0.00  0.00    +0.008 A 
ATOM     23  F   UNL     1       5.702  -8.133   0.488  0.00  0.00    -0.205 F 
ENDBRANCH   3  17
BRANCH   1  27
ATOM     24  C   UNL     1      -0.017   1.380   0.010  0.00  0.00    +0.000 A 
ATOM     25  C   UNL     1       1.168   2.095   0.002  0.00  0.00    +0.001 A 
ATOM     26  C   UNL     1       2.377   1.433  -0.013  0.00  0.00    +0.010 A 
ATOM     27  C   UNL     1       2.405   0.035  -0.021  0.00  0.00    -0.004 A 
ATOM     28  C   UNL     1       1.203  -0.681  -0.013  0.00  0.00    +0.010 A 
ATOM     29  C   UNL     1       0.002  -0.004   0.002  0.00  0.00    +0.001 A 
ENDBRANCH   1  27
TORSDOF 3
