REMARK  Name = ZINC35038007
REMARK  12 active torsions:
REMARK  status: ('A' for Active; 'I' for Inactive)
REMARK    1  A    between atoms: C_1  and  C_2
REMARK    2  A    between atoms: C_2  and  C_4
REMARK    3  A    between atoms: C_2  and  N_22
REMARK    4  A    between atoms: N_14  and  C_15
REMARK    5  A    between atoms: N_22  and  C_23
REMARK    6  A    between atoms: C_23  and  C_24
REMARK    7  A    between atoms: C_24  and  O_25
REMARK    8  A    between atoms: O_25  and  C_26
REMARK    9  A    between atoms: N_29  and  C_30
REMARK   10  A    between atoms: C_30  and  C_31
REMARK   11  A    between atoms: C_30  and  C_32
REMARK   12  A    between atoms: C_30  and  C_33
REMARK                            x       y       z     vdW  Elec       q    Type
REMARK                         _______ _______ _______ _____ _____    ______ ____
ROOT
ATOM      1  C   UNL     1       0.660  -1.159   1.516  0.00  0.00    +0.138 A 
ATOM      2  N   UNL     1       1.663  -0.384   1.799  0.00  0.00    -0.231 NA
ATOM      3  C   UNL     1       2.390  -0.549   2.932  0.00  0.00    +0.078 A 
ATOM      4  C   UNL     1       3.469   0.284   3.237  0.00  0.00    +0.028 A 
ATOM      5  C   UNL     1       4.180   0.081   4.398  0.00  0.00    +0.002 A 
ATOM      6  C   UNL     1       3.839  -0.944   5.271  0.00  0.00    +0.001 A 
ATOM      7  C   UNL     1       2.780  -1.779   4.992  0.00  0.00    +0.015 A 
ATOM      8  C   UNL     1       2.046  -1.590   3.823  0.00  0.00    +0.065 A 
ATOM      9  C   UNL     1       0.906  -2.450   3.473  0.00  0.00    +0.266 A 
ATOM     10  O   UNL     1       0.558  -3.364   4.198  0.00  0.00    -0.267 OA
ATOM     11  N   UNL     1       0.255  -2.182   2.317  0.00  0.00    -0.263 N 
ENDROOT
BRANCH  11  12
ATOM     12  C   UNL     1      -0.841  -2.967   1.940  0.00  0.00    +0.051 A 
ATOM     13  C   UNL     1      -0.650  -4.285   1.546  0.00  0.00    +0.027 A 
ATOM     14  C   UNL     1      -1.733  -5.058   1.175  0.00  0.00    +0.017 A 
ATOM     15  C   UNL     1      -3.007  -4.519   1.194  0.00  0.00    +0.018 A 
ATOM     16  C   UNL     1      -3.201  -3.206   1.585  0.00  0.00    +0.017 A 
ATOM     17  C   UNL     1      -2.122  -2.431   1.964  0.00  0.00    +0.027 A 
ATOM     18 BR   UNL     1      -4.488  -5.580   0.683  0.00  0.00    -0.050 Br
ENDBRANCH  11  12
BRANCH   1  20
ATOM     19  C   UNL     1      -0.571   0.546   0.201  0.00  0.00    +0.036 C 
ATOM     20  C   UNL     1      -0.098  -0.909   0.238  0.00  0.00    +0.141 C 
BRANCH  20  21
ATOM     21  N   UNL     1       0.777  -1.167  -0.908  0.00  0.00    -0.274 N 
ATOM     22  C   UNL     1       0.394  -2.031  -1.868  0.00  0.00    +0.303 C 
ATOM     23  O   UNL     1      -0.679  -2.597  -1.784  0.00  0.00    -0.253 OA
ATOM     24  N   UNL     1       1.200  -2.268  -2.922  0.00  0.00    -0.294 N 
ATOM     25  H   UNL     1       2.056  -1.817  -2.990  0.00  0.00    +0.151 HD
BRANCH  24  26
ATOM     26  C   UNL     1       0.782  -3.208  -3.966  0.00  0.00    +0.028 C 
ATOM     27  C   UNL     1      -0.521  -2.719  -4.601  0.00  0.00    +0.031 C 
ATOM     28  C   UNL     1       1.870  -3.294  -5.039  0.00  0.00    +0.031 C 
ATOM     29  C   UNL     1       0.563  -4.591  -3.350  0.00  0.00    +0.031 C 
ENDBRANCH  24  26
BRANCH  21  30
ATOM     30  C   UNL     1       2.070  -0.486  -1.009  0.00  0.00    +0.138 C 
BRANCH  30  31
ATOM     31  C   UNL     1       3.167  -1.383  -0.432  0.00  0.00    +0.178 C 
BRANCH  31  32
ATOM     32  O   UNL     1       3.281  -2.567  -1.225  0.00  0.00    -0.381 OA
ATOM     33  C   UNL     1       4.202  -3.527  -0.706  0.00  0.00    +0.194 C 
ENDBRANCH  31  32
ENDBRANCH  30  31
ENDBRANCH  21  30
ENDBRANCH  20  21
ENDBRANCH   1  20
TORSDOF 7
