REMARK  Name = ZINC35032447
REMARK  12 active torsions:
REMARK  status: ('A' for Active; 'I' for Inactive)
REMARK    1  A    between atoms: C_1  and  C_2
REMARK    2  A    between atoms: C_2  and  C_3
REMARK    3  A    between atoms: C_3  and  N_4
REMARK    4  A    between atoms: C_14  and  C_15
REMARK    5  A    between atoms: C_15  and  C_17
REMARK    6  A    between atoms: C_15  and  N_18
REMARK    7  A    between atoms: N_18  and  C_19
REMARK    8  A    between atoms: C_19  and  C_20
REMARK    9  A    between atoms: C_20  and  N_21
REMARK   10  A    between atoms: N_21  and  C_22
REMARK   11  A    between atoms: N_21  and  C_23
REMARK   12  A    between atoms: N_26  and  C_27
REMARK                            x       y       z     vdW  Elec       q    Type
REMARK                         _______ _______ _______ _____ _____    ______ ____
ROOT
ATOM      1  N   UNL     1      -2.479  -3.069  -2.882  0.00  0.00    -0.277 N 
ATOM      2  C   UNL     1      -2.798  -3.000  -4.190  0.00  0.00    +0.307 C 
ATOM      3  O   UNL     1      -2.107  -2.350  -4.951  0.00  0.00    -0.252 OA
ATOM      4  N   UNL     1      -3.883  -3.651  -4.655  0.00  0.00    -0.269 N 
ATOM      5  H   UNL     1      -4.473  -4.112  -4.038  0.00  0.00    +0.156 HD
ENDROOT
BRANCH   4   6
ATOM      6  C   UNL     1      -4.158  -3.661  -6.024  0.00  0.00    +0.042 A 
ATOM      7  C   UNL     1      -3.780  -2.599  -6.816  0.00  0.00    +0.024 A 
ATOM      8  C   UNL     1      -4.050  -2.599  -8.182  0.00  0.00    +0.002 A 
ATOM      9  C   UNL     1      -4.693  -3.644  -8.771  0.00  0.00    +0.008 A 
ATOM     10  C   UNL     1      -5.094  -4.747  -7.998  0.00  0.00    -0.016 A 
ATOM     11  C   UNL     1      -4.820  -4.761  -6.609  0.00  0.00    +0.003 A 
ATOM     12  C   UNL     1      -5.217  -5.866  -5.839  0.00  0.00    +0.010 A 
ATOM     13  C   UNL     1      -5.853  -6.910  -6.437  0.00  0.00    +0.001 A 
ATOM     14  C   UNL     1      -6.118  -6.900  -7.805  0.00  0.00    +0.001 A 
ATOM     15  C   UNL     1      -5.759  -5.840  -8.580  0.00  0.00    +0.008 A 
ENDBRANCH   4   6
BRANCH   1  16
ATOM     16  C   UNL     1      -1.300  -2.362  -2.377  0.00  0.00    +0.141 C 
ATOM     17  C   UNL     1      -1.729  -1.351  -1.312  0.00  0.00    +0.036 C 
BRANCH  16  28
ATOM     18  N   UNL     1       0.863  -3.536  -2.373  0.00  0.00    -0.295 N 
ATOM     19  C   UNL     1       1.762  -4.411  -1.864  0.00  0.00    +0.262 A 
ATOM     20  O   UNL     1       2.847  -4.581  -2.390  0.00  0.00    -0.267 OA
ATOM     21  C   UNL     1       1.378  -5.147  -0.651  0.00  0.00    +0.065 A 
ATOM     22  C   UNL     1       2.231  -6.070  -0.048  0.00  0.00    +0.015 A 
ATOM     23  C   UNL     1       1.820  -6.731   1.089  0.00  0.00    +0.001 A 
ATOM     24  C   UNL     1       0.566  -6.487   1.635  0.00  0.00    +0.002 A 
ATOM     25  C   UNL     1      -0.291  -5.580   1.054  0.00  0.00    +0.028 A 
ATOM     26  C   UNL     1       0.103  -4.896  -0.098  0.00  0.00    +0.078 A 
ATOM     27  N   UNL     1      -0.710  -3.993  -0.703  0.00  0.00    -0.232 NA
ATOM     28  C   UNL     1      -0.341  -3.353  -1.771  0.00  0.00    +0.133 A 
BRANCH  18  29
ATOM     29  C   UNL     1       1.194  -2.776  -3.581  0.00  0.00    +0.126 C 
BRANCH  29  31
ATOM     30  C   UNL     1       2.218  -0.665  -4.440  0.00  0.00    +0.005 C 
ATOM     31  C   UNL     1       1.764  -1.413  -3.184  0.00  0.00    +0.018 C 
ENDBRANCH  29  31
ENDBRANCH  18  29
ENDBRANCH  16  28
ENDBRANCH   1  16
BRANCH   1  32
ATOM     32  C   UNL     1      -3.312  -3.852  -1.966  0.00  0.00    +0.091 C 
BRANCH  32  33
ATOM     33  C   UNL     1      -4.412  -2.960  -1.388  0.00  0.00    -0.060 C 
BRANCH  33  34
ATOM     34  N   UNL     1      -5.247  -3.745  -0.469  0.00  0.00    +0.377 N 
ATOM     35  C   UNL     1      -4.442  -4.167   0.685  0.00  0.00    -0.097 C 
ATOM     36  C   UNL     1      -6.373  -2.922  -0.006  0.00  0.00    -0.097 C 
ATOM     37  H   UNL     1      -5.600  -4.559  -0.948  0.00  0.00    -0.083 HD
ENDBRANCH  33  34
ENDBRANCH  32  33
ENDBRANCH   1  32
TORSDOF 8
