REMARK  Name = ZINC39197476
REMARK  14 active torsions:
REMARK  status: ('A' for Active; 'I' for Inactive)
REMARK    1  A    between atoms: C_1  and  C_2
REMARK    2  A    between atoms: C_2  and  C_3
REMARK    3  A    between atoms: C_8  and  N_9
REMARK    4  A    between atoms: C_10  and  C_30
REMARK    5  A    between atoms: C_12  and  C_14
REMARK    6  A    between atoms: N_16  and  C_17
REMARK    7  A    between atoms: C_17  and  C_19
REMARK    8  A    between atoms: C_17  and  C_20
REMARK    9  A    between atoms: N_22  and  C_23
REMARK   10  A    between atoms: C_23  and  C_25
REMARK   11  A    between atoms: C_23  and  C_26
REMARK   12  A    between atoms: C_26  and  C_27
REMARK   13  A    between atoms: C_27  and  C_28
REMARK   14  A    between atoms: C_27  and  C_29
REMARK                            x       y       z     vdW  Elec       q    Type
REMARK                         _______ _______ _______ _____ _____    ______ ____
ROOT
ATOM      1  N   UNL     1       3.409   0.036  -0.096  0.00  0.00    -0.231 N 
ATOM      2  C   UNL     1       4.758   0.253  -0.127  0.00  0.00    +0.075 A 
ATOM      3  C   UNL     1       5.102   0.777   1.088  0.00  0.00    +0.063 A 
ATOM      4  C   UNL     1       3.897   0.854   1.820  0.00  0.00    +0.148 A 
ATOM      5  N   UNL     1       2.934   0.398   1.042  0.00  0.00    -0.161 NA
ENDROOT
BRANCH   2   6
ATOM      6  C   UNL     1       5.671  -0.027  -1.257  0.00  0.00    +0.001 A 
ATOM      7  C   UNL     1       5.175  -0.100  -2.559  0.00  0.00    +0.010 A 
ATOM      8  C   UNL     1       6.036  -0.363  -3.601  0.00  0.00    +0.004 A 
ATOM      9  C   UNL     1       7.394  -0.555  -3.370  0.00  0.00    -0.044 A 
ATOM     10  C   UNL     1       7.890  -0.479  -2.087  0.00  0.00    -0.044 A 
ATOM     11  C   UNL     1       7.032  -0.213  -1.031  0.00  0.00    +0.014 A 
ATOM     12  C   UNL     1       9.352  -0.661  -1.771  0.00  0.00    +0.035 C 
ATOM     13  C   UNL     1      10.070  -1.351  -2.929  0.00  0.00    +0.005 C 
ATOM     14  C   UNL     1       9.738  -0.597  -4.222  0.00  0.00    +0.005 C 
ATOM     15  C   UNL     1       8.270  -0.847  -4.561  0.00  0.00    +0.035 C 
ENDBRANCH   2   6
BRANCH   1  21
ATOM     16  C   UNL     1       1.596   0.227  -1.680  0.00  0.00    -0.022 A 
ATOM     17  C   UNL     1       0.858  -0.298  -2.724  0.00  0.00    +0.006 A 
ATOM     18  C   UNL     1       1.171  -1.544  -3.235  0.00  0.00    +0.000 A 
ATOM     19  C   UNL     1       2.223  -2.268  -2.705  0.00  0.00    +0.002 A 
ATOM     20  C   UNL     1       2.965  -1.749  -1.662  0.00  0.00    +0.028 A 
ATOM     21  C   UNL     1       2.656  -0.495  -1.149  0.00  0.00    +0.069 A 
BRANCH  16  23
ATOM     22  C   UNL     1       2.196   2.633  -1.719  0.00  0.00    +0.009 C 
ATOM     23  C   UNL     1       1.254   1.585  -1.123  0.00  0.00    +0.034 C 
ENDBRANCH  16  23
ENDBRANCH   1  21
BRANCH   4  24
ATOM     24  C   UNL     1       3.742   1.357   3.200  0.00  0.00    +0.265 C 
ATOM     25  O   UNL     1       4.712   1.756   3.814  0.00  0.00    -0.268 OA
ATOM     26  N   UNL     1       2.525   1.373   3.779  0.00  0.00    -0.299 N 
ATOM     27  H   UNL     1       1.751   1.054   3.289  0.00  0.00    +0.150 HD
BRANCH  26  28
ATOM     28  C   UNL     1       2.371   1.872   5.147  0.00  0.00    +0.156 C 
ATOM     29  C   UNL     1       2.217   3.394   5.121  0.00  0.00    +0.038 C 
BRANCH  28  30
ATOM     30  C   UNL     1       1.148   1.253   5.773  0.00  0.00    +0.233 C 
ATOM     31  O   UNL     1       0.471   0.473   5.138  0.00  0.00    -0.274 OA
ATOM     32  N   UNL     1       0.806   1.568   7.038  0.00  0.00    -0.311 N 
ATOM     33  H   UNL     1       1.347   2.192   7.546  0.00  0.00    +0.149 HD
BRANCH  32  34
ATOM     34  C   UNL     1      -0.384   0.967   7.647  0.00  0.00    +0.070 C 
ATOM     35  C   UNL     1      -1.620   1.784   7.265  0.00  0.00    +0.028 C 
BRANCH  34  36
ATOM     36  C   UNL     1      -0.229   0.957   9.169  0.00  0.00    +0.025 C 
BRANCH  36  37
ATOM     37  C   UNL     1       0.950   0.061   9.556  0.00  0.00    -0.015 C 
ATOM     38  C   UNL     1       1.196   0.165  11.062  0.00  0.00    +0.007 C 
ATOM     39  C   UNL     1       0.629  -1.389   9.190  0.00  0.00    +0.007 C 
ENDBRANCH  36  37
ENDBRANCH  34  36
ENDBRANCH  32  34
ENDBRANCH  28  30
ENDBRANCH  26  28
ENDBRANCH   4  24
TORSDOF 9
