REMARK  Name = ZINC09823983
REMARK  10 active torsions:
REMARK  status: ('A' for Active; 'I' for Inactive)
REMARK    1  A    between atoms: C_1  and  C_2
REMARK    2  A    between atoms: C_2  and  C_3
REMARK    3  A    between atoms: C_3  and  C_4
REMARK    4  A    between atoms: C_3  and  C_6
REMARK    5  A    between atoms: C_4  and  C_5
REMARK    6  A    between atoms: N_8  and  C_9
REMARK    7  A    between atoms: C_9  and  C_10
REMARK    8  A    between atoms: C_10  and  N_11
REMARK    9  A    between atoms: N_18  and  C_21
REMARK   10  A    between atoms: C_21  and  C_22
REMARK                            x       y       z     vdW  Elec       q    Type
REMARK                         _______ _______ _______ _____ _____    ______ ____
ROOT
ATOM      1  N   UNL     1       0.415   1.675   1.219  0.00  0.00    -0.245 N 
ATOM      2  C   UNL     1      -0.428   0.994   2.038  0.00  0.00    +0.165 A 
ATOM      3  C   UNL     1      -0.620   1.797   3.173  0.00  0.00    +0.103 A 
ATOM      4  C   UNL     1       0.138   2.968   2.990  0.00  0.00    +0.150 A 
ATOM      5  N   UNL     1       0.749   2.885   1.840  0.00  0.00    -0.177 NA
ATOM      6  C   UNL     1      -1.496   1.296   4.232  0.00  0.00    +0.265 A 
ATOM      7  O   UNL     1      -1.702   1.945   5.242  0.00  0.00    -0.267 OA
ATOM      8  N   UNL     1      -2.070   0.084   4.047  0.00  0.00    -0.294 N 
ATOM      9  C   UNL     1      -1.827  -0.623   2.914  0.00  0.00    +0.204 A 
ATOM     10  N   UNL     1      -1.050  -0.193   1.964  0.00  0.00    -0.218 NA
ENDROOT
BRANCH   1  11
ATOM     11  C   UNL     1       0.897   1.219  -0.087  0.00  0.00    +0.164 C 
BRANCH  11  12
ATOM     12  C   UNL     1      -0.065   1.692  -1.179  0.00  0.00    +0.127 C 
BRANCH  12  15
ATOM     13  C   UNL     1      -0.275   1.537  -3.602  0.00  0.00    +0.216 C 
ATOM     14  O   UNL     1      -1.297   2.186  -3.525  0.00  0.00    -0.276 OA
ATOM     15  N   UNL     1       0.417   1.236  -2.485  0.00  0.00    -0.313 N 
ATOM     16  H   UNL     1       1.235   0.717  -2.546  0.00  0.00    +0.149 HD
BRANCH  13  17
ATOM     17  C   UNL     1       0.221   1.068  -4.945  0.00  0.00    +0.074 C 
BRANCH  17  19
ATOM     18  C   UNL     1      -1.103  -1.040  -4.726  0.00  0.00    +0.004 C 
ATOM     19  C   UNL     1       0.294  -0.460  -4.957  0.00  0.00    +0.009 C 
ENDBRANCH  17  19
BRANCH  17  20
ATOM     20  C   UNL     1      -0.741   1.541  -6.037  0.00  0.00    +0.009 C 
ATOM     21  C   UNL     1      -0.171   1.179  -7.410  0.00  0.00    +0.004 C 
ENDBRANCH  17  20
ENDBRANCH  13  17
ENDBRANCH  12  15
ENDBRANCH  11  12
ENDBRANCH   1  11
BRANCH   8  22
ATOM     22  C   UNL     1      -2.958  -0.468   5.074  0.00  0.00    +0.161 C 
BRANCH  22  23
ATOM     23  C   UNL     1      -2.149  -1.279   6.054  0.00  0.00    -0.028 A 
ATOM     24  C   UNL     1      -1.952  -2.629   5.835  0.00  0.00    +0.006 A 
ATOM     25  C   UNL     1      -1.206  -3.373   6.731  0.00  0.00    +0.015 A 
ATOM     26  C   UNL     1      -0.666  -2.767   7.851  0.00  0.00    +0.018 A 
ATOM     27  C   UNL     1      -0.868  -1.416   8.072  0.00  0.00    +0.015 A 
ATOM     28  C   UNL     1      -1.610  -0.673   7.173  0.00  0.00    +0.006 A 
ATOM     29 BR   UNL     1       0.348  -3.785   9.081  0.00  0.00    -0.050 Br
ENDBRANCH  22  23
ENDBRANCH   8  22
TORSDOF 8
