REMARK  Name = ZINC13205970
REMARK  13 active torsions:
REMARK  status: ('A' for Active; 'I' for Inactive)
REMARK    1  A    between atoms: C_1  and  C_2
REMARK    2  A    between atoms: C_6  and  C_8
REMARK    3  A    between atoms: C_11  and  S_16
REMARK    4  A    between atoms: N_12  and  C_13
REMARK    5  A    between atoms: C_13  and  C_14
REMARK    6  A    between atoms: S_16  and  C_17
REMARK    7  A    between atoms: C_17  and  C_18
REMARK    8  A    between atoms: C_18  and  C_20
REMARK    9  A    between atoms: C_22  and  C_35
REMARK   10  A    between atoms: N_23  and  C_26
REMARK   11  A    between atoms: C_24  and  C_25
REMARK   12  A    between atoms: C_26  and  C_28
REMARK   13  A    between atoms: C_26  and  C_29
REMARK                            x       y       z     vdW  Elec       q    Type
REMARK                         _______ _______ _______ _____ _____    ______ ____
ROOT
ATOM      1  C   UNL     1      -1.814  10.741  -1.953  0.00  0.00    +0.157 C 
ENDROOT
BRANCH   1   2
ATOM      2  C   UNL     1      -2.014  12.090  -1.312  0.00  0.00    +0.175 C 
ATOM      3  O   UNL     1      -3.096  12.389  -0.850  0.00  0.00    -0.291 OA
BRANCH   2   4
ATOM      4  C   UNL     1      -0.902  13.041  -1.246  0.00  0.00    +0.039 A 
ATOM      5  C   UNL     1       0.463  12.844  -1.752  0.00  0.00    +0.034 A 
ATOM      6  C   UNL     1       1.136  13.973  -1.474  0.00  0.00    +0.017 A 
ATOM      7  N   UNL     1       0.302  14.848  -0.840  0.00  0.00    -0.341 N 
ATOM      8  C   UNL     1      -0.923  14.311  -0.700  0.00  0.00    +0.027 A 
ATOM      9  C   UNL     1      -2.112  14.977  -0.056  0.00  0.00    +0.064 C 
ATOM     10  C   UNL     1       2.583  14.232  -1.809  0.00  0.00    +0.063 C 
BRANCH   7  11
ATOM     11  C   UNL     1       0.685  16.186  -0.383  0.00  0.00    +0.114 C 
ATOM     12  C   UNL     1      -0.524  17.119  -0.464  0.00  0.00    +0.036 C 
BRANCH  11  13
ATOM     13  C   UNL     1       1.166  16.110   1.044  0.00  0.00    -0.025 A 
ATOM     14  C   UNL     1       0.494  15.323   1.959  0.00  0.00    +0.005 A 
ATOM     15  C   UNL     1       0.937  15.250   3.266  0.00  0.00    +0.000 A 
ATOM     16  C   UNL     1       2.048  15.973   3.660  0.00  0.00    +0.000 A 
ATOM     17  C   UNL     1       2.718  16.764   2.746  0.00  0.00    +0.000 A 
ATOM     18  C   UNL     1       2.277  16.833   1.438  0.00  0.00    +0.005 A 
ENDBRANCH  11  13
ENDBRANCH   7  11
ENDBRANCH   2   4
ENDBRANCH   1   2
BRANCH   1  19
ATOM     19  S   UNL     1      -3.361   9.804  -1.879  0.00  0.00    -0.078 S 
BRANCH  19  23
ATOM     20  C   UNL     1      -2.814   6.313  -3.546  0.00  0.00    +0.165 A 
ATOM     21  N   UNL     1      -1.635   6.877  -3.667  0.00  0.00    -0.128 NA
ATOM     22  N   UNL     1      -1.659   8.055  -3.154  0.00  0.00    -0.122 NA
ATOM     23  C   UNL     1      -2.854   8.315  -2.674  0.00  0.00    +0.193 A 
ATOM     24  N   UNL     1      -3.632   7.218  -2.912  0.00  0.00    -0.291 N 
BRANCH  20  30
ATOM     25  C   UNL     1      -1.944   2.340  -6.438  0.00  0.00    +0.044 C 
ATOM     26  C   UNL     1      -2.778   3.047  -5.401  0.00  0.00    -0.050 A 
ATOM     27  C   UNL     1      -3.902   2.430  -4.881  0.00  0.00    +0.003 A 
ATOM     28  C   UNL     1      -4.676   3.074  -3.932  0.00  0.00    +0.001 A 
ATOM     29  C   UNL     1      -4.325   4.333  -3.490  0.00  0.00    +0.011 A 
ATOM     30  C   UNL     1      -3.193   4.961  -4.011  0.00  0.00    +0.020 A 
ATOM     31  C   UNL     1      -2.419   4.308  -4.972  0.00  0.00    +0.015 A 
ENDBRANCH  20  30
BRANCH  24  32
ATOM     32  C   UNL     1      -5.044   7.042  -2.561  0.00  0.00    +0.250 C 
BRANCH  32  33
ATOM     33  C   UNL     1      -5.148   6.442  -1.182  0.00  0.00    +0.375 C 
ATOM     34  O   UNL     1      -4.146   6.189  -0.557  0.00  0.00    -0.244 OA
ATOM     35  O   UNL     1      -6.354   6.190  -0.649  0.00  0.00    -0.244 OA
ENDBRANCH  32  33
ENDBRANCH  24  32
ENDBRANCH  19  23
ENDBRANCH   1  19
TORSDOF 9
