REMARK  Name = ZINC59359367
REMARK  11 active torsions:
REMARK  status: ('A' for Active; 'I' for Inactive)
REMARK    1  A    between atoms: C_1  and  C_2
REMARK    2  A    between atoms: C_3  and  C_33
REMARK    3  A    between atoms: C_4  and  C_32
REMARK    4  A    between atoms: C_5  and  S_10
REMARK    5  A    between atoms: C_6  and  C_9
REMARK    6  A    between atoms: C_7  and  C_8
REMARK    7  A    between atoms: S_10  and  N_13
REMARK    8  A    between atoms: C_19  and  C_21
REMARK    9  A    between atoms: C_21  and  C_23
REMARK   10  A    between atoms: C_21  and  N_24
REMARK   11  A    between atoms: C_25  and  C_27
REMARK                            x       y       z     vdW  Elec       q    Type
REMARK                         _______ _______ _______ _____ _____    ______ ____
ROOT
ATOM      1  N   UNL     1      -0.523  -6.077   0.182  0.00  0.00    -0.174 NA
ATOM      2  C   UNL     1       0.165  -6.528  -1.035  0.00  0.00    +0.128 C 
ATOM      3  C   UNL     1       1.601  -5.991  -1.014  0.00  0.00    +0.125 C 
ATOM      4  N   UNL     1       2.199  -6.298   0.292  0.00  0.00    -0.297 N 
ATOM      5  C   UNL     1       1.511  -5.846   1.510  0.00  0.00    +0.125 C 
ATOM      6  C   UNL     1       0.078  -6.379   1.489  0.00  0.00    +0.128 C 
ATOM      7  C   UNL     1       3.358  -6.983   0.373  0.00  0.00    +0.236 C 
ATOM      8  O   UNL     1       3.964  -7.270  -0.638  0.00  0.00    -0.274 OA
ENDROOT
BRANCH   1   9
ATOM      9  S   UNL     1      -1.946  -5.236   0.084  0.00  0.00    +0.061 S 
ATOM     10  O   UNL     1      -2.662  -5.506   1.281  0.00  0.00    -0.153 OA
ATOM     11  O   UNL     1      -2.486  -5.502  -1.204  0.00  0.00    -0.153 OA
BRANCH   9  16
ATOM     12  C   UNL     1      -0.557   0.635   0.193  0.00  0.00    +0.044 C 
ATOM     13  C   UNL     1      -0.904  -0.831   0.166  0.00  0.00    -0.044 A 
ATOM     14  C   UNL     1      -1.213  -1.491   1.341  0.00  0.00    -0.043 A 
ATOM     15  C   UNL     1      -1.531  -2.836   1.316  0.00  0.00    -0.021 A 
ATOM     16  C   UNL     1      -1.541  -3.521   0.116  0.00  0.00    +0.112 A 
ATOM     17  C   UNL     1      -1.234  -2.862  -1.060  0.00  0.00    -0.021 A 
ATOM     18  C   UNL     1      -0.919  -1.516  -1.035  0.00  0.00    -0.043 A 
ATOM     19  C   UNL     1      -0.589  -0.795  -2.317  0.00  0.00    +0.044 C 
ATOM     20  C   UNL     1      -1.244  -3.609  -2.368  0.00  0.00    +0.046 C 
ATOM     21  C   UNL     1      -1.866  -3.555   2.597  0.00  0.00    +0.046 C 
ATOM     22  C   UNL     1      -1.201  -0.743   2.650  0.00  0.00    +0.044 C 
ENDBRANCH   9  16
ENDBRANCH   1   9
BRANCH   7  23
ATOM     23  C   UNL     1       3.899  -7.391   1.718  0.00  0.00    +0.156 C 
ATOM     24  C   UNL     1       4.334  -6.145   2.493  0.00  0.00    +0.038 C 
BRANCH  23  25
ATOM     25  N   UNL     1       5.051  -8.277   1.532  0.00  0.00    -0.300 N 
ATOM     26  C   UNL     1       5.390  -9.154   2.498  0.00  0.00    +0.248 C 
ATOM     27  O   UNL     1       4.740  -9.210   3.524  0.00  0.00    -0.270 OA
ATOM     28  H   UNL     1       5.570  -8.232   0.714  0.00  0.00    +0.150 HD
BRANCH  26  29
ATOM     29  C   UNL     1       6.549 -10.044   2.311  0.00  0.00    +0.074 A 
ATOM     30  C   UNL     1       7.053 -11.057   3.251  0.00  0.00    +0.054 A 
ATOM     31  C   UNL     1       8.117 -11.616   2.655  0.00  0.00    +0.195 A 
ATOM     32  O   UNL     1       8.302 -11.043   1.456  0.00  0.00    -0.470 OA
ATOM     33  C   UNL     1       7.375 -10.106   1.228  0.00  0.00    +0.207 A 
ENDBRANCH  26  29
ENDBRANCH  23  25
ENDBRANCH   7  23
TORSDOF 5
