REMARK  Name = ZINC16009803
REMARK  4 active torsions:
REMARK  status: ('A' for Active; 'I' for Inactive)
REMARK    1  A    between atoms: C_1  and  C_2
REMARK    2  A    between atoms: C_2  and  C_3
REMARK    3  A    between atoms: N_25  and  C_28
REMARK    4  A    between atoms: C_31  and  N_34
REMARK                            x       y       z     vdW  Elec       q    Type
REMARK                         _______ _______ _______ _____ _____    ______ ____
ROOT
ATOM      1  C   UNL     1      -3.737  -9.053   1.767  0.00  0.00    -0.026 A 
ATOM      2  C   UNL     1      -3.336  -8.930   3.082  0.00  0.00    +0.005 A 
ATOM      3  C   UNL     1      -2.112  -8.366   3.388  0.00  0.00    +0.001 A 
ATOM      4  C   UNL     1      -1.284  -7.923   2.371  0.00  0.00    +0.004 A 
ATOM      5  C   UNL     1      -1.681  -8.044   1.059  0.00  0.00    -0.027 A 
ATOM      6  C   UNL     1      -2.910  -8.609   0.738  0.00  0.00    +0.039 A 
ATOM      7  N   UNL     1      -3.088  -8.625  -0.646  0.00  0.00    -0.286 N 
ATOM      8  C   UNL     1      -2.036  -8.098  -1.299  0.00  0.00    +0.212 C 
ATOM      9  O   UNL     1      -1.915  -7.986  -2.501  0.00  0.00    -0.277 OA
ATOM     10  C   UNL     1      -1.035  -7.674  -0.253  0.00  0.00    +0.053 C 
ATOM     11  C   UNL     1      -0.609  -6.276  -0.347  0.00  0.00    +0.089 C 
ATOM     12  C   UNL     1       0.800  -6.304   0.372  0.00  0.00    +0.074 C 
ATOM     13  C   UNL     1       1.353  -7.515  -0.378  0.00  0.00    -0.054 C 
ATOM     14  N   UNL     1       0.202  -8.484  -0.389  0.00  0.00    +0.395 N 
ATOM     15  C   UNL     1       0.188  -9.107  -1.748  0.00  0.00    -0.076 C 
ATOM     16  C   UNL     1       1.363  -8.521  -2.554  0.00  0.00    -0.020 C 
ATOM     17  C   UNL     1       1.627  -7.164  -1.851  0.00  0.00    -0.016 C 
ATOM     18  C   UNL     1       1.206  -4.913  -0.043  0.00  0.00    +0.228 C 
ATOM     19  O   UNL     1       2.319  -4.529  -0.333  0.00  0.00    -0.275 OA
ATOM     20  N   UNL     1       0.059  -4.172  -0.021  0.00  0.00    -0.210 N 
ATOM     21  C   UNL     1      -1.074  -4.947  -0.015  0.00  0.00    +0.229 C 
ATOM     22  O   UNL     1      -2.211  -4.596   0.217  0.00  0.00    -0.275 OA
ATOM     23  H   UNL     1      -4.011  -9.038  -1.077  0.00  0.00    +0.155 HD
ATOM     24  H   UNL     1       0.266  -9.242   0.405  0.00  0.00    -0.079 HD
ENDROOT
BRANCH  20  25
ATOM     25  C   UNL     1       0.040  -2.771  -0.013  0.00  0.00    +0.044 A 
ATOM     26  C   UNL     1       1.232  -2.059  -0.021  0.00  0.00    +0.026 A 
ATOM     27  C   UNL     1       1.210  -0.678  -0.013  0.00  0.00    +0.034 A 
ATOM     28  C   UNL     1       0.002  -0.004   0.002  0.00  0.00    +0.126 A 
ATOM     29  C   UNL     1      -1.187  -0.710   0.015  0.00  0.00    +0.034 A 
ATOM     30  C   UNL     1      -1.171  -2.091   0.002  0.00  0.00    +0.026 A 
BRANCH  28  31
ATOM     31  N   UNL     1      -0.018   1.476   0.010  0.00  0.00    +0.056 N 
ATOM     32  O   UNL     1       1.028   2.099   0.004  0.00  0.00    -0.126 OA
ATOM     33  O   UNL     1      -1.081   2.071   0.018  0.00  0.00    -0.126 OA
ENDBRANCH  28  31
ENDBRANCH  20  25
BRANCH   1  35
ATOM     34  C   UNL     1      -4.891 -11.158   1.147  0.00  0.00    +0.009 C 
ATOM     35  C   UNL     1      -5.074  -9.668   1.444  0.00  0.00    +0.033 C 
ENDBRANCH   1  35
TORSDOF 3
