REMARK  Name = ZINC59223804
REMARK  9 active torsions:
REMARK  status: ('A' for Active; 'I' for Inactive)
REMARK    1  A    between atoms: C_1  and  C_2
REMARK    2  A    between atoms: C_5  and  C_38
REMARK    3  A    between atoms: C_6  and  N_8
REMARK    4  A    between atoms: N_10  and  C_30
REMARK    5  A    between atoms: C_14  and  C_15
REMARK    6  A    between atoms: C_17  and  N_26
REMARK    7  A    between atoms: C_20  and  N_21
REMARK    8  A    between atoms: C_32  and  C_37
REMARK    9  A    between atoms: C_35  and  C_36
REMARK                            x       y       z     vdW  Elec       q    Type
REMARK                         _______ _______ _______ _____ _____    ______ ____
ROOT
ATOM      1  N   UNL     1       0.744  -2.611   2.405  0.00  0.00    -0.225 NA
ATOM      2  C   UNL     1       0.599  -1.922   3.528  0.00  0.00    +0.173 C 
ATOM      3  N   UNL     1       0.729  -2.386   4.810  0.00  0.00    -0.214 N 
ATOM      4  C   UNL     1       0.541  -1.524   5.803  0.00  0.00    +0.263 C 
ATOM      5  O   UNL     1       0.633  -1.833   6.975  0.00  0.00    -0.269 OA
ATOM      6  C   UNL     1       0.211  -0.153   5.356  0.00  0.00    +0.079 C 
ATOM      7  C   UNL     1      -0.045   0.987   6.138  0.00  0.00    +0.030 C 
ATOM      8  S   UNL     1       0.226  -0.295   3.683  0.00  0.00    -0.048 S 
ENDROOT
BRANCH   1  14
ATOM      9  C   UNL     1      -2.287  -0.005  -0.383  0.00  0.00    +0.044 C 
ATOM     10  C   UNL     1      -0.994  -0.751  -0.173  0.00  0.00    -0.048 A 
ATOM     11  C   UNL     1      -0.072  -0.841  -1.208  0.00  0.00    +0.004 A 
ATOM     12  C   UNL     1       1.123  -1.525  -1.031  0.00  0.00    +0.006 A 
ATOM     13  C   UNL     1       1.407  -2.118   0.166  0.00  0.00    -0.025 A 
ATOM     14  C   UNL     1       0.478  -2.033   1.226  0.00  0.00    +0.070 A 
ATOM     15  C   UNL     1      -0.733  -1.330   1.035  0.00  0.00    +0.031 A 
ATOM     16  C   UNL     1       2.705  -2.860   0.354  0.00  0.00    +0.046 C 
ENDBRANCH   1  14
BRANCH   3  17
ATOM     17  C   UNL     1       1.048  -3.724   5.066  0.00  0.00    +0.047 A 
ATOM     18  C   UNL     1       2.377  -4.113   5.180  0.00  0.00    +0.027 A 
ATOM     19  C   UNL     1       2.688  -5.434   5.433  0.00  0.00    -0.049 A 
ATOM     20  C   UNL     1       1.679  -6.370   5.571  0.00  0.00    +0.004 A 
ATOM     21  C   UNL     1       0.355  -5.986   5.458  0.00  0.00    +0.005 A 
ATOM     22  C   UNL     1       0.036  -4.665   5.212  0.00  0.00    -0.029 A 
ATOM     23  C   UNL     1      -1.407  -4.246   5.095  0.00  0.00    +0.045 C 
ATOM     24  C   UNL     1       4.129  -5.858   5.557  0.00  0.00    +0.044 C 
ENDBRANCH   3  17
BRANCH   7  25
ATOM     25  C   UNL     1      -0.197   2.239   5.523  0.00  0.00    -0.001 A 
ATOM     26  C   UNL     1       0.280   2.460   4.212  0.00  0.00    +0.042 A 
ATOM     27  C   UNL     1       0.124   3.679   3.631  0.00  0.00    +0.127 A 
ATOM     28  C   UNL     1      -0.500   4.727   4.304  0.00  0.00    +0.034 A 
ATOM     29  C   UNL     1      -0.985   4.569   5.583  0.00  0.00    +0.026 A 
ATOM     30  C   UNL     1      -0.860   3.342   6.228  0.00  0.00    +0.037 A 
BRANCH  30  31
ATOM     31  N   UNL     1      -1.345   3.168   7.505  0.00  0.00    -0.329 N 
ATOM     32  C   UNL     1      -0.597   3.413   8.746  0.00  0.00    +0.105 C 
ATOM     33  C   UNL     1      -1.531   3.059   9.922  0.00  0.00    +0.020 C 
ATOM     34  C   UNL     1      -2.560   2.097   9.271  0.00  0.00    +0.020 C 
ATOM     35  C   UNL     1      -2.703   2.711   7.853  0.00  0.00    +0.105 C 
ENDBRANCH  30  31
BRANCH  27  36
ATOM     36  N   UNL     1       0.629   3.898   2.257  0.00  0.00    +0.056 N 
ATOM     37  O   UNL     1       1.126   2.890   1.570  0.00  0.00    -0.126 OA
ATOM     38  O   UNL     1       0.581   5.100   1.721  0.00  0.00    -0.126 OA
ENDBRANCH  27  36
ENDBRANCH   7  25
TORSDOF 5
