REMARK  Name = ZINC08440304
REMARK  6 active torsions:
REMARK  status: ('A' for Active; 'I' for Inactive)
REMARK    1  A    between atoms: C_1  and  C_2
REMARK    2  A    between atoms: C_5  and  C_8
REMARK    3  A    between atoms: C_11  and  C_14
REMARK    4  A    between atoms: C_21  and  S_23
REMARK    5  A    between atoms: S_23  and  C_24
REMARK    6  A    between atoms: N_29  and  C_32
REMARK                            x       y       z     vdW  Elec       q    Type
REMARK                         _______ _______ _______ _____ _____    ______ ____
ROOT
ATOM      1  C   UNL     1       0.522  -5.266   0.662  0.00  0.00    +0.069 C 
ATOM      2  N   UNL     1       0.434  -5.794  -0.510  0.00  0.00    -0.182 NA
ATOM      3  N   UNL     1       0.494  -7.186  -0.513  0.00  0.00    -0.195 N 
ATOM      4  C   UNL     1       0.646  -7.659   0.872  0.00  0.00    +0.136 C 
ATOM      5  C   UNL     1       0.674  -6.357   1.697  0.00  0.00    +0.087 C 
ATOM      6  C   UNL     1       0.423  -7.988  -1.631  0.00  0.00    +0.149 C 
ATOM      7  N   UNL     1       0.490  -9.285  -1.508  0.00  0.00    -0.380 N 
ATOM      8  H   UNL     1       0.440  -9.850  -2.294  0.00  0.00    +0.158 HD
ATOM      9  H   UNL     1       0.591  -9.684  -0.629  0.00  0.00    +0.158 HD
ENDROOT
BRANCH   1  14
ATOM     10  C   UNL     1       0.383   0.374   1.780  0.00  0.00    +0.044 C 
ATOM     11  C   UNL     1       0.420  -1.104   1.487  0.00  0.00    -0.050 A 
ATOM     12  C   UNL     1       0.310  -1.550   0.182  0.00  0.00    +0.004 A 
ATOM     13  C   UNL     1       0.343  -2.901  -0.094  0.00  0.00    +0.010 A 
ATOM     14  C   UNL     1       0.487  -3.820   0.948  0.00  0.00    -0.002 A 
ATOM     15  C   UNL     1       0.598  -3.362   2.264  0.00  0.00    +0.010 A 
ATOM     16  C   UNL     1       0.569  -2.008   2.524  0.00  0.00    +0.004 A 
ENDBRANCH   1  14
BRANCH   4  17
ATOM     17  C   UNL     1      -0.523  -8.523   1.268  0.00  0.00    -0.025 A 
ATOM     18  C   UNL     1      -1.798  -8.199   0.842  0.00  0.00    +0.007 A 
ATOM     19  C   UNL     1      -2.870  -8.991   1.206  0.00  0.00    +0.020 A 
ATOM     20  C   UNL     1      -2.668 -10.109   1.996  0.00  0.00    +0.041 A 
ATOM     21  C   UNL     1      -1.392 -10.432   2.422  0.00  0.00    +0.020 A 
ATOM     22  C   UNL     1      -0.320  -9.643   2.053  0.00  0.00    +0.007 A 
ATOM     23 CL   UNL     1      -4.015 -11.104   2.453  0.00  0.00    -0.084 Cl
ENDBRANCH   4  17
BRANCH   6  24
ATOM     24  S   UNL     1       0.239  -7.262  -3.226  0.00  0.00    -0.078 S 
BRANCH  24  25
ATOM     25  C   UNL     1       0.194  -8.684  -4.352  0.00  0.00    +0.149 C 
ATOM     26  C   UNL     1       0.106  -8.213  -5.817  0.00  0.00    +0.120 C 
ATOM     27  C   UNL     1      -1.209  -8.789  -6.297  0.00  0.00    +0.228 C 
ATOM     28  O   UNL     1      -1.669  -8.655  -7.410  0.00  0.00    -0.275 OA
ATOM     29  N   UNL     1      -1.782  -9.469  -5.297  0.00  0.00    -0.209 N 
ATOM     30  C   UNL     1      -1.079  -9.479  -4.154  0.00  0.00    +0.240 C 
ATOM     31  O   UNL     1      -1.408 -10.033  -3.128  0.00  0.00    -0.274 OA
BRANCH  29  32
ATOM     32  C   UNL     1      -3.016 -10.121  -5.433  0.00  0.00    +0.044 A 
ATOM     33  C   UNL     1      -3.130 -11.227  -6.265  0.00  0.00    +0.024 A 
ATOM     34  C   UNL     1      -4.347 -11.867  -6.397  0.00  0.00    +0.002 A 
ATOM     35  C   UNL     1      -5.450 -11.408  -5.701  0.00  0.00    +0.000 A 
ATOM     36  C   UNL     1      -5.340 -10.307  -4.872  0.00  0.00    +0.002 A 
ATOM     37  C   UNL     1      -4.124  -9.666  -4.732  0.00  0.00    +0.024 A 
ENDBRANCH  29  32
ENDBRANCH  24  25
ENDBRANCH   6  24
TORSDOF 5
