REMARK  Name = ZINC24945829
REMARK  3 active torsions:
REMARK  status: ('A' for Active; 'I' for Inactive)
REMARK    1  A    between atoms: N_12  and  C_16
REMARK    2  A    between atoms: C_16  and  C_17
REMARK    3  A    between atoms: N_19  and  C_20
REMARK                            x       y       z     vdW  Elec       q    Type
REMARK                         _______ _______ _______ _____ _____    ______ ____
ROOT
ATOM      1  C   UNL     1       1.201  -0.693   0.005  0.00  0.00    +0.000 A 
ATOM      2  C   UNL     1      -0.003  -0.013   0.013  0.00  0.00    +0.000 A 
ATOM      3  C   UNL     1      -0.015   1.367   0.021  0.00  0.00    +0.006 A 
ATOM      4  C   UNL     1       1.174   2.078   0.021  0.00  0.00    -0.012 A 
ATOM      5  C   UNL     1       2.380   1.396   0.018  0.00  0.00    -0.042 A 
ATOM      6  C   UNL     1       2.389   0.012   0.007  0.00  0.00    +0.004 A 
ATOM      7  C   UNL     1       3.527   2.385   0.029  0.00  0.00    +0.038 C 
ATOM      8  C   UNL     1       2.904   3.733  -0.397  0.00  0.00    +0.045 C 
ATOM      9  C   UNL     1       1.438   3.559   0.020  0.00  0.00    +0.138 C 
ATOM     10  C   UNL     1       1.178   4.172   1.371  0.00  0.00    +0.251 C 
ATOM     11  O   UNL     1       1.706   3.885   2.424  0.00  0.00    -0.272 OA
ATOM     12  N   UNL     1       0.229   5.110   1.159  0.00  0.00    -0.215 N 
ATOM     13  C   UNL     1      -0.133   5.162  -0.130  0.00  0.00    +0.310 C 
ATOM     14  O   UNL     1      -0.971   5.926  -0.567  0.00  0.00    -0.252 OA
ATOM     15  N   UNL     1       0.537   4.270  -0.888  0.00  0.00    -0.281 N 
ATOM     16  H   UNL     1       0.522   4.016  -1.958  0.00  0.00    +0.152 HD
ENDROOT
BRANCH  12  17
ATOM     17  C   UNL     1      -0.335   5.963   2.208  0.00  0.00    +0.214 C 
BRANCH  17  18
ATOM     18  C   UNL     1      -1.539   5.288   2.812  0.00  0.00    +0.235 C 
ATOM     19  O   UNL     1      -1.891   4.201   2.406  0.00  0.00    -0.274 OA
ATOM     20  N   UNL     1      -2.224   5.892   3.803  0.00  0.00    -0.283 N 
ATOM     21  H   UNL     1      -1.862   6.843   4.221  0.00  0.00    +0.155 HD
BRANCH  20  22
ATOM     22  C   UNL     1      -3.397   5.309   4.300  0.00  0.00    +0.051 A 
ATOM     23  C   UNL     1      -3.509   3.928   4.374  0.00  0.00    +0.073 A 
ATOM     24  C   UNL     1      -4.669   3.351   4.867  0.00  0.00    +0.164 A 
ATOM     25  C   UNL     1      -5.720   4.158   5.288  0.00  0.00    +0.163 A 
ATOM     26  C   UNL     1      -5.606   5.538   5.211  0.00  0.00    +0.066 A 
ATOM     27  C   UNL     1      -4.447   6.113   4.725  0.00  0.00    +0.043 A 
ATOM     28 BR   UNL     1      -4.293   7.996   4.630  0.00  0.00    -0.048 Br
ATOM     29  O   UNL     1      -6.865   3.610   5.779  0.00  0.00    -0.485 OA
ATOM     30  C   UNL     1      -7.091   2.226   5.492  0.00  0.00    +0.270 C 
ATOM     31  C   UNL     1      -5.791   1.459   5.772  0.00  0.00    +0.270 C 
ATOM     32  O   UNL     1      -4.765   1.994   4.929  0.00  0.00    -0.485 OA
ENDBRANCH  20  22
ENDBRANCH  17  18
ENDBRANCH  12  17
TORSDOF 3
