REMARK  Name = ZINC24147534
REMARK  9 active torsions:
REMARK  status: ('A' for Active; 'I' for Inactive)
REMARK    1  A    between atoms: C_1  and  C_2
REMARK    2  A    between atoms: C_7  and  C_12
REMARK    3  A    between atoms: C_12  and  C_14
REMARK    4  A    between atoms: N_18  and  C_30
REMARK    5  A    between atoms: N_26  and  C_29
REMARK    6  A    between atoms: C_30  and  C_31
REMARK    7  A    between atoms: C_31  and  N_32
REMARK    8  A    between atoms: N_32  and  C_33
REMARK    9  A    between atoms: N_32  and  C_34
REMARK                            x       y       z     vdW  Elec       q    Type
REMARK                         _______ _______ _______ _____ _____    ______ ____
ROOT
ATOM      1  C   UNL     1      -2.971   4.160   1.227  0.00  0.00    +0.089 C 
ATOM      2  C   UNL     1      -3.453   5.261   0.600  0.00  0.00    +0.250 C 
ATOM      3  C   UNL     1      -3.440   5.032  -0.861  0.00  0.00    +0.288 C 
ATOM      4  O   UNL     1      -3.811   5.833  -1.696  0.00  0.00    -0.266 OA
ATOM      5  N   UNL     1      -2.956   3.803  -1.129  0.00  0.00    -0.275 N 
ATOM      6  C   UNL     1      -2.629   3.170   0.146  0.00  0.00    +0.174 C 
ATOM      7  C   UNL     1      -1.178   2.774   0.209  0.00  0.00    +0.011 A 
ATOM      8  C   UNL     1      -0.001   3.481   0.108  0.00  0.00    +0.008 A 
ATOM      9  C   UNL     1       1.212   2.823   0.211  0.00  0.00    +0.000 A 
ATOM     10  C   UNL     1       1.238   1.455   0.415  0.00  0.00    +0.002 A 
ATOM     11  C   UNL     1       0.060   0.743   0.516  0.00  0.00    +0.024 A 
ATOM     12  C   UNL     1      -1.165   1.397   0.407  0.00  0.00    +0.042 A 
ATOM     13  N   UNL     1      -2.470   0.905   0.467  0.00  0.00    -0.272 N 
ATOM     14  C   UNL     1      -3.388   1.878   0.315  0.00  0.00    +0.253 C 
ATOM     15  O   UNL     1      -4.593   1.743   0.322  0.00  0.00    -0.272 OA
ATOM     16  C   UNL     1      -2.803  -0.507   0.671  0.00  0.00    +0.138 C 
ATOM     17  O   UNL     1      -3.877   6.390   1.213  0.00  0.00    -0.282 OA
ENDROOT
BRANCH   1  18
ATOM     18  C   UNL     1      -2.815   3.970   2.672  0.00  0.00    +0.196 C 
ATOM     19  O   UNL     1      -1.709   4.028   3.177  0.00  0.00    -0.287 OA
BRANCH  18  25
ATOM     20  C   UNL     1      -6.843   4.564   7.830  0.00  0.00    +0.052 C 
ATOM     21  C   UNL     1      -6.617   3.129   7.351  0.00  0.00    +0.175 C 
ATOM     22  C   UNL     1      -5.111   2.858   7.124  0.00  0.00    +0.083 C 
ATOM     23  C   UNL     1      -4.953   3.181   5.651  0.00  0.00    -0.002 A 
ATOM     24  C   UNL     1      -3.846   3.415   4.874  0.00  0.00    +0.019 A 
ATOM     25  C   UNL     1      -3.999   3.711   3.515  0.00  0.00    +0.023 A 
ATOM     26  C   UNL     1      -5.282   3.752   2.960  0.00  0.00    +0.015 A 
ATOM     27  C   UNL     1      -6.383   3.507   3.745  0.00  0.00    +0.046 A 
ATOM     28  C   UNL     1      -6.233   3.216   5.103  0.00  0.00    +0.124 A 
ATOM     29  O   UNL     1      -7.176   2.936   6.041  0.00  0.00    -0.488 OA
ENDBRANCH  18  25
ENDBRANCH   1  18
BRANCH   5  30
ATOM     30  C   UNL     1      -2.788   3.210  -2.458  0.00  0.00    +0.091 C 
BRANCH  30  31
ATOM     31  C   UNL     1      -4.065   2.461  -2.847  0.00  0.00    -0.060 C 
BRANCH  31  32
ATOM     32  N   UNL     1      -3.897   1.866  -4.180  0.00  0.00    +0.377 N 
ATOM     33  C   UNL     1      -5.000   0.947  -4.489  0.00  0.00    -0.097 C 
ATOM     34  C   UNL     1      -3.774   2.907  -5.209  0.00  0.00    -0.097 C 
ATOM     35  H   UNL     1      -2.963   1.284  -4.174  0.00  0.00    -0.083 HD
ENDBRANCH  31  32
ENDBRANCH  30  31
ENDBRANCH   5  30
TORSDOF 5
