REMARK  Name = ZINC20029013
REMARK  15 active torsions:
REMARK  status: ('A' for Active; 'I' for Inactive)
REMARK    1  A    between atoms: C_1  and  C_2
REMARK    2  A    between atoms: C_6  and  N_9
REMARK    3  A    between atoms: C_7  and  C_8
REMARK    4  A    between atoms: C_10  and  C_12
REMARK    5  A    between atoms: C_12  and  S_13
REMARK    6  A    between atoms: S_13  and  C_14
REMARK    7  A    between atoms: C_15  and  C_36
REMARK    8  A    between atoms: C_16  and  C_29
REMARK    9  A    between atoms: C_18  and  C_22
REMARK   10  A    between atoms: C_19  and  C_21
REMARK   11  A    between atoms: C_22  and  O_24
REMARK   12  A    between atoms: O_24  and  C_25
REMARK   13  A    between atoms: C_25  and  C_26
REMARK   14  A    between atoms: C_26  and  O_27
REMARK   15  A    between atoms: O_27  and  C_28
REMARK                            x       y       z     vdW  Elec       q    Type
REMARK                         _______ _______ _______ _____ _____    ______ ____
ROOT
ATOM      1  C   UNL     1      -1.451   7.972  -0.397  0.00  0.00    +0.080 C 
ATOM      2  C   UNL     1      -2.510   8.820  -0.499  0.00  0.00    +0.069 C 
ATOM      3  C   UNL     1      -2.312  10.306  -0.601  0.00  0.00    +0.102 C 
ATOM      4  C   UNL     1      -0.917  10.689  -0.198  0.00  0.00    +0.066 C 
ATOM      5  C   UNL     1       0.069   9.780  -0.113  0.00  0.00    +0.016 C 
ATOM      6  N   UNL     1      -0.164   8.460  -0.386  0.00  0.00    -0.312 N 
ATOM      7  C   UNL     1       1.453  10.221   0.288  0.00  0.00    +0.061 C 
ATOM      8  H   UNL     1       0.681   7.788  -0.598  0.00  0.00    +0.152 HD
ENDROOT
BRANCH   3   9
ATOM      9  C   UNL     1      -2.552  10.736  -2.025  0.00  0.00    -0.016 A 
ATOM     10  C   UNL     1      -1.757  10.238  -3.041  0.00  0.00    +0.006 A 
ATOM     11  C   UNL     1      -1.977  10.633  -4.347  0.00  0.00    +0.000 A 
ATOM     12  C   UNL     1      -2.991  11.526  -4.639  0.00  0.00    +0.001 A 
ATOM     13  C   UNL     1      -3.787  12.024  -3.624  0.00  0.00    +0.020 A 
ATOM     14  C   UNL     1      -3.571  11.625  -2.317  0.00  0.00    +0.045 A 
ATOM     15 CL   UNL     1      -4.574  12.245  -1.043  0.00  0.00    -0.083 Cl
ENDBRANCH   3   9
BRANCH   4  16
ATOM     16  C   UNL     1      -0.634  12.041   0.102  0.00  0.00    +0.338 C 
ATOM     17  O   UNL     1       0.491  12.369   0.431  0.00  0.00    -0.245 OA
BRANCH  16  18
ATOM     18  O   UNL     1      -1.611  12.968   0.023  0.00  0.00    -0.459 OA
BRANCH  18  19
ATOM     19  C   UNL     1      -1.254  14.315   0.339  0.00  0.00    +0.260 C 
BRANCH  19  20
ATOM     20  C   UNL     1      -2.483  15.216   0.195  0.00  0.00    +0.200 C 
BRANCH  20  21
ATOM     21  O   UNL     1      -3.462  14.846   1.167  0.00  0.00    -0.380 OA
ATOM     22  C   UNL     1      -4.656  15.630   1.118  0.00  0.00    +0.194 C 
ENDBRANCH  20  21
ENDBRANCH  19  20
ENDBRANCH  18  19
ENDBRANCH  16  18
ENDBRANCH   4  16
BRANCH   2  23
ATOM     23  C   UNL     1      -3.839   8.287  -0.506  0.00  0.00    +0.098 C 
ATOM     24  N   UNL     1      -4.893   7.863  -0.511  0.00  0.00    -0.191 NA
ENDBRANCH   2  23
BRANCH   1  25
ATOM     25  S   UNL     1      -1.729   6.236  -0.285  0.00  0.00    -0.100 S 
BRANCH  25  26
ATOM     26  C   UNL     1      -0.020   5.650  -0.184  0.00  0.00    +0.171 C 
BRANCH  26  28
ATOM     27  N   UNL     1       1.162   3.485   0.009  0.00  0.00    -0.285 N 
ATOM     28  C   UNL     1      -0.009   4.147  -0.078  0.00  0.00    +0.227 C 
ATOM     29  O   UNL     1      -1.055   3.532  -0.072  0.00  0.00    -0.275 OA
ATOM     30  H   UNL     1       2.104   4.045   0.095  0.00  0.00    +0.155 HD
BRANCH  27  36
ATOM     31  C   UNL     1       3.389  -0.737   1.187  0.00  0.00    +0.044 C 
ATOM     32  C   UNL     1       2.245   0.014   0.554  0.00  0.00    -0.046 A 
ATOM     33  C   UNL     1       1.211  -0.680  -0.045  0.00  0.00    +0.004 A 
ATOM     34  C   UNL     1       0.160   0.005  -0.627  0.00  0.00    +0.002 A 
ATOM     35  C   UNL     1       0.141   1.386  -0.611  0.00  0.00    +0.023 A 
ATOM     36  C   UNL     1       1.178   2.086  -0.009  0.00  0.00    +0.037 A 
ATOM     37  C   UNL     1       2.232   1.395   0.574  0.00  0.00    -0.026 A 
ATOM     38  C   UNL     1       3.361   2.151   1.227  0.00  0.00    +0.046 C 
ENDBRANCH  27  36
ENDBRANCH  26  28
ENDBRANCH  25  26
ENDBRANCH   1  25
TORSDOF 11
