REMARK  Name = ZINC16161488
REMARK  8 active torsions:
REMARK  status: ('A' for Active; 'I' for Inactive)
REMARK    1  A    between atoms: C_1  and  C_2
REMARK    2  A    between atoms: C_2  and  C_3
REMARK    3  A    between atoms: C_6  and  C_9
REMARK    4  A    between atoms: C_9  and  C_11
REMARK    5  A    between atoms: C_11  and  C_12
REMARK    6  A    between atoms: C_12  and  O_34
REMARK    7  A    between atoms: N_19  and  C_22
REMARK    8  A    between atoms: C_22  and  C_23
REMARK                            x       y       z     vdW  Elec       q    Type
REMARK                         _______ _______ _______ _____ _____    ______ ____
ROOT
ATOM      1  C   UNL     1       6.163  -0.879  -0.059  0.00  0.00    +0.175 C 
ATOM      2  C   UNL     1       7.471  -0.130   0.056  0.00  0.00    +0.016 A 
ATOM      3  C   UNL     1       8.080   0.816  -0.737  0.00  0.00    +0.024 A 
ATOM      4  C   UNL     1       9.309   1.337  -0.368  0.00  0.00    +0.018 A 
ATOM      5  C   UNL     1       9.920   0.903   0.795  0.00  0.00    +0.017 A 
ATOM      6  C   UNL     1       9.311  -0.045   1.590  0.00  0.00    +0.025 A 
ATOM      7  C   UNL     1       8.073  -0.574   1.226  0.00  0.00    +0.043 A 
ATOM      8  N   UNL     1       7.269  -1.527   1.852  0.00  0.00    -0.264 N 
ATOM      9  C   UNL     1       6.136  -1.764   1.169  0.00  0.00    +0.257 C 
ATOM     10  O   UNL     1       5.257  -2.540   1.480  0.00  0.00    -0.272 OA
ATOM     11 BR   UNL     1      10.150   2.639  -1.452  0.00  0.00    -0.050 Br
ENDROOT
BRANCH   1  12
ATOM     12  O   UNL     1       6.142  -1.670  -1.249  0.00  0.00    -0.374 OA
ATOM     13  H   UNL     1       5.337  -2.194  -1.359  0.00  0.00    +0.211 HD
ENDBRANCH   1  12
BRANCH   1  14
ATOM     14  C   UNL     1       4.984   0.096  -0.043  0.00  0.00    +0.129 C 
BRANCH  14  15
ATOM     15  C   UNL     1       3.691  -0.680  -0.035  0.00  0.00    +0.167 C 
ATOM     16  O   UNL     1       3.712  -1.892  -0.041  0.00  0.00    -0.292 OA
BRANCH  15  20
ATOM     17  C   UNL     1      -0.017   1.380   0.010  0.00  0.00    -0.048 A 
ATOM     18  C   UNL     1       1.168   2.095   0.002  0.00  0.00    +0.004 A 
ATOM     19  C   UNL     1       2.377   1.433  -0.013  0.00  0.00    +0.011 A 
ATOM     20  C   UNL     1       2.405   0.035  -0.020  0.00  0.00    +0.018 A 
ATOM     21  C   UNL     1       1.203  -0.681  -0.013  0.00  0.00    +0.011 A 
ATOM     22  C   UNL     1       0.002  -0.004   0.002  0.00  0.00    +0.004 A 
BRANCH  17  24
ATOM     23  C   UNL     1      -1.773   2.351   1.466  0.00  0.00    +0.009 C 
ATOM     24  C   UNL     1      -1.334   2.111   0.020  0.00  0.00    +0.032 C 
ENDBRANCH  17  24
ENDBRANCH  15  20
ENDBRANCH  14  15
ENDBRANCH   1  14
BRANCH   8  25
ATOM     25  C   UNL     1       7.619  -2.192   3.110  0.00  0.00    +0.149 C 
BRANCH  25  26
ATOM     26  C   UNL     1       7.085  -1.390   4.268  0.00  0.00    -0.029 A 
ATOM     27  C   UNL     1       7.881  -0.401   4.843  0.00  0.00    +0.006 A 
ATOM     28  C   UNL     1       7.427   0.345   5.887  0.00  0.00    +0.009 A 
ATOM     29  C   UNL     1       6.141   0.109   6.403  0.00  0.00    -0.018 A 
ATOM     30  C   UNL     1       5.640   0.855   7.484  0.00  0.00    +0.008 A 
ATOM     31  C   UNL     1       4.390   0.598   7.957  0.00  0.00    +0.001 A 
ATOM     32  C   UNL     1       3.596  -0.394   7.386  0.00  0.00    +0.001 A 
ATOM     33  C   UNL     1       4.048  -1.136   6.338  0.00  0.00    +0.008 A 
ATOM     34  C   UNL     1       5.334  -0.900   5.822  0.00  0.00    -0.018 A 
ATOM     35  C   UNL     1       5.835  -1.646   4.741  0.00  0.00    +0.013 A 
ENDBRANCH  25  26
ENDBRANCH   8  25
TORSDOF 7
