REMARK  Name = ZINC16187096
REMARK  8 active torsions:
REMARK  status: ('A' for Active; 'I' for Inactive)
REMARK    1  A    between atoms: C_1  and  N_2
REMARK    2  A    between atoms: N_2  and  C_3
REMARK    3  A    between atoms: N_2  and  S_18
REMARK    4  A    between atoms: C_3  and  C_4
REMARK    5  A    between atoms: N_6  and  N_7
REMARK    6  A    between atoms: C_8  and  C_9
REMARK    7  A    between atoms: C_13  and  N_15
REMARK    8  A    between atoms: S_18  and  C_21
REMARK                            x       y       z     vdW  Elec       q    Type
REMARK                         _______ _______ _______ _____ _____    ______ ____
ROOT
ATOM      1  C   UNL     1      -3.246   1.275  -1.331  0.00  0.00    +0.248 C 
ATOM      2  O   UNL     1      -3.382   2.166  -0.519  0.00  0.00    -0.273 OA
ATOM      3  N   UNL     1      -4.315   0.556  -1.728  0.00  0.00    -0.206 N 
ATOM      4  H   UNL     1      -4.207  -0.156  -2.377  0.00  0.00    +0.177 HD
ENDROOT
BRANCH   3   5
ATOM      5  N   UNL     1      -5.583   0.838  -1.201  0.00  0.00    -0.188 NA
ATOM      6  C   UNL     1      -6.612   0.145  -1.583  0.00  0.00    +0.138 C 
BRANCH   6   7
ATOM      7  C   UNL     1      -7.946   0.442  -1.029  0.00  0.00    -0.003 A 
ATOM      8  C   UNL     1      -8.106   1.466  -0.093  0.00  0.00    +0.009 A 
ATOM      9  C   UNL     1      -9.357   1.738   0.421  0.00  0.00    +0.003 A 
ATOM     10  C   UNL     1     -10.452   0.997   0.012  0.00  0.00    +0.033 A 
ATOM     11  C   UNL     1     -10.301  -0.019  -0.914  0.00  0.00    +0.127 A 
ATOM     12  C   UNL     1      -9.057  -0.298  -1.441  0.00  0.00    +0.042 A 
BRANCH  11  13
ATOM     13  N   UNL     1     -11.479  -0.805  -1.346  0.00  0.00    +0.056 N 
ATOM     14  O   UNL     1     -12.579  -0.557  -0.885  0.00  0.00    -0.126 OA
ATOM     15  O   UNL     1     -11.348  -1.700  -2.161  0.00  0.00    -0.126 OA
ENDBRANCH  11  13
ENDBRANCH   6   7
ENDBRANCH   3   5
BRANCH   1  16
ATOM     16  C   UNL     1      -1.883   0.973  -1.897  0.00  0.00    +0.206 C 
BRANCH  16  18
ATOM     17  C   UNL     1      -0.691   3.213  -1.897  0.00  0.00    +0.132 C 
ATOM     18  N   UNL     1      -0.897   1.885  -1.312  0.00  0.00    -0.171 NA
BRANCH  18  19
ATOM     19  S   UNL     1      -0.017   1.417   0.010  0.00  0.00    +0.061 S 
ATOM     20  O   UNL     1       0.002  -0.004   0.002  0.00  0.00    -0.153 OA
ATOM     21  O   UNL     1       1.172   2.195   0.003  0.00  0.00    -0.153 OA
BRANCH  19  22
ATOM     22  C   UNL     1      -0.927   1.900   1.439  0.00  0.00    +0.106 A 
ATOM     23  C   UNL     1      -0.717   3.145   2.004  0.00  0.00    +0.029 A 
ATOM     24  C   UNL     1      -1.434   3.526   3.122  0.00  0.00    +0.017 A 
ATOM     25  C   UNL     1      -2.353   2.659   3.683  0.00  0.00    +0.018 A 
ATOM     26  C   UNL     1      -2.559   1.411   3.121  0.00  0.00    +0.017 A 
ATOM     27  C   UNL     1      -1.846   1.033   2.000  0.00  0.00    +0.029 A 
ATOM     28 BR   UNL     1      -3.329   3.177   5.218  0.00  0.00    -0.050 Br
ENDBRANCH  19  22
ENDBRANCH  18  19
ENDBRANCH  16  18
ENDBRANCH   1  16
TORSDOF 7
