REMARK  Name = ZINC67255709
REMARK  5 active torsions:
REMARK  status: ('A' for Active; 'I' for Inactive)
REMARK    1  A    between atoms: C_1  and  C_2
REMARK    2  A    between atoms: C_2  and  C_3
REMARK    3  A    between atoms: C_2  and  C_4
REMARK    4  A    between atoms: C_2  and  N_11
REMARK    5  A    between atoms: N_14  and  C_15
REMARK                            x       y       z     vdW  Elec       q    Type
REMARK                         _______ _______ _______ _____ _____    ______ ____
ROOT
ATOM      1  N   UNL     1       0.552  -0.025  -1.240  0.00  0.00    -0.290 N 
ATOM      2  C   UNL     1       1.847   0.273  -1.465  0.00  0.00    +0.305 C 
ATOM      3  O   UNL     1       2.482   0.890  -0.632  0.00  0.00    -0.252 OA
ATOM      4  N   UNL     1       2.438  -0.114  -2.612  0.00  0.00    -0.269 N 
ATOM      5  H   UNL     1       0.045  -0.518  -1.905  0.00  0.00    +0.151 HD
ATOM      6  H   UNL     1       1.914  -0.540  -3.308  0.00  0.00    +0.156 HD
ENDROOT
BRANCH   4   7
ATOM      7  C   UNL     1       3.811   0.100  -2.800  0.00  0.00    +0.037 A 
ATOM      8  C   UNL     1       4.676   0.030  -1.716  0.00  0.00    +0.024 A 
ATOM      9  C   UNL     1       6.030   0.238  -1.901  0.00  0.00    +0.018 A 
ATOM     10  C   UNL     1       6.520   0.516  -3.166  0.00  0.00    +0.030 A 
ATOM     11  C   UNL     1       5.659   0.592  -4.262  0.00  0.00    +0.049 A 
ATOM     12  C   UNL     1       4.300   0.374  -4.068  0.00  0.00    +0.047 A 
ATOM     13  N   UNL     1       6.130   0.881  -5.540  0.00  0.00    -0.284 N 
ATOM     14  C   UNL     1       7.377   0.719  -5.975  0.00  0.00    +0.227 C 
ATOM     15  O   UNL     1       7.624   1.009  -7.126  0.00  0.00    -0.275 OA
ATOM     16  C   UNL     1       8.496   0.196  -5.117  0.00  0.00    +0.170 C 
ATOM     17  S   UNL     1       8.248   0.778  -3.412  0.00  0.00    -0.114 S 
ATOM     18  H   UNL     1       5.487   1.234  -6.174  0.00  0.00    +0.155 HD
ENDBRANCH   4   7
BRANCH   1  20
ATOM     19  C   UNL     1      -0.012   1.918   0.134  0.00  0.00    +0.036 C 
ATOM     20  C   UNL     1      -0.091   0.395   0.007  0.00  0.00    +0.056 C 
ATOM     21  C   UNL     1       0.625  -0.254   1.194  0.00  0.00    +0.036 C 
BRANCH  20  22
ATOM     22  C   UNL     1      -1.536  -0.033  -0.003  0.00  0.00    -0.025 A 
ATOM     23  C   UNL     1      -2.210  -0.218   1.189  0.00  0.00    +0.007 A 
ATOM     24  C   UNL     1      -3.535  -0.611   1.181  0.00  0.00    +0.020 A 
ATOM     25  C   UNL     1      -4.187  -0.820  -0.022  0.00  0.00    +0.041 A 
ATOM     26  C   UNL     1      -3.511  -0.635  -1.215  0.00  0.00    +0.020 A 
ATOM     27  C   UNL     1      -2.188  -0.236  -1.205  0.00  0.00    +0.007 A 
ATOM     28 CL   UNL     1      -5.851  -1.314  -0.034  0.00  0.00    -0.084 Cl
ENDBRANCH  20  22
ENDBRANCH   1  20
TORSDOF 3
