REMARK  Name = ZINC13092886
REMARK  14 active torsions:
REMARK  status: ('A' for Active; 'I' for Inactive)
REMARK    1  A    between atoms: C_1  and  C_2
REMARK    2  A    between atoms: C_2  and  O_3
REMARK    3  A    between atoms: O_3  and  C_4
REMARK    4  A    between atoms: C_4  and  C_6
REMARK    5  A    between atoms: C_7  and  C_32
REMARK    6  A    between atoms: C_8  and  C_28
REMARK    7  A    between atoms: C_10  and  N_11
REMARK    8  A    between atoms: C_12  and  C_14
REMARK    9  A    between atoms: C_14  and  S_15
REMARK   10  A    between atoms: S_15  and  C_16
REMARK   11  A    between atoms: C_20  and  C_23
REMARK   12  A    between atoms: C_23  and  C_24
REMARK   13  A    between atoms: C_24  and  C_25
REMARK   14  A    between atoms: N_30  and  C_31
REMARK                            x       y       z     vdW  Elec       q    Type
REMARK                         _______ _______ _______ _____ _____    ______ ____
ROOT
ATOM      1  N   UNL     1       3.750  -2.426   1.391  0.00  0.00    -0.279 N 
ATOM      2  C   UNL     1       5.053  -2.736   1.538  0.00  0.00    +0.228 C 
ATOM      3  O   UNL     1       5.453  -3.193   2.588  0.00  0.00    -0.275 OA
ATOM      4  H   UNL     1       3.429  -2.061   0.552  0.00  0.00    +0.155 HD
ENDROOT
BRANCH   1   9
ATOM      5  C   UNL     1       1.498  -2.372   2.469  0.00  0.00    +0.091 A 
ATOM      6  C   UNL     1       0.816  -2.667   3.642  0.00  0.00    -0.015 A 
ATOM      7  C   UNL     1       1.563  -3.183   4.665  0.00  0.00    +0.079 A 
ATOM      8  S   UNL     1       3.200  -3.243   3.964  0.00  0.00    -0.068 S 
ATOM      9  C   UNL     1       2.869  -2.630   2.436  0.00  0.00    +0.087 A 
ATOM     10  C   UNL     1      -0.666  -2.432   3.780  0.00  0.00    +0.046 C 
BRANCH   7  11
ATOM     11  C   UNL     1       1.127  -3.586   6.004  0.00  0.00    +0.251 C 
ATOM     12  O   UNL     1      -0.043  -3.476   6.321  0.00  0.00    -0.270 OA
ATOM     13  N   UNL     1       2.021  -4.078   6.885  0.00  0.00    -0.314 N 
ATOM     14  C   UNL     1       1.584  -4.481   8.224  0.00  0.00    +0.128 C 
ATOM     15  H   UNL     1       2.953  -4.166   6.632  0.00  0.00    +0.149 HD
ENDBRANCH   7  11
BRANCH   5  16
ATOM     16  C   UNL     1       0.801  -1.814   1.304  0.00  0.00    +0.342 C 
ATOM     17  O   UNL     1       0.321  -2.556   0.470  0.00  0.00    -0.245 OA
BRANCH  16  18
ATOM     18  O   UNL     1       0.693  -0.477   1.160  0.00  0.00    -0.461 OA
BRANCH  18  20
ATOM     19  C   UNL     1      -0.019   1.526   0.010  0.00  0.00    +0.048 C 
ATOM     20  C   UNL     1       0.002  -0.004   0.002  0.00  0.00    +0.229 C 
ENDBRANCH  18  20
ENDBRANCH  16  18
ENDBRANCH   5  16
ENDBRANCH   1   9
BRANCH   2  21
ATOM     21  C   UNL     1       6.013  -2.514   0.398  0.00  0.00    +0.173 C 
BRANCH  21  22
ATOM     22  S   UNL     1       7.679  -3.024   0.903  0.00  0.00    -0.075 S 
BRANCH  22  23
ATOM     23  C   UNL     1       8.671  -2.707  -0.518  0.00  0.00    +0.213 A 
ATOM     24  N   UNL     1       9.971  -2.975  -0.485  0.00  0.00    -0.180 NA
ATOM     25  C   UNL     1      10.714  -2.734  -1.559  0.00  0.00    +0.296 A 
ATOM     26  O   UNL     1      12.043  -2.998  -1.554  0.00  0.00    -0.264 OA
ATOM     27  C   UNL     1      10.098  -2.204  -2.694  0.00  0.00    +0.130 A 
ATOM     28  N   UNL     1       8.802  -1.958  -2.668  0.00  0.00    -0.146 NA
ATOM     29  N   UNL     1       8.109  -2.208  -1.613  0.00  0.00    -0.122 NA
BRANCH  27  30
ATOM     30  C   UNL     1      10.905  -1.915  -3.934  0.00  0.00    +0.074 C 
BRANCH  30  31
ATOM     31  C   UNL     1      10.915  -3.152  -4.835  0.00  0.00    +0.131 C 
BRANCH  31  32
ATOM     32  C   UNL     1      11.721  -2.863  -6.075  0.00  0.00    +0.356 C 
ATOM     33  O   UNL     1      12.239  -1.769  -6.224  0.00  0.00    -0.246 OA
ATOM     34  O   UNL     1      11.856  -3.723  -6.929  0.00  0.00    -0.246 OA
ENDBRANCH  31  32
ENDBRANCH  30  31
ENDBRANCH  27  30
ENDBRANCH  22  23
ENDBRANCH  21  22
ENDBRANCH   2  21
TORSDOF 11
