REMARK  Name = ZINC33085746
REMARK  11 active torsions:
REMARK  status: ('A' for Active; 'I' for Inactive)
REMARK    1  A    between atoms: C_1  and  C_2
REMARK    2  A    between atoms: C_2  and  C_3
REMARK    3  A    between atoms: C_3  and  C_4
REMARK    4  A    between atoms: C_4  and  C_5
REMARK    5  A    between atoms: C_5  and  N_6
REMARK    6  A    between atoms: C_7  and  C_9
REMARK    7  A    between atoms: C_11  and  C_26
REMARK    8  A    between atoms: C_15  and  C_19
REMARK    9  A    between atoms: C_29  and  O_32
REMARK   10  A    between atoms: O_32  and  C_33
REMARK   11  A    between atoms: C_33  and  C_34
REMARK                            x       y       z     vdW  Elec       q    Type
REMARK                         _______ _______ _______ _____ _____    ______ ____
ROOT
ATOM      1  C   UNL     1       0.882  -6.318  -4.610  0.00  0.00    +0.051 A 
ATOM      2  C   UNL     1       0.006  -7.112  -3.878  0.00  0.00    +0.042 A 
ATOM      3  C   UNL     1       0.300  -8.468  -3.702  0.00  0.00    +0.074 A 
ATOM      4  N   UNL     1       1.392  -9.010  -4.216  0.00  0.00    -0.228 NA
ATOM      5  C   UNL     1       2.261  -8.300  -4.921  0.00  0.00    +0.158 A 
ATOM      6  C   UNL     1       2.034  -6.928  -5.149  0.00  0.00    +0.058 A 
ATOM      7  C   UNL     1       3.157  -6.449  -5.954  0.00  0.00    +0.102 A 
ATOM      8  N   UNL     1       3.952  -7.470  -6.169  0.00  0.00    -0.171 NA
ATOM      9  H   UNL     1       3.850  -9.492  -5.563  0.00  0.00    +0.191 HD
ATOM     10  N   UNL     1       3.440  -8.613  -5.546  0.00  0.00    -0.260 N 
ENDROOT
BRANCH   7  11
ATOM     11  C   UNL     1       3.359  -5.063  -6.439  0.00  0.00    +0.003 A 
ATOM     12  C   UNL     1       3.908  -4.099  -5.594  0.00  0.00    +0.011 A 
ATOM     13  C   UNL     1       4.095  -2.810  -6.051  0.00  0.00    +0.016 A 
ATOM     14  C   UNL     1       3.737  -2.473  -7.345  0.00  0.00    +0.018 A 
ATOM     15  C   UNL     1       3.191  -3.426  -8.188  0.00  0.00    +0.016 A 
ATOM     16  C   UNL     1       3.007  -4.719  -7.743  0.00  0.00    +0.011 A 
ATOM     17 BR   UNL     1       3.994  -0.705  -7.963  0.00  0.00    -0.050 Br
ENDBRANCH   7  11
BRANCH   3  18
ATOM     18  C   UNL     1      -0.632  -9.317  -2.922  0.00  0.00    +0.001 A 
ATOM     19  C   UNL     1      -1.791  -8.764  -2.378  0.00  0.00    +0.013 A 
ATOM     20  C   UNL     1      -2.656  -9.556  -1.653  0.00  0.00    +0.046 A 
ATOM     21  C   UNL     1      -2.375 -10.903  -1.465  0.00  0.00    +0.121 A 
ATOM     22  C   UNL     1      -1.221 -11.456  -2.006  0.00  0.00    +0.046 A 
ATOM     23  C   UNL     1      -0.355 -10.671  -2.737  0.00  0.00    +0.013 A 
BRANCH  21  24
ATOM     24  O   UNL     1      -3.229 -11.680  -0.751  0.00  0.00    -0.492 OA
BRANCH  24  25
ATOM     25  C   UNL     1      -2.878 -13.057  -0.596  0.00  0.00    +0.225 C 
ATOM     26  C   UNL     1      -3.952 -13.767   0.231  0.00  0.00    +0.048 C 
ENDBRANCH  24  25
ENDBRANCH  21  24
ENDBRANCH   3  18
BRANCH   1  28
ATOM     27  N   UNL     1      -0.433  -4.292  -4.205  0.00  0.00    -0.311 N 
ATOM     28  C   UNL     1       0.611  -4.879  -4.822  0.00  0.00    +0.245 C 
ATOM     29  O   UNL     1       1.331  -4.226  -5.552  0.00  0.00    -0.270 OA
ATOM     30  H   UNL     1      -1.008  -4.813  -3.622  0.00  0.00    +0.149 HD
BRANCH  27  31
ATOM     31  C   UNL     1      -0.702  -2.867  -4.415  0.00  0.00    +0.104 C 
BRANCH  31  32
ATOM     32  C   UNL     1      -1.934  -2.455  -3.606  0.00  0.00    +0.019 C 
BRANCH  32  33
ATOM     33  C   UNL     1      -2.214  -0.967  -3.825  0.00  0.00    +0.001 C 
BRANCH  33  35
ATOM     34  C   UNL     1      -3.726   0.932  -3.236  0.00  0.00    +0.004 C 
ATOM     35  C   UNL     1      -3.446  -0.556  -3.017  0.00  0.00    -0.003 C 
ENDBRANCH  33  35
ENDBRANCH  32  33
ENDBRANCH  31  32
ENDBRANCH  27  31
ENDBRANCH   1  28
TORSDOF 9
