REMARK  Name = ZINC09167988
REMARK  7 active torsions:
REMARK  status: ('A' for Active; 'I' for Inactive)
REMARK    1  A    between atoms: C_3  and  C_32
REMARK    2  A    between atoms: C_5  and  O_7
REMARK    3  A    between atoms: O_7  and  C_8
REMARK    4  A    between atoms: C_8  and  C_9
REMARK    5  A    between atoms: C_9  and  N_10
REMARK    6  A    between atoms: C_14  and  C_15
REMARK    7  A    between atoms: N_21  and  C_24
REMARK                            x       y       z     vdW  Elec       q    Type
REMARK                         _______ _______ _______ _____ _____    ______ ____
ROOT
ATOM      1  N   UNL     1      -1.346  -4.252  -0.060  0.00  0.00    -0.344 N 
ATOM      2  C   UNL     1      -1.775  -4.535   1.188  0.00  0.00    +0.086 A 
ATOM      3  C   UNL     1      -2.578  -5.629   1.145  0.00  0.00    +0.020 A 
ATOM      4  C   UNL     1      -2.659  -6.053  -0.180  0.00  0.00    +0.027 A 
ATOM      5  C   UNL     1      -1.884  -5.176  -0.932  0.00  0.00    +0.043 A 
ENDROOT
BRANCH   5   6
ATOM      6  C   UNL     1      -1.684  -5.224  -2.321  0.00  0.00    +0.044 C 
ATOM      7  C   UNL     1      -0.408  -5.432  -2.833  0.00  0.00    +0.103 C 
ATOM      8  C   UNL     1       0.733  -5.754  -1.954  0.00  0.00    +0.276 C 
ATOM      9  N   UNL     1       1.939  -5.943  -2.516  0.00  0.00    -0.123 NA
ATOM     10  C   UNL     1       2.124  -5.849  -3.808  0.00  0.00    +0.340 C 
ATOM     11  O   UNL     1       3.366  -6.054  -4.290  0.00  0.00    -0.250 OA
ATOM     12  N   UNL     1       1.132  -5.559  -4.692  0.00  0.00    -0.188 N 
ATOM     13  C   UNL     1      -0.135  -5.348  -4.277  0.00  0.00    +0.264 C 
ATOM     14  O   UNL     1      -1.023  -5.093  -5.070  0.00  0.00    -0.269 OA
ATOM     15  O   UNL     1       0.585  -5.845  -0.747  0.00  0.00    -0.268 OA
BRANCH  12  16
ATOM     16  C   UNL     1       1.430  -5.481  -6.060  0.00  0.00    +0.046 A 
ATOM     17  C   UNL     1       1.776  -6.627  -6.763  0.00  0.00    +0.027 A 
ATOM     18  C   UNL     1       2.069  -6.549  -8.110  0.00  0.00    +0.040 A 
ATOM     19  C   UNL     1       2.017  -5.328  -8.761  0.00  0.00    +0.124 A 
ATOM     20  C   UNL     1       1.671  -4.183  -8.062  0.00  0.00    +0.040 A 
ATOM     21  C   UNL     1       1.373  -4.258  -6.716  0.00  0.00    +0.027 A 
ATOM     22  F   UNL     1       2.304  -5.253 -10.079  0.00  0.00    -0.205 F 
ENDBRANCH  12  16
ENDBRANCH   5   6
BRANCH   1  23
ATOM     23  C   UNL     1      -0.461  -3.144  -0.428  0.00  0.00    +0.162 C 
BRANCH  23  24
ATOM     24  C   UNL     1      -1.300  -1.960  -0.911  0.00  0.00    +0.250 C 
BRANCH  24  25
ATOM     25  O   UNL     1      -0.446  -0.842  -1.161  0.00  0.00    -0.490 OA
BRANCH  25  30
ATOM     26  C   UNL     1      -3.010   1.506  -2.233  0.00  0.00    +0.004 A 
ATOM     27  C   UNL     1      -2.241   2.625  -2.494  0.00  0.00    +0.012 A 
ATOM     28  C   UNL     1      -0.872   2.585  -2.309  0.00  0.00    +0.058 A 
ATOM     29  C   UNL     1      -0.268   1.425  -1.863  0.00  0.00    +0.058 A 
ATOM     30  C   UNL     1      -1.037   0.300  -1.600  0.00  0.00    +0.121 A 
ATOM     31  C   UNL     1      -2.412   0.344  -1.786  0.00  0.00    +0.045 A 
BRANCH  28  32
ATOM     32  C   UNL     1      -0.037   3.806  -2.594  0.00  0.00    +0.418 C 
ATOM     33  F   UNL     1      -0.865   4.846  -3.030  0.00  0.00    -0.166 F 
ATOM     34  F   UNL     1       0.629   4.199  -1.428  0.00  0.00    -0.166 F 
ATOM     35  F   UNL     1       0.901   3.508  -3.589  0.00  0.00    -0.166 F 
ENDBRANCH  28  32
ENDBRANCH  25  30
ENDBRANCH  24  25
ENDBRANCH  23  24
ENDBRANCH   1  23
TORSDOF 7
