REMARK  Name = ZINC02941908
REMARK  7 active torsions:
REMARK  status: ('A' for Active; 'I' for Inactive)
REMARK    1  A    between atoms: C_3  and  N_24
REMARK    2  A    between atoms: C_6  and  C_7
REMARK    3  A    between atoms: C_8  and  C_9
REMARK    4  A    between atoms: N_10  and  N_11
REMARK    5  A    between atoms: C_12  and  C_14
REMARK    6  A    between atoms: C_14  and  O_15
REMARK    7  A    between atoms: O_15  and  C_16
REMARK                            x       y       z     vdW  Elec       q    Type
REMARK                         _______ _______ _______ _____ _____    ______ ____
ROOT
ATOM      1  N   UNL     1      -7.236   0.885   0.040  0.00  0.00    -0.204 N 
ATOM      2  C   UNL     1      -8.409   1.549   0.049  0.00  0.00    +0.270 C 
ATOM      3  O   UNL     1      -8.420   2.762   0.056  0.00  0.00    -0.270 OA
ATOM      4  H   UNL     1      -7.227  -0.085   0.034  0.00  0.00    +0.177 HD
ENDROOT
BRANCH   1   6
ATOM      5  C   UNL     1      -4.896   0.956   0.029  0.00  0.00    +0.130 C 
ATOM      6  N   UNL     1      -6.029   1.597   0.038  0.00  0.00    -0.188 NA
BRANCH   5   8
ATOM      7  C   UNL     1      -2.500   1.013   0.019  0.00  0.00    +0.009 C 
ATOM      8  C   UNL     1      -3.674   1.676   0.028  0.00  0.00    +0.022 C 
BRANCH   7  14
ATOM      9  C   UNL     1      -0.013   1.076   0.008  0.00  0.00    +0.010 A 
ATOM     10  C   UNL     1       1.171   1.783   0.001  0.00  0.00    +0.033 A 
ATOM     11  C   UNL     1       1.154   3.167   0.008  0.00  0.00    +0.126 A 
ATOM     12  C   UNL     1      -0.048   3.852   0.023  0.00  0.00    +0.033 A 
ATOM     13  C   UNL     1      -1.240   3.159   0.031  0.00  0.00    +0.010 A 
ATOM     14  C   UNL     1      -1.232   1.760   0.017  0.00  0.00    -0.025 A 
BRANCH  11  15
ATOM     15  N   UNL     1       2.430   3.919  -0.001  0.00  0.00    +0.056 N 
ATOM     16  O   UNL     1       3.490   3.320  -0.014  0.00  0.00    -0.126 OA
ATOM     17  O   UNL     1       2.419   5.137   0.006  0.00  0.00    -0.126 OA
ENDBRANCH  11  15
ENDBRANCH   7  14
ENDBRANCH   5   8
ENDBRANCH   1   6
BRANCH   2  18
ATOM     18  C   UNL     1      -9.708   0.783   0.050  0.00  0.00    +0.326 C 
BRANCH  18  19
ATOM     19  O   UNL     1     -10.802   1.702   0.061  0.00  0.00    -0.482 OA
BRANCH  19  20
ATOM     20  C   UNL     1     -12.053   1.171   0.063  0.00  0.00    +0.135 A 
ATOM     21  C   UNL     1     -12.224  -0.206   0.056  0.00  0.00    +0.048 A 
ATOM     22  C   UNL     1     -13.496  -0.744   0.059  0.00  0.00    +0.023 A 
ATOM     23  C   UNL     1     -14.601   0.090   0.069  0.00  0.00    +0.042 A 
ATOM     24  C   UNL     1     -14.434   1.463   0.076  0.00  0.00    +0.039 A 
ATOM     25  C   UNL     1     -13.162   2.005   0.079  0.00  0.00    +0.061 A 
ATOM     26 BR   UNL     1     -12.934   3.882   0.097  0.00  0.00    -0.046 Br
ATOM     27 CL   UNL     1     -16.199  -0.589   0.072  0.00  0.00    -0.084 Cl
ENDBRANCH  19  20
ENDBRANCH  18  19
ENDBRANCH   2  18
TORSDOF 7
