REMARK  Name = ZINC37317559
REMARK  6 active torsions:
REMARK  status: ('A' for Active; 'I' for Inactive)
REMARK    1  A    between atoms: C_1  and  C_2
REMARK    2  A    between atoms: C_2  and  C_3
REMARK    3  A    between atoms: C_3  and  C_5
REMARK    4  A    between atoms: C_3  and  N_12
REMARK    5  A    between atoms: N_12  and  C_13
REMARK    6  A    between atoms: C_17  and  N_19
REMARK                            x       y       z     vdW  Elec       q    Type
REMARK                         _______ _______ _______ _____ _____    ______ ____
ROOT
ATOM      1  C   UNL     1      -2.851   1.025   1.343  0.00  0.00    +0.029 A 
ATOM      2  C   UNL     1      -2.688   1.969   0.337  0.00  0.00    +0.023 A 
ATOM      3  C   UNL     1      -3.128   3.265   0.526  0.00  0.00    +0.004 A 
ATOM      4  C   UNL     1      -3.731   3.626   1.716  0.00  0.00    +0.023 A 
ATOM      5  C   UNL     1      -3.897   2.687   2.726  0.00  0.00    +0.037 A 
ATOM      6  C   UNL     1      -3.461   1.383   2.537  0.00  0.00    +0.046 A 
ENDROOT
BRANCH   5   7
ATOM      7  N   UNL     1      -4.507   3.054   3.930  0.00  0.00    -0.270 N 
ATOM      8  C   UNL     1      -4.119   2.478   5.085  0.00  0.00    +0.301 C 
ATOM      9  O   UNL     1      -3.175   1.712   5.096  0.00  0.00    -0.253 OA
ATOM     10  N   UNL     1      -4.778   2.751   6.229  0.00  0.00    -0.313 N 
ATOM     11  H   UNL     1      -5.210   3.723   3.934  0.00  0.00    +0.156 HD
ATOM     12  H   UNL     1      -5.531   3.362   6.221  0.00  0.00    +0.146 HD
ATOM     13  H   UNL     1      -4.499   2.337   7.061  0.00  0.00    +0.146 HD
ENDBRANCH   5   7
BRANCH   1  14
ATOM     14  N   UNL     1      -2.406  -0.285   1.152  0.00  0.00    -0.337 N 
ATOM     15  H   UNL     1      -2.523  -0.945   1.853  0.00  0.00    +0.147 HD
BRANCH  14  16
ATOM     16  C   UNL     1      -1.762  -0.663  -0.109  0.00  0.00    +0.100 C 
BRANCH  16  17
ATOM     17  C   UNL     1      -1.929  -2.143  -0.335  0.00  0.00    -0.026 A 
ATOM     18  C   UNL     1      -1.817  -3.022   0.727  0.00  0.00    +0.005 A 
ATOM     19  C   UNL     1      -1.970  -4.380   0.521  0.00  0.00    +0.001 A 
ATOM     20  C   UNL     1      -2.236  -4.860  -0.748  0.00  0.00    +0.015 A 
ATOM     21  C   UNL     1      -2.348  -3.982  -1.810  0.00  0.00    +0.018 A 
ATOM     22  C   UNL     1      -2.200  -2.623  -1.602  0.00  0.00    +0.020 A 
ATOM     23 BR   UNL     1      -2.711  -4.639  -3.546  0.00  0.00    -0.050 Br
ENDBRANCH  16  17
BRANCH  16  25
ATOM     24  C   UNL     1      -0.099   1.194   0.063  0.00  0.00    +0.006 C 
ATOM     25  C   UNL     1      -0.272  -0.322  -0.042  0.00  0.00    +0.023 C 
ENDBRANCH  16  25
ENDBRANCH  14  16
ENDBRANCH   1  14
TORSDOF 5
