REMARK  Name = ZINC08950588
REMARK  11 active torsions:
REMARK  status: ('A' for Active; 'I' for Inactive)
REMARK    1  A    between atoms: C_1  and  C_2
REMARK    2  A    between atoms: C_5  and  C_8
REMARK    3  A    between atoms: N_15  and  C_33
REMARK    4  A    between atoms: C_16  and  S_18
REMARK    5  A    between atoms: S_18  and  C_19
REMARK    6  A    between atoms: C_19  and  C_21
REMARK    7  A    between atoms: C_19  and  C_22
REMARK    8  A    between atoms: N_24  and  C_25
REMARK    9  A    between atoms: C_28  and  C_32
REMARK   10  A    between atoms: C_30  and  C_31
REMARK   11  A    between atoms: C_33  and  C_34
REMARK                            x       y       z     vdW  Elec       q    Type
REMARK                         _______ _______ _______ _____ _____    ______ ____
ROOT
ATOM      1  C   UNL     1      -4.777  -1.164  -2.085  0.00  0.00    +0.004 A 
ATOM      2  C   UNL     1      -5.427  -1.391  -3.250  0.00  0.00    +0.056 A 
ATOM      3  S   UNL     1      -4.764  -0.149  -4.343  0.00  0.00    -0.076 S 
ATOM      4  C   UNL     1      -3.640   0.641  -3.220  0.00  0.00    +0.117 A 
ATOM      5  C   UNL     1      -3.804  -0.078  -2.023  0.00  0.00    +0.080 A 
ATOM      6  C   UNL     1      -3.002   0.353  -0.922  0.00  0.00    +0.264 A 
ATOM      7  O   UNL     1      -3.078  -0.212   0.155  0.00  0.00    -0.267 OA
ATOM      8  N   UNL     1      -2.161   1.391  -1.090  0.00  0.00    -0.283 N 
ATOM      9  C   UNL     1      -2.067   2.038  -2.287  0.00  0.00    +0.174 A 
ATOM     10  N   UNL     1      -2.791   1.658  -3.320  0.00  0.00    -0.216 NA
ENDROOT
BRANCH   1  15
ATOM     11  C   UNL     1      -5.829  -4.424   2.543  0.00  0.00    +0.044 C 
ATOM     12  C   UNL     1      -5.554  -3.571   1.332  0.00  0.00    -0.050 A 
ATOM     13  C   UNL     1      -6.606  -3.009   0.631  0.00  0.00    +0.004 A 
ATOM     14  C   UNL     1      -6.360  -2.227  -0.479  0.00  0.00    +0.009 A 
ATOM     15  C   UNL     1      -5.048  -2.003  -0.893  0.00  0.00    -0.017 A 
ATOM     16  C   UNL     1      -3.992  -2.577  -0.186  0.00  0.00    +0.009 A 
ATOM     17  C   UNL     1      -4.250  -3.352   0.925  0.00  0.00    +0.004 A 
ENDBRANCH   1  15
BRANCH   9  18
ATOM     18  S   UNL     1      -0.957   3.396  -2.457  0.00  0.00    -0.075 S 
BRANCH  18  19
ATOM     19  C   UNL     1      -1.254   3.831  -4.189  0.00  0.00    +0.137 C 
ATOM     20  C   UNL     1      -0.798   2.681  -5.089  0.00  0.00    +0.029 C 
BRANCH  19  21
ATOM     21  C   UNL     1      -0.480   5.077  -4.534  0.00  0.00    +0.230 C 
ATOM     22  O   UNL     1       0.517   5.365  -3.906  0.00  0.00    -0.274 OA
ATOM     23  N   UNL     1      -0.895   5.871  -5.540  0.00  0.00    -0.284 N 
ATOM     24  H   UNL     1      -1.644   5.601  -6.093  0.00  0.00    +0.155 HD
BRANCH  23  25
ATOM     25  C   UNL     1      -0.245   7.086  -5.786  0.00  0.00    +0.036 A 
ATOM     26  C   UNL     1       0.441   7.728  -4.764  0.00  0.00    +0.024 A 
ATOM     27  C   UNL     1       1.081   8.926  -5.010  0.00  0.00    +0.005 A 
ATOM     28  C   UNL     1       1.039   9.488  -6.273  0.00  0.00    -0.050 A 
ATOM     29  C   UNL     1       0.357   8.851  -7.294  0.00  0.00    +0.008 A 
ATOM     30  C   UNL     1      -0.281   7.649  -7.055  0.00  0.00    -0.029 A 
ATOM     31  C   UNL     1      -1.018   6.952  -8.169  0.00  0.00    +0.045 C 
ATOM     32  C   UNL     1       1.739  10.796  -6.539  0.00  0.00    +0.044 C 
ENDBRANCH  23  25
ENDBRANCH  19  21
ENDBRANCH  18  19
ENDBRANCH   9  18
BRANCH   8  33
ATOM     33  C   UNL     1      -1.337   1.837   0.036  0.00  0.00    +0.154 C 
BRANCH  33  34
ATOM     34  C   UNL     1      -0.026   1.093   0.025  0.00  0.00    -0.013 C 
ATOM     35  C   UNL     1       1.103   1.756   0.012  0.00  0.00    +0.005 C 
ENDBRANCH  33  34
ENDBRANCH   8  33
TORSDOF 7
