REMARK  Name = ZINC20059696
REMARK  9 active torsions:
REMARK  status: ('A' for Active; 'I' for Inactive)
REMARK    1  A    between atoms: C_1  and  C_2
REMARK    2  A    between atoms: C_2  and  C_31
REMARK    3  A    between atoms: P_5  and  C_9
REMARK    4  A    between atoms: C_9  and  C_11
REMARK    5  A    between atoms: C_9  and  N_21
REMARK    6  A    between atoms: C_16  and  O_17
REMARK    7  A    between atoms: O_17  and  C_18
REMARK    8  A    between atoms: N_21  and  C_22
REMARK    9  A    between atoms: C_25  and  N_28
REMARK                            x       y       z     vdW  Elec       q    Type
REMARK                         _______ _______ _______ _____ _____    ______ ____
ROOT
ATOM      1  C   UNL     1      -1.771  -0.745  -2.091  0.00  0.00    +0.220 C 
ENDROOT
BRANCH   1   6
ATOM      2  C   UNL     1      -4.059   4.782  -2.213  0.00  0.00    +0.015 C 
ATOM      3  C   UNL     1      -3.514   3.356  -2.100  0.00  0.00    +0.013 C 
ATOM      4  C   UNL     1      -4.045   2.521  -3.266  0.00  0.00    +0.178 C 
ATOM      5  O   UNL     1      -3.597   1.161  -3.110  0.00  0.00    -0.306 OA
ATOM      6  P   UNL     1      -2.013   0.874  -2.893  0.00  0.00    +0.357 P 
ATOM      7  O   UNL     1      -1.304   0.910  -4.192  0.00  0.00    -0.256 OA
ATOM      8  O   UNL     1      -1.475   2.064  -1.927  0.00  0.00    -0.306 OA
ATOM      9  C   UNL     1      -1.986   3.398  -2.114  0.00  0.00    +0.178 C 
ATOM     10  C   UNL     1      -3.989   2.740  -0.782  0.00  0.00    +0.015 C 
ENDBRANCH   1   6
BRANCH   1  11
ATOM     11  C   UNL     1      -0.303  -1.083  -2.073  0.00  0.00    +0.029 A 
ATOM     12  C   UNL     1       0.640  -0.074  -2.134  0.00  0.00    +0.029 A 
ATOM     13  C   UNL     1       1.988  -0.384  -2.123  0.00  0.00    +0.043 A 
ATOM     14  C   UNL     1       2.396  -1.704  -2.047  0.00  0.00    +0.043 A 
ATOM     15  C   UNL     1       1.457  -2.716  -1.982  0.00  0.00    +0.084 A 
ATOM     16  C   UNL     1       0.104  -2.407  -1.992  0.00  0.00    +0.144 A 
ATOM     17 CL   UNL     1       1.969  -4.372  -1.886  0.00  0.00    -0.080 Cl
ATOM     18 CL   UNL     1       3.169   0.885  -2.205  0.00  0.00    -0.083 Cl
BRANCH  16  19
ATOM     19  O   UNL     1      -0.822  -3.400  -1.928  0.00  0.00    -0.493 OA
ATOM     20  C   UNL     1      -1.281  -3.777  -0.628  0.00  0.00    +0.277 C 
ENDBRANCH  16  19
ENDBRANCH   1  11
BRANCH   1  21
ATOM     21  N   UNL     1      -2.500  -1.774  -2.837  0.00  0.00    -0.327 N 
ATOM     22  H   UNL     1      -2.093  -2.159  -3.783  0.00  0.00    +0.147 HD
BRANCH  21  23
ATOM     23  C   UNL     1      -3.712  -2.265  -2.347  0.00  0.00    +0.028 A 
ATOM     24  C   UNL     1      -4.324  -3.350  -2.962  0.00  0.00    +0.025 A 
ATOM     25  C   UNL     1      -5.519  -3.836  -2.472  0.00  0.00    +0.034 A 
ATOM     26  C   UNL     1      -6.114  -3.238  -1.376  0.00  0.00    +0.126 A 
ATOM     27  C   UNL     1      -5.511  -2.154  -0.765  0.00  0.00    +0.034 A 
ATOM     28  C   UNL     1      -4.312  -1.666  -1.247  0.00  0.00    +0.025 A 
BRANCH  26  29
ATOM     29  N   UNL     1      -7.399  -3.758  -0.857  0.00  0.00    +0.056 N 
ATOM     30  O   UNL     1      -7.924  -3.231   0.107  0.00  0.00    -0.126 OA
ATOM     31  O   UNL     1      -7.931  -4.712  -1.395  0.00  0.00    -0.126 OA
ENDBRANCH  26  29
ENDBRANCH  21  23
ENDBRANCH   1  21
TORSDOF 6
