REMARK  Name = ZINC00495624
REMARK  5 active torsions:
REMARK  status: ('A' for Active; 'I' for Inactive)
REMARK    1  A    between atoms: C_6  and  N_7
REMARK    2  A    between atoms: N_7  and  C_8
REMARK    3  A    between atoms: C_9  and  C_16
REMARK    4  A    between atoms: C_10  and  N_15
REMARK    5  A    between atoms: C_11  and  C_13
REMARK                            x       y       z     vdW  Elec       q    Type
REMARK                         _______ _______ _______ _____ _____    ______ ____
ROOT
ATOM      1  C   UNL     1       2.384   0.201  -0.000  0.00  0.00    +0.090 A 
ATOM      2  C   UNL     1       1.262  -0.601   0.222  0.00  0.00    +0.102 A 
ATOM      3  C   UNL     1       0.011   0.013   0.209  0.00  0.00    +0.069 A 
ATOM      4  C   UNL     1      -0.018   1.381  -0.025  0.00  0.00    +0.112 A 
ATOM      5  S   UNL     1       1.707   1.780  -0.224  0.00  0.00    -0.060 S 
ENDROOT
BRANCH   3   6
ATOM      6  N   UNL     1      -1.156  -0.713   0.421  0.00  0.00    -0.356 N 
ATOM      7  H   UNL     1      -2.016  -0.264   0.408  0.00  0.00    +0.142 HD
ATOM      8  H   UNL     1      -1.111  -1.668   0.583  0.00  0.00    +0.142 HD
ENDBRANCH   3   6
BRANCH   1   9
ATOM      9  N   UNL     1       3.709  -0.174  -0.034  0.00  0.00    -0.308 N 
ATOM     10  H   UNL     1       3.949  -1.113   0.018  0.00  0.00    +0.153 HD
BRANCH   9  16
ATOM     11  C   UNL     1       5.873   0.522  -0.849  0.00  0.00    +0.026 A 
ATOM     12  C   UNL     1       6.856   1.486  -0.961  0.00  0.00    +0.040 A 
ATOM     13  C   UNL     1       6.686   2.723  -0.362  0.00  0.00    +0.124 A 
ATOM     14  C   UNL     1       5.528   2.998   0.346  0.00  0.00    +0.040 A 
ATOM     15  C   UNL     1       4.540   2.039   0.456  0.00  0.00    +0.026 A 
ATOM     16  C   UNL     1       4.708   0.798  -0.144  0.00  0.00    +0.032 A 
ATOM     17  F   UNL     1       7.651   3.662  -0.469  0.00  0.00    -0.205 F 
ENDBRANCH   9  16
ENDBRANCH   1   9
BRANCH   4  18
ATOM     18  C   UNL     1      -1.153   2.252  -0.097  0.00  0.00    +0.108 C 
ATOM     19  N   UNL     1      -2.052   2.944  -0.154  0.00  0.00    -0.190 NA
ENDBRANCH   4  18
BRANCH   2  20
ATOM     20  C   UNL     1       1.393  -2.008   0.456  0.00  0.00    +0.103 C 
ATOM     21  N   UNL     1       1.497  -3.124   0.641  0.00  0.00    -0.191 NA
ENDBRANCH   2  20
TORSDOF 5
