REMARK  Name = ZINC29227693
REMARK  6 active torsions:
REMARK  status: ('A' for Active; 'I' for Inactive)
REMARK    1  A    between atoms: C_1  and  C_2
REMARK    2  A    between atoms: C_7  and  N_8
REMARK    3  A    between atoms: C_9  and  C_11
REMARK    4  A    between atoms: C_11  and  C_13
REMARK    5  A    between atoms: C_11  and  N_14
REMARK    6  A    between atoms: N_14  and  C_15
REMARK                            x       y       z     vdW  Elec       q    Type
REMARK                         _______ _______ _______ _____ _____    ______ ____
ROOT
ATOM      1  C   UNL     1       3.629  -2.127  -0.067  0.00  0.00    +0.154 C 
ATOM      2  C   UNL     1       3.514  -2.647   1.367  0.00  0.00    +0.038 C 
ENDROOT
BRANCH   1   4
ATOM      3  N   UNL     1       5.157  -3.934  -0.788  0.00  0.00    -0.284 N 
ATOM      4  C   UNL     1       4.920  -2.612  -0.675  0.00  0.00    +0.237 C 
ATOM      5  O   UNL     1       5.745  -1.813  -1.064  0.00  0.00    -0.273 OA
ATOM      6  H   UNL     1       4.452  -4.658  -0.354  0.00  0.00    +0.155 HD
BRANCH   3  13
ATOM      7  C   UNL     1       6.188  -6.497  -0.106  0.00  0.00    +0.046 C 
ATOM      8  C   UNL     1       6.837  -5.630  -1.154  0.00  0.00    -0.028 A 
ATOM      9  C   UNL     1       7.963  -6.075  -1.818  0.00  0.00    +0.025 A 
ATOM     10  C   UNL     1       8.563  -5.277  -2.776  0.00  0.00    +0.041 A 
ATOM     11  C   UNL     1       8.034  -4.034  -3.075  0.00  0.00    +0.022 A 
ATOM     12  C   UNL     1       6.906  -3.586  -2.418  0.00  0.00    +0.025 A 
ATOM     13  C   UNL     1       6.301  -4.385  -1.456  0.00  0.00    +0.036 A 
ATOM     14 CL   UNL     1       9.982  -5.837  -3.605  0.00  0.00    -0.084 Cl
ENDBRANCH   3  13
ENDBRANCH   1   4
BRANCH   1  15
ATOM     15  N   UNL     1       3.612  -0.662  -0.059  0.00  0.00    -0.333 N 
ATOM     16  H   UNL     1       4.559  -0.102  -0.060  0.00  0.00    +0.147 HD
BRANCH  15  17
ATOM     17  C   UNL     1       2.393   0.024  -0.051  0.00  0.00    +0.031 A 
ATOM     18  C   UNL     1       1.198  -0.684  -0.050  0.00  0.00    +0.027 A 
ATOM     19  C   UNL     1      -0.006  -0.006  -0.042  0.00  0.00    +0.051 A 
ATOM     20  C   UNL     1      -0.026   1.380  -0.035  0.00  0.00    +0.162 A 
ATOM     21  C   UNL     1       1.168   2.091  -0.034  0.00  0.00    +0.164 A 
ATOM     22  C   UNL     1       2.377   1.411  -0.043  0.00  0.00    +0.072 A 
ATOM     23  O   UNL     1       1.169   3.452  -0.019  0.00  0.00    -0.485 OA
ATOM     24  C   UNL     1      -0.053   4.101  -0.387  0.00  0.00    +0.270 C 
ATOM     25  C   UNL     1      -1.206   3.409   0.352  0.00  0.00    +0.270 C 
ATOM     26  O   UNL     1      -1.223   2.030  -0.036  0.00  0.00    -0.485 OA
ENDBRANCH  15  17
ENDBRANCH   1  15
TORSDOF 4
