REMARK  Name = ZINC34759432
REMARK  12 active torsions:
REMARK  status: ('A' for Active; 'I' for Inactive)
REMARK    1  A    between atoms: C_1  and  C_2
REMARK    2  A    between atoms: C_2  and  N_3
REMARK    3  A    between atoms: N_3  and  C_4
REMARK    4  A    between atoms: C_4  and  C_5
REMARK    5  A    between atoms: C_6  and  C_8
REMARK    6  A    between atoms: C_8  and  N_9
REMARK    7  A    between atoms: C_17  and  C_34
REMARK    8  A    between atoms: C_18  and  C_33
REMARK    9  A    between atoms: C_22  and  S_24
REMARK   10  A    between atoms: S_24  and  C_25
REMARK   11  A    between atoms: C_25  and  C_26
REMARK   12  A    between atoms: C_26  and  C_27
REMARK                            x       y       z     vdW  Elec       q    Type
REMARK                         _______ _______ _______ _____ _____    ______ ____
ROOT
ATOM      1  N   UNL     1      -2.746  -1.810   4.309  0.00  0.00    +0.387 N 
ATOM      2  C   UNL     1      -3.146  -2.361   5.610  0.00  0.00    -0.059 C 
ATOM      3  C   UNL     1      -4.647  -2.671   5.593  0.00  0.00    +0.088 C 
ATOM      4  N   UNL     1      -5.371  -1.452   5.202  0.00  0.00    -0.318 N 
ATOM      5  C   UNL     1      -4.927  -0.740   3.993  0.00  0.00    +0.088 C 
ATOM      6  C   UNL     1      -3.414  -0.521   4.086  0.00  0.00    -0.059 C 
ATOM      7  C   UNL     1      -6.438  -0.988   5.949  0.00  0.00    +0.134 A 
ATOM      8  C   UNL     1      -7.739  -1.531   5.757  0.00  0.00    +0.051 A 
ATOM      9  C   UNL     1      -8.186  -2.570   4.844  0.00  0.00    -0.028 A 
ATOM     10  C   UNL     1      -9.478  -2.925   4.838  0.00  0.00    -0.008 A 
ATOM     11  S   UNL     1     -10.205  -1.872   6.080  0.00  0.00    -0.073 S 
ATOM     12  C   UNL     1      -8.752  -0.983   6.573  0.00  0.00    +0.115 A 
ATOM     13  N   UNL     1      -8.493  -0.032   7.449  0.00  0.00    -0.215 NA
ATOM     14  C   UNL     1      -7.260   0.436   7.584  0.00  0.00    +0.191 A 
ATOM     15  N   UNL     1      -6.259  -0.039   6.852  0.00  0.00    -0.206 NA
ATOM     16  C   UNL     1     -10.156  -3.966   3.985  0.00  0.00    +0.052 C 
ATOM     17  C   UNL     1      -7.207  -3.240   3.915  0.00  0.00    +0.045 C 
ATOM     18  H   UNL     1      -3.009  -2.454   3.579  0.00  0.00    -0.081 HD
ENDROOT
BRANCH   1  19
ATOM     19  C   UNL     1      -1.290  -1.615   4.289  0.00  0.00    +0.019 C 
BRANCH  19  21
ATOM     20  N   UNL     1       0.743  -3.020   4.396  0.00  0.00    -0.304 N 
ATOM     21  C   UNL     1      -0.603  -2.952   4.395  0.00  0.00    +0.199 C 
ATOM     22  O   UNL     1      -1.262  -3.967   4.480  0.00  0.00    -0.278 OA
BRANCH  20  24
ATOM     23  C   UNL     1       1.648  -4.655   5.974  0.00  0.00    +0.024 C 
ATOM     24  C   UNL     1       1.411  -4.319   4.500  0.00  0.00    +0.104 C 
ENDBRANCH  20  24
BRANCH  20  25
ATOM     25  C   UNL     1       1.538  -1.794   4.294  0.00  0.00    +0.104 C 
ATOM     26  C   UNL     1       1.810  -1.484   2.821  0.00  0.00    +0.024 C 
ENDBRANCH  20  25
ENDBRANCH  19  21
ENDBRANCH   1  19
BRANCH  14  27
ATOM     27  S   UNL     1      -6.941   1.708   8.761  0.00  0.00    -0.086 S 
BRANCH  27  28
ATOM     28  C   UNL     1      -8.562   2.026   9.512  0.00  0.00    +0.082 C 
BRANCH  28  29
ATOM     29  C   UNL     1      -8.427   3.125  10.568  0.00  0.00    +0.046 C 
BRANCH  29  30
ATOM     30  C   UNL     1      -9.774   3.389  11.192  0.00  0.00    -0.047 A 
ATOM     31  C   UNL     1     -10.617   4.336  10.641  0.00  0.00    +0.003 A 
ATOM     32  C   UNL     1     -11.852   4.578  11.213  0.00  0.00    +0.000 A 
ATOM     33  C   UNL     1     -12.243   3.874  12.336  0.00  0.00    +0.000 A 
ATOM     34  C   UNL     1     -11.400   2.927  12.887  0.00  0.00    +0.000 A 
ATOM     35  C   UNL     1     -10.167   2.682  12.312  0.00  0.00    +0.003 A 
ENDBRANCH  29  30
ENDBRANCH  28  29
ENDBRANCH  27  28
ENDBRANCH  14  27
TORSDOF 8
