REMARK  Name = ZINC63180135
REMARK  11 active torsions:
REMARK  status: ('A' for Active; 'I' for Inactive)
REMARK    1  A    between atoms: C_1  and  C_2
REMARK    2  A    between atoms: C_2  and  O_3
REMARK    3  A    between atoms: O_3  and  C_4
REMARK    4  A    between atoms: C_7  and  N_10
REMARK    5  A    between atoms: C_11  and  C_29
REMARK    6  A    between atoms: C_14  and  S_15
REMARK    7  A    between atoms: S_15  and  C_16
REMARK    8  A    between atoms: C_16  and  C_17
REMARK    9  A    between atoms: C_17  and  C_19
REMARK   10  A    between atoms: C_22  and  N_25
REMARK   11  A    between atoms: C_26  and  C_28
REMARK                            x       y       z     vdW  Elec       q    Type
REMARK                         _______ _______ _______ _____ _____    ______ ____
ROOT
ATOM      1  N   UNL     1      -2.405  -5.938   0.205  0.00  0.00    -0.270 N 
ATOM      2  C   UNL     1      -3.150  -6.681  -0.697  0.00  0.00    +0.168 A 
ATOM      3  N   UNL     1      -3.160  -7.930  -0.252  0.00  0.00    -0.128 NA
ATOM      4  N   UNL     1      -2.487  -8.008   0.840  0.00  0.00    -0.122 NA
ATOM      5  C   UNL     1      -1.999  -6.819   1.162  0.00  0.00    +0.197 A 
ENDROOT
BRANCH   2   6
ATOM      6  C   UNL     1      -3.774  -6.203  -1.859  0.00  0.00    +0.025 C 
ATOM      7  C   UNL     1      -4.530  -6.937  -2.773  0.00  0.00    +0.006 A 
ATOM      8  C   UNL     1      -4.895  -8.299  -2.833  0.00  0.00    +0.010 A 
ATOM      9  C   UNL     1      -5.657  -8.747  -3.863  0.00  0.00    +0.001 A 
ATOM     10  C   UNL     1      -6.096  -7.891  -4.875  0.00  0.00    +0.002 A 
ATOM     11  C   UNL     1      -5.783  -6.572  -4.882  0.00  0.00    +0.026 A 
ATOM     12  C   UNL     1      -4.990  -6.030  -3.838  0.00  0.00    +0.043 A 
ATOM     13  N   UNL     1      -4.557  -4.804  -3.618  0.00  0.00    -0.380 N 
ATOM     14  C   UNL     1      -3.772  -4.782  -2.380  0.00  0.00    +0.152 C 
ATOM     15  H   UNL     1      -4.733  -4.037  -4.185  0.00  0.00    +0.160 HD
ENDBRANCH   2   6
BRANCH   1  19
ATOM     16  C   UNL     1      -1.569  -1.856   0.020  0.00  0.00    +0.121 A 
ATOM     17  C   UNL     1      -0.540  -2.781  -0.094  0.00  0.00    +0.047 A 
ATOM     18  C   UNL     1      -0.817  -4.132  -0.033  0.00  0.00    +0.030 A 
ATOM     19  C   UNL     1      -2.124  -4.566   0.143  0.00  0.00    +0.051 A 
ATOM     20  C   UNL     1      -3.153  -3.640   0.258  0.00  0.00    +0.030 A 
ATOM     21  C   UNL     1      -2.874  -2.289   0.201  0.00  0.00    +0.047 A 
BRANCH  16  22
ATOM     22  O   UNL     1      -1.296  -0.526  -0.040  0.00  0.00    -0.492 OA
BRANCH  22  24
ATOM     23  C   UNL     1       0.180   1.374  -0.271  0.00  0.00    +0.048 C 
ATOM     24  C   UNL     1       0.070  -0.151  -0.229  0.00  0.00    +0.225 C 
ENDBRANCH  22  24
ENDBRANCH  16  22
ENDBRANCH   1  19
BRANCH   5  25
ATOM     25  S   UNL     1      -1.009  -6.446   2.571  0.00  0.00    -0.078 S 
BRANCH  25  26
ATOM     26  C   UNL     1      -0.837  -8.039   3.421  0.00  0.00    +0.157 C 
BRANCH  26  27
ATOM     27  C   UNL     1       0.000  -7.858   4.662  0.00  0.00    +0.173 C 
ATOM     28  O   UNL     1       0.437  -6.762   4.944  0.00  0.00    -0.291 OA
BRANCH  27  29
ATOM     29  C   UNL     1       0.286  -9.008   5.528  0.00  0.00    +0.018 A 
ATOM     30  C   UNL     1      -0.213 -10.275   5.201  0.00  0.00    +0.013 A 
ATOM     31  C   UNL     1       0.058 -11.347   6.013  0.00  0.00    +0.024 A 
ATOM     32  C   UNL     1       0.826 -11.176   7.161  0.00  0.00    +0.033 A 
ATOM     33  C   UNL     1       1.324  -9.918   7.490  0.00  0.00    +0.024 A 
ATOM     34  C   UNL     1       1.064  -8.843   6.681  0.00  0.00    +0.013 A 
BRANCH  32  35
ATOM     35  N   UNL     1       1.098 -12.268   7.983  0.00  0.00    -0.286 N 
ATOM     36  C   UNL     1       1.254 -13.494   7.445  0.00  0.00    +0.214 C 
ATOM     37  O   UNL     1       1.254 -13.632   6.240  0.00  0.00    -0.276 OA
ATOM     38  C   UNL     1       1.430 -14.693   8.341  0.00  0.00    +0.109 C 
ATOM     39  H   UNL     1       1.175 -12.145   8.942  0.00  0.00    +0.155 HD
ENDBRANCH  32  35
ENDBRANCH  27  29
ENDBRANCH  26  27
ENDBRANCH  25  26
ENDBRANCH   5  25
TORSDOF 9
