REMARK  Name = ZINC06194736
REMARK  12 active torsions:
REMARK  status: ('A' for Active; 'I' for Inactive)
REMARK    1  A    between atoms: C_1  and  C_2
REMARK    2  A    between atoms: C_2  and  O_3
REMARK    3  A    between atoms: O_3  and  C_4
REMARK    4  A    between atoms: C_4  and  C_6
REMARK    5  A    between atoms: C_11  and  C_13
REMARK    6  A    between atoms: C_11  and  C_29
REMARK    7  A    between atoms: C_11  and  N_71
REMARK    8  A    between atoms: C_17  and  O_27
REMARK    9  A    between atoms: C_18  and  O_25
REMARK   10  A    between atoms: O_25  and  C_26
REMARK   11  A    between atoms: O_27  and  C_28
REMARK   12  A    between atoms: N_33  and  C_34
REMARK                            x       y       z     vdW  Elec       q    Type
REMARK                         _______ _______ _______ _____ _____    ______ ____
ROOT
ATOM      1  C   UNL     1      -4.997   3.819   0.045  0.00  0.00    +0.039 C 
ENDROOT
BRANCH   1   2
ATOM      2  C   UNL     1      -3.659   3.128   0.035  0.00  0.00    +0.011 A 
ATOM      3  C   UNL     1      -2.518   3.863   0.044  0.00  0.00    +0.017 A 
ATOM      4  C   UNL     1      -1.234   3.163   0.029  0.00  0.00    +0.002 A 
ATOM      5  C   UNL     1      -0.025   3.871   0.021  0.00  0.00    +0.059 A 
ATOM      6  C   UNL     1       1.168   3.183   0.007  0.00  0.00    +0.162 A 
ATOM      7  C   UNL     1       1.175   1.784   0.000  0.00  0.00    +0.163 A 
ATOM      8  C   UNL     1      -0.013   1.076   0.008  0.00  0.00    +0.075 A 
ATOM      9  C   UNL     1      -1.225   1.755   0.017  0.00  0.00    +0.053 A 
ATOM     10  N   UNL     1      -2.421   1.066   0.019  0.00  0.00    -0.322 N 
ATOM     11  H   UNL     1      -2.413   0.066   0.014  0.00  0.00    +0.169 HD
ATOM     12  C   UNL     1      -3.595   1.720   0.028  0.00  0.00    +0.251 A 
ATOM     13  O   UNL     1      -4.632   1.078   0.029  0.00  0.00    -0.268 OA
BRANCH   7  14
ATOM     14  O   UNL     1       2.357   1.116  -0.014  0.00  0.00    -0.491 OA
ATOM     15  C   UNL     1       2.296  -0.311  -0.021  0.00  0.00    +0.277 C 
ENDBRANCH   7  14
BRANCH   6  16
ATOM     16  O   UNL     1       2.344   3.866  -0.001  0.00  0.00    -0.491 OA
ATOM     17  C   UNL     1       2.265   5.293   0.006  0.00  0.00    +0.277 C 
ENDBRANCH   6  16
ENDBRANCH   1   2
BRANCH   1  23
ATOM     18  C   UNL     1      -7.277   3.550  -3.562  0.00  0.00    +0.094 C 
ATOM     19  C   UNL     1      -7.978   3.375  -2.212  0.00  0.00    -0.004 C 
ATOM     20  C   UNL     1      -7.117   3.997  -1.111  0.00  0.00    -0.077 C 
ATOM     21  C   UNL     1      -5.090   3.539  -2.358  0.00  0.00    -0.077 C 
ATOM     22  C   UNL     1      -5.891   2.903  -3.496  0.00  0.00    -0.004 C 
ATOM     23  N   UNL     1      -5.806   3.314  -1.084  0.00  0.00    +0.389 N 
ATOM     24  H   UNL     1      -5.958   2.306  -0.960  0.00  0.00    -0.080 HD
BRANCH  18  25
ATOM     25  C   UNL     1      -8.093   2.888  -4.643  0.00  0.00    +0.310 C 
ATOM     26  O   UNL     1      -9.129   2.333  -4.363  0.00  0.00    -0.251 OA
BRANCH  25  27
ATOM     27  O   UNL     1      -7.668   2.915  -5.916  0.00  0.00    -0.465 OA
BRANCH  27  29
ATOM     28  C   UNL     1      -7.862   2.392  -8.286  0.00  0.00    +0.048 C 
ATOM     29  C   UNL     1      -8.504   2.257  -6.904  0.00  0.00    +0.229 C 
ENDBRANCH  27  29
ENDBRANCH  25  27
ENDBRANCH  18  25
ENDBRANCH   1  23
BRANCH   1  30
ATOM     30  C   UNL     1      -5.713   3.509   1.335  0.00  0.00    +0.143 A 
ATOM     31  N   UNL     1      -6.304   2.383   1.651  0.00  0.00    -0.115 NA
ATOM     32  N   UNL     1      -6.796   2.510   2.835  0.00  0.00    -0.023 NA
ATOM     33  N   UNL     1      -6.542   3.692   3.279  0.00  0.00    -0.044 NA
ATOM     34  N   UNL     1      -5.876   4.338   2.382  0.00  0.00    -0.227 N 
BRANCH  34  35
ATOM     35  C   UNL     1      -5.389   5.716   2.486  0.00  0.00    +0.111 C 
ATOM     36  C   UNL     1      -4.466   5.859   3.715  0.00  0.00    +0.027 C 
ATOM     37  C   UNL     1      -4.794   7.268   4.272  0.00  0.00    +0.002 C 
ATOM     38  C   UNL     1      -6.325   7.372   4.063  0.00  0.00    +0.002 C 
ATOM     39  C   UNL     1      -6.570   6.677   2.707  0.00  0.00    +0.027 C 
ENDBRANCH  34  35
ENDBRANCH   1  30
TORSDOF 9
