REMARK  Name = ZINC39252916
REMARK  4 active torsions:
REMARK  status: ('A' for Active; 'I' for Inactive)
REMARK    1  A    between atoms: C_4  and  C_7
REMARK    2  A    between atoms: C_17  and  S_19
REMARK    3  A    between atoms: S_19  and  C_20
REMARK    4  A    between atoms: C_22  and  N_27
REMARK                            x       y       z     vdW  Elec       q    Type
REMARK                         _______ _______ _______ _____ _____    ______ ____
ROOT
ATOM      1  C   UNL     1       3.645  -0.646  -0.041  0.00  0.00    -0.009 C 
ATOM      2  C   UNL     1       4.858   0.040  -0.148  0.00  0.00    +0.003 A 
ATOM      3  C   UNL     1       4.885   1.447  -0.246  0.00  0.00    +0.030 A 
ATOM      4  C   UNL     1       6.080   2.090  -0.348  0.00  0.00    +0.042 A 
ATOM      5  C   UNL     1       7.283   1.385  -0.358  0.00  0.00    +0.022 A 
ATOM      6  C   UNL     1       7.321   0.027  -0.267  0.00  0.00    +0.025 A 
ATOM      7  C   UNL     1       6.123  -0.703  -0.158  0.00  0.00    +0.041 A 
ATOM      8  N   UNL     1       6.163  -2.037  -0.068  0.00  0.00    -0.284 N 
ATOM      9  C   UNL     1       5.087  -2.792   0.036  0.00  0.00    +0.235 C 
ATOM     10  O   UNL     1       5.199  -4.002   0.113  0.00  0.00    -0.274 OA
ATOM     11  C   UNL     1       3.715  -2.157   0.066  0.00  0.00    +0.171 C 
ATOM     12 CL   UNL     1       6.107   3.821  -0.469  0.00  0.00    -0.084 Cl
ATOM     13  H   UNL     1       7.030  -2.472  -0.080  0.00  0.00    +0.155 HD
ENDROOT
BRANCH   1  17
ATOM     14  C   UNL     1      -0.021   1.382  -0.002  0.00  0.00    +0.000 A 
ATOM     15  C   UNL     1       0.779   1.429  -1.132  0.00  0.00    +0.001 A 
ATOM     16  C   UNL     1       1.986   0.766  -1.155  0.00  0.00    +0.008 A 
ATOM     17  C   UNL     1       2.405   0.040  -0.028  0.00  0.00    -0.020 A 
ATOM     18  C   UNL     1       1.586  -0.001   1.113  0.00  0.00    +0.008 A 
ATOM     19  C   UNL     1       0.383   0.669   1.115  0.00  0.00    +0.001 A 
ENDBRANCH   1  17
BRANCH  11  20
ATOM     20  S   UNL     1       2.754  -2.858  -1.303  0.00  0.00    -0.070 S 
BRANCH  20  21
ATOM     21  C   UNL     1       3.637  -2.358  -2.744  0.00  0.00    +0.172 A 
ATOM     22  N   UNL     1       4.787  -1.729  -2.610  0.00  0.00    -0.209 NA
ATOM     23  C   UNL     1       5.487  -1.332  -3.678  0.00  0.00    +0.124 A 
ATOM     24  C   UNL     1       5.000  -1.585  -4.953  0.00  0.00    +0.113 A 
ATOM     25  C   UNL     1       3.779  -2.253  -5.087  0.00  0.00    +0.254 A 
ATOM     26  O   UNL     1       3.320  -2.493  -6.193  0.00  0.00    -0.268 OA
ATOM     27  N   UNL     1       3.119  -2.634  -3.973  0.00  0.00    -0.302 N 
ATOM     28  H   UNL     1       2.273  -3.102  -4.048  0.00  0.00    +0.171 HD
BRANCH  23  29
ATOM     29  N   UNL     1       6.689  -0.674  -3.514  0.00  0.00    -0.343 N 
ATOM     30  H   UNL     1       7.027  -0.498  -2.622  0.00  0.00    +0.144 HD
ATOM     31  H   UNL     1       7.196  -0.388  -4.290  0.00  0.00    +0.144 HD
ENDBRANCH  23  29
ENDBRANCH  20  21
ENDBRANCH  11  20
TORSDOF 4
