REMARK  Name = ZINC02103110
REMARK  12 active torsions:
REMARK  status: ('A' for Active; 'I' for Inactive)
REMARK    1  A    between atoms: C_1  and  C_2
REMARK    2  A    between atoms: C_3  and  C_33
REMARK    3  A    between atoms: C_9  and  C_32
REMARK    4  A    between atoms: C_10  and  C_16
REMARK    5  A    between atoms: C_16  and  C_17
REMARK    6  A    between atoms: C_17  and  C_18
REMARK    7  A    between atoms: N_20  and  CA_21
REMARK    8  A    between atoms: CA_21  and  C_23
REMARK    9  A    between atoms: CA_21  and  C_30
REMARK   10  A    between atoms: C_23  and  C_24
REMARK   11  A    between atoms: C_24  and  C_25
REMARK   12  A    between atoms: C_25  and  N_26
REMARK                            x       y       z     vdW  Elec       q    Type
REMARK                         _______ _______ _______ _____ _____    ______ ____
ROOT
ATOM      1  C   UNL     1      -1.415   0.243   2.946  0.00  0.00    +0.100 C 
ENDROOT
BRANCH   1   2
ATOM      2  C   UNL     1      -1.411   0.967   4.268  0.00  0.00    +0.214 C 
ATOM      3  O   UNL     1      -0.359   1.272   4.790  0.00  0.00    -0.276 OA
ATOM      4  N   UNL     1      -2.576   1.275   4.871  0.00  0.00    -0.302 N 
ATOM      5  H   UNL     1      -3.417   1.031   4.453  0.00  0.00    +0.150 HD
BRANCH   4   6
ATOM      6  CA  UNL     1      -2.573   1.979   6.155  0.00  0.00    +0.186 C 
BRANCH   6   7
ATOM      7  C   UNL     1      -2.425   0.980   7.275  0.00  0.00    +0.376 C 
ATOM      8  O   UNL     1      -2.332  -0.198   7.024  0.00  0.00    -0.244 OA
ATOM      9  OXT UNL     1      -2.397   1.400   8.549  0.00  0.00    -0.244 OA
ENDBRANCH   6   7
BRANCH   6  10
ATOM     10  C   UNL     1      -3.889   2.741   6.323  0.00  0.00    +0.035 C 
BRANCH  10  11
ATOM     11  C   UNL     1      -3.981   3.839   5.261  0.00  0.00    +0.021 C 
BRANCH  11  12
ATOM     12  C   UNL     1      -5.296   4.601   5.428  0.00  0.00    +0.106 C 
BRANCH  12  13
ATOM     13  N   UNL     1      -5.385   5.652   4.412  0.00  0.00    -0.300 N 
ATOM     14  C   UNL     1      -6.465   6.457   4.366  0.00  0.00    +0.297 C 
ATOM     15  O   UNL     1      -7.367   6.310   5.168  0.00  0.00    -0.253 OA
ATOM     16  N   UNL     1      -6.546   7.423   3.430  0.00  0.00    -0.313 N 
ATOM     17  H   UNL     1      -4.666   5.769   3.771  0.00  0.00    +0.150 HD
ATOM     18  H   UNL     1      -5.827   7.540   2.790  0.00  0.00    +0.146 HD
ATOM     19  H   UNL     1      -7.324   8.002   3.397  0.00  0.00    +0.146 HD
ENDBRANCH  12  13
ENDBRANCH  11  12
ENDBRANCH  10  11
ENDBRANCH   6  10
ENDBRANCH   4   6
ENDBRANCH   1   2
BRANCH   1  20
ATOM     20  C   UNL     1       0.026   0.017   2.485  0.00  0.00    +0.052 C 
BRANCH  20  30
ATOM     21  C   UNL     1      -0.091   0.922  -5.676  0.00  0.00    +0.048 C 
ATOM     22  C   UNL     1      -0.064  -0.465  -5.087  0.00  0.00    -0.002 A 
ATOM     23  C   UNL     1      -0.058  -1.623  -5.758  0.00  0.00    +0.106 A 
ATOM     24  O   UNL     1      -0.032  -2.659  -4.900  0.00  0.00    -0.460 OA
ATOM     25  C   UNL     1      -0.020  -2.227  -3.622  0.00  0.00    +0.139 A 
ATOM     26  C   UNL     1      -0.039  -0.818  -3.660  0.00  0.00    +0.024 A 
ATOM     27  C   UNL     1      -0.032  -0.081  -2.484  0.00  0.00    +0.023 A 
ATOM     28  C   UNL     1      -0.006  -0.750  -1.260  0.00  0.00    +0.022 A 
ATOM     29  C   UNL     1       0.002  -0.004   0.002  0.00  0.00    -0.030 A 
ATOM     30  C   UNL     1       0.023  -0.707   1.163  0.00  0.00    +0.041 A 
ATOM     31  C   UNL     1       0.041  -2.118   1.129  0.00  0.00    +0.341 A 
ATOM     32  O   UNL     1       0.059  -2.736   2.178  0.00  0.00    -0.245 OA
ATOM     33  O   UNL     1       0.039  -2.796  -0.029  0.00  0.00    -0.422 OA
ATOM     34  C   UNL     1       0.019  -2.160  -1.222  0.00  0.00    +0.143 A 
ATOM     35  C   UNL     1       0.017  -2.884  -2.401  0.00  0.00    +0.093 A 
ATOM     36  C   UNL     1      -0.018   1.503   0.010  0.00  0.00    +0.045 C 
ATOM     37  C   UNL     1      -0.077  -1.749  -7.259  0.00  0.00    +0.086 C 
ENDBRANCH  20  30
ENDBRANCH   1  20
TORSDOF 9
