REMARK  Name = ZINC01431223
REMARK  8 active torsions:
REMARK  status: ('A' for Active; 'I' for Inactive)
REMARK    1  A    between atoms: C_1  and  C_2
REMARK    2  A    between atoms: C_3  and  C_30
REMARK    3  A    between atoms: C_4  and  C_23
REMARK    4  A    between atoms: C_10  and  C_15
REMARK    5  A    between atoms: C_20  and  O_21
REMARK    6  A    between atoms: O_21  and  C_22
REMARK    7  A    between atoms: C_30  and  O_32
REMARK    8  A    between atoms: O_32  and  C_33
REMARK                            x       y       z     vdW  Elec       q    Type
REMARK                         _______ _______ _______ _____ _____    ______ ____
ROOT
ATOM      1  C   UNL     1      -0.228   9.994  -3.719  0.00  0.00    +0.061 C 
ATOM      2  C   UNL     1      -0.617   9.371  -2.403  0.00  0.00    +0.016 C 
ATOM      3  C   UNL     1      -0.640  10.123  -1.289  0.00  0.00    +0.065 C 
ATOM      4  C   UNL     1      -1.029   9.538   0.037  0.00  0.00    +0.092 C 
ATOM      5  C   UNL     1      -0.943   8.033   0.010  0.00  0.00    +0.024 C 
ATOM      6  C   UNL     1      -0.913   7.365  -1.162  0.00  0.00    +0.016 C 
ATOM      7  N   UNL     1      -0.943   8.044  -2.350  0.00  0.00    -0.321 N 
ATOM      8  C   UNL     1      -0.844   5.858  -1.196  0.00  0.00    +0.060 C 
ATOM      9  C   UNL     1      -0.082   5.350   0.030  0.00  0.00    +0.035 C 
ATOM     10  C   UNL     1      -0.800   5.847   1.289  0.00  0.00    +0.088 C 
ATOM     11  C   UNL     1      -0.897   7.348   1.237  0.00  0.00    +0.162 C 
ATOM     12  O   UNL     1      -0.937   7.979   2.275  0.00  0.00    -0.292 OA
ATOM     13  H   UNL     1      -1.233   7.513  -3.268  0.00  0.00    +0.152 HD
ENDROOT
BRANCH   4  14
ATOM     14  C   UNL     1      -2.442   9.947   0.363  0.00  0.00    -0.034 A 
ATOM     15  C   UNL     1      -3.481   9.568  -0.467  0.00  0.00    +0.004 A 
ATOM     16  C   UNL     1      -4.778   9.938  -0.166  0.00  0.00    +0.002 A 
ATOM     17  C   UNL     1      -5.037  10.697   0.960  0.00  0.00    +0.020 A 
ATOM     18  C   UNL     1      -3.998  11.081   1.788  0.00  0.00    +0.041 A 
ATOM     19  C   UNL     1      -2.700  10.706   1.489  0.00  0.00    +0.024 A 
ATOM     20 CL   UNL     1      -4.322  12.035   3.202  0.00  0.00    -0.084 Cl
ENDBRANCH   4  14
BRANCH   9  21
ATOM     21  C   UNL     1      -0.057   3.844   0.022  0.00  0.00    -0.002 A 
ATOM     22  C   UNL     1      -1.242   3.132   0.030  0.00  0.00    +0.007 A 
ATOM     23  C   UNL     1      -1.220   1.750   0.017  0.00  0.00    +0.001 A 
ATOM     24  C   UNL     1      -0.013   1.076   0.008  0.00  0.00    +0.004 A 
ATOM     25  C   UNL     1       1.174   1.782   0.000  0.00  0.00    +0.046 A 
ATOM     26  C   UNL     1       1.155   3.169   0.008  0.00  0.00    +0.124 A 
BRANCH  26  27
ATOM     27  O   UNL     1       2.321   3.867   0.001  0.00  0.00    -0.495 OA
ATOM     28  C   UNL     1       3.531   3.107  -0.014  0.00  0.00    +0.277 C 
ENDBRANCH  26  27
ENDBRANCH   9  21
BRANCH   3  29
ATOM     29  C   UNL     1      -0.290  11.491  -1.368  0.00  0.00    +0.338 C 
ATOM     30  O   UNL     1       0.027  11.977  -2.438  0.00  0.00    -0.245 OA
BRANCH  29  31
ATOM     31  O   UNL     1      -0.309  12.258  -0.258  0.00  0.00    -0.458 OA
BRANCH  31  32
ATOM     32  C   UNL     1       0.055  13.631  -0.411  0.00  0.00    +0.177 C 
ATOM     33  C   UNL     1       1.563  13.811  -0.141  0.00  0.00    +0.044 C 
ATOM     34  C   UNL     1       1.658  15.174   0.589  0.00  0.00    +0.004 C 
ATOM     35  C   UNL     1       0.401  15.165   1.495  0.00  0.00    +0.004 C 
ATOM     36  C   UNL     1      -0.684  14.492   0.629  0.00  0.00    +0.044 C 
ENDBRANCH  31  32
ENDBRANCH  29  31
ENDBRANCH   3  29
TORSDOF 6
