REMARK  Name = ZINC35798332
REMARK  11 active torsions:
REMARK  status: ('A' for Active; 'I' for Inactive)
REMARK    1  A    between atoms: C_1  and  C_2
REMARK    2  A    between atoms: C_4  and  C_34
REMARK    3  A    between atoms: C_5  and  C_33
REMARK    4  A    between atoms: C_6  and  O_8
REMARK    5  A    between atoms: O_8  and  C_9
REMARK    6  A    between atoms: C_9  and  C_10
REMARK    7  A    between atoms: C_10  and  C_12
REMARK    8  A    between atoms: N_18  and  C_23
REMARK    9  A    between atoms: C_23  and  C_24
REMARK   10  A    between atoms: N_26  and  C_27
REMARK   11  A    between atoms: C_27  and  C_28
REMARK                            x       y       z     vdW  Elec       q    Type
REMARK                         _______ _______ _______ _____ _____    ______ ____
ROOT
ATOM      1  C   UNL     1       0.062  -2.380   6.112  0.00  0.00    +0.023 A 
ATOM      2  C   UNL     1       0.038  -0.993   6.307  0.00  0.00    +0.015 A 
ATOM      3  C   UNL     1       0.037  -0.476   7.583  0.00  0.00    +0.048 A 
ATOM      4  C   UNL     1       0.059  -1.327   8.680  0.00  0.00    +0.143 A 
ATOM      5  C   UNL     1       0.082  -2.712   8.493  0.00  0.00    +0.079 A 
ATOM      6  C   UNL     1       0.078  -3.239   7.218  0.00  0.00    +0.038 A 
ATOM      7  N   UNL     1       0.104  -3.554   9.615  0.00  0.00    -0.257 N 
ATOM      8  C   UNL     1      -0.214  -3.041  10.824  0.00  0.00    +0.258 C 
ATOM      9  O   UNL     1      -0.173  -3.743  11.812  0.00  0.00    -0.271 OA
ATOM     10  C   UNL     1      -0.620  -1.594  10.939  0.00  0.00    +0.325 C 
ATOM     11  O   UNL     1       0.056  -0.824   9.942  0.00  0.00    -0.481 OA
ENDROOT
BRANCH   1  12
ATOM     12  C   UNL     1       0.063  -2.932   4.751  0.00  0.00    +0.200 C 
ATOM     13  O   UNL     1       0.078  -4.133   4.584  0.00  0.00    -0.288 OA
BRANCH  12  14
ATOM     14  C   UNL     1       0.045  -2.006   3.562  0.00  0.00    +0.308 C 
BRANCH  14  15
ATOM     15  O   UNL     1       0.050  -2.776   2.358  0.00  0.00    -0.484 OA
BRANCH  15  21
ATOM     16  C   UNL     1      -0.018   1.503   0.010  0.00  0.00    +0.044 C 
ATOM     17  C   UNL     1       0.002  -0.004   0.002  0.00  0.00    -0.047 A 
ATOM     18  C   UNL     1       0.006  -0.688  -1.200  0.00  0.00    +0.007 A 
ATOM     19  C   UNL     1       0.024  -2.071  -1.211  0.00  0.00    -0.044 A 
ATOM     20  C   UNL     1       0.039  -2.772  -0.020  0.00  0.00    -0.006 A 
ATOM     21  C   UNL     1       0.035  -2.088   1.186  0.00  0.00    +0.125 A 
ATOM     22  C   UNL     1       0.023  -0.700   1.195  0.00  0.00    +0.049 A 
ATOM     23  C   UNL     1       0.059  -4.279  -0.033  0.00  0.00    +0.048 C 
ATOM     24  C   UNL     1       0.028  -2.813  -2.522  0.00  0.00    +0.044 C 
ENDBRANCH  15  21
ENDBRANCH  14  15
ENDBRANCH  12  14
ENDBRANCH   1  12
BRANCH   7  25
ATOM     25  C   UNL     1       0.466  -4.966   9.477  0.00  0.00    +0.209 C 
BRANCH  25  26
ATOM     26  C   UNL     1       1.955  -5.122   9.650  0.00  0.00    +0.231 C 
ATOM     27  O   UNL     1       2.646  -4.149   9.866  0.00  0.00    -0.274 OA
ATOM     28  N   UNL     1       2.519  -6.343   9.564  0.00  0.00    -0.307 N 
ATOM     29  H   UNL     1       1.967  -7.122   9.391  0.00  0.00    +0.149 HD
BRANCH  28  30
ATOM     30  C   UNL     1       3.967  -6.495   9.731  0.00  0.00    +0.178 C 
BRANCH  30  31
ATOM     31  C   UNL     1       4.339  -7.949   9.590  0.00  0.00    +0.122 A 
ATOM     32  C   UNL     1       4.678  -8.566   8.444  0.00  0.00    +0.046 A 
ATOM     33  C   UNL     1       4.947  -9.915   8.770  0.00  0.00    +0.041 A 
ATOM     34  C   UNL     1       4.758 -10.041  10.095  0.00  0.00    +0.195 A 
ATOM     35  O   UNL     1       4.395  -8.846  10.588  0.00  0.00    -0.466 OA
ENDBRANCH  30  31
ENDBRANCH  28  30
ENDBRANCH  25  26
ENDBRANCH   7  25
TORSDOF 8
