REMARK  Name = ZINC02793260
REMARK  11 active torsions:
REMARK  status: ('A' for Active; 'I' for Inactive)
REMARK    1  A    between atoms: C_1  and  C_2
REMARK    2  A    between atoms: C_2  and  O_3
REMARK    3  A    between atoms: O_3  and  C_4
REMARK    4  A    between atoms: C_7  and  N_10
REMARK    5  A    between atoms: C_11  and  C_16
REMARK    6  A    between atoms: C_16  and  S_17
REMARK    7  A    between atoms: S_17  and  C_18
REMARK    8  A    between atoms: C_21  and  C_30
REMARK    9  A    between atoms: N_22  and  C_23
REMARK   10  A    between atoms: C_23  and  C_24
REMARK   11  A    between atoms: N_33  and  C_35
REMARK                            x       y       z     vdW  Elec       q    Type
REMARK                         _______ _______ _______ _____ _____    ______ ____
ROOT
ATOM      1  S   UNL     1       1.063  -2.339   3.526  0.00  0.00    -0.078 S 
ENDROOT
BRANCH   1   2
ATOM      2  C   UNL     1       2.047  -1.840   4.901  0.00  0.00    +0.192 A 
ATOM      3  N   UNL     1       3.347  -1.652   4.901  0.00  0.00    -0.122 NA
ATOM      4  N   UNL     1       3.740  -1.291   6.071  0.00  0.00    -0.127 NA
ATOM      5  C   UNL     1       2.715  -1.227   6.888  0.00  0.00    +0.185 A 
ATOM      6  N   UNL     1       1.598  -1.571   6.163  0.00  0.00    -0.298 N 
BRANCH   5   7
ATOM      7  C   UNL     1       2.754  -0.850   8.318  0.00  0.00    +0.130 A 
ATOM      8  C   UNL     1       3.905  -0.499   9.053  0.00  0.00    +0.052 A 
ATOM      9  C   UNL     1       3.519  -0.220  10.317  0.00  0.00    +0.108 A 
ATOM     10  N   UNL     1       2.182  -0.393  10.393  0.00  0.00    -0.274 N 
ATOM     11  N   UNL     1       1.719  -0.788   9.132  0.00  0.00    -0.168 NA
ATOM     12  C   UNL     1       1.358  -0.201  11.589  0.00  0.00    +0.172 C 
ENDBRANCH   5   7
BRANCH   6  13
ATOM     13  C   UNL     1       0.216  -1.638   6.644  0.00  0.00    +0.157 C 
BRANCH  13  14
ATOM     14  C   UNL     1      -0.071  -3.044   7.176  0.00  0.00    +0.138 C 
ATOM     15  C   UNL     1      -1.557  -3.158   7.579  0.00  0.00    +0.035 C 
ATOM     16  C   UNL     1      -1.483  -4.010   8.875  0.00  0.00    +0.031 C 
ATOM     17  C   UNL     1      -0.144  -3.514   9.477  0.00  0.00    +0.160 C 
ATOM     18  O   UNL     1       0.715  -3.291   8.347  0.00  0.00    -0.375 OA
ENDBRANCH  13  14
ENDBRANCH   6  13
ENDBRANCH   1   2
BRANCH   1  19
ATOM     19  C   UNL     1       2.346  -2.483   2.258  0.00  0.00    +0.154 C 
BRANCH  19  21
ATOM     20  N   UNL     1       1.233  -2.085  -0.021  0.00  0.00    -0.273 N 
ATOM     21  C   UNL     1       1.720  -2.912   0.956  0.00  0.00    +0.149 A 
ATOM     22  N   UNL     1       1.540  -4.138   0.552  0.00  0.00    -0.132 NA
ATOM     23  N   UNL     1       0.987  -4.144  -0.608  0.00  0.00    -0.121 NA
ATOM     24  C   UNL     1       0.775  -2.912  -1.010  0.00  0.00    +0.207 A 
ATOM     25  S   UNL     1       0.040  -2.418  -2.533  0.00  0.00    -0.009 SA
BRANCH  20  29
ATOM     26  C   UNL     1       1.175   2.087   0.002  0.00  0.00    +0.121 A 
ATOM     27  C   UNL     1      -0.017   1.377   0.010  0.00  0.00    +0.047 A 
ATOM     28  C   UNL     1       0.002  -0.004   0.002  0.00  0.00    +0.030 A 
ATOM     29  C   UNL     1       1.214  -0.681  -0.013  0.00  0.00    +0.050 A 
ATOM     30  C   UNL     1       2.406   0.029  -0.021  0.00  0.00    +0.030 A 
ATOM     31  C   UNL     1       2.386   1.410  -0.013  0.00  0.00    +0.047 A 
BRANCH  26  32
ATOM     32  O   UNL     1       1.156   3.446   0.009  0.00  0.00    -0.492 OA
BRANCH  32  34
ATOM     33  C   UNL     1       2.199   5.626   0.010  0.00  0.00    +0.048 C 
ATOM     34  C   UNL     1       2.420   4.112   0.001  0.00  0.00    +0.225 C 
ENDBRANCH  32  34
ENDBRANCH  26  32
ENDBRANCH  20  29
ENDBRANCH  19  21
ENDBRANCH   1  19
TORSDOF 9
