REMARK  Name = ZINC02074407
REMARK  16 active torsions:
REMARK  status: ('A' for Active; 'I' for Inactive)
REMARK    1  A    between atoms: C_1  and  C_2
REMARK    2  A    between atoms: C_2  and  C_3
REMARK    3  A    between atoms: C_3  and  C_4
REMARK    4  A    between atoms: C_4  and  O_5
REMARK    5  A    between atoms: O_5  and  C_6
REMARK    6  A    between atoms: C_6  and  C_8
REMARK    7  A    between atoms: C_9  and  C_41
REMARK    8  A    between atoms: C_13  and  C_15
REMARK    9  A    between atoms: C_18  and  C_21
REMARK   10  A    between atoms: C_21  and  O_23
REMARK   11  A    between atoms: O_23  and  C_24
REMARK   12  A    between atoms: C_28  and  C_31
REMARK   13  A    between atoms: C_34  and  O_39
REMARK   14  A    between atoms: C_35  and  O_37
REMARK   15  A    between atoms: O_37  and  C_38
REMARK   16  A    between atoms: O_39  and  C_40
REMARK                            x       y       z     vdW  Elec       q    Type
REMARK                         _______ _______ _______ _____ _____    ______ ____
ROOT
ATOM      1  C   UNL     1      -2.188   5.872   3.751  0.00  0.00    +0.065 C 
ATOM      2  C   UNL     1      -2.189   7.200   3.955  0.00  0.00    +0.016 C 
ATOM      3  N   UNL     1      -2.796   7.731   5.059  0.00  0.00    -0.321 N 
ATOM      4  C   UNL     1      -3.055   6.951   6.155  0.00  0.00    +0.016 C 
ATOM      5  C   UNL     1      -3.092   5.606   6.045  0.00  0.00    +0.024 C 
ATOM      6  C   UNL     1      -2.859   4.936   4.712  0.00  0.00    +0.092 C 
ATOM      7  C   UNL     1      -3.358   4.794   7.162  0.00  0.00    +0.162 C 
ATOM      8  O   UNL     1      -3.366   3.586   7.032  0.00  0.00    -0.292 OA
ATOM      9  C   UNL     1      -3.631   5.394   8.514  0.00  0.00    +0.088 C 
ATOM     10  C   UNL     1      -4.249   6.784   8.326  0.00  0.00    +0.032 C 
ATOM     11  C   UNL     1      -3.293   7.630   7.481  0.00  0.00    +0.059 C 
ATOM     12  C   UNL     1      -1.517   8.111   2.961  0.00  0.00    +0.061 C 
ATOM     13  H   UNL     1      -3.081   8.793   5.073  0.00  0.00    +0.152 HD
ENDROOT
BRANCH   6  14
ATOM     14  C   UNL     1      -4.180   4.497   4.135  0.00  0.00    -0.035 A 
ATOM     15  C   UNL     1      -5.153   5.439   3.848  0.00  0.00    +0.005 A 
ATOM     16  C   UNL     1      -6.362   5.045   3.314  0.00  0.00    +0.015 A 
ATOM     17  C   UNL     1      -6.608   3.692   3.074  0.00  0.00    +0.059 A 
ATOM     18  C   UNL     1      -5.624   2.747   3.370  0.00  0.00    +0.015 A 
ATOM     19  C   UNL     1      -4.417   3.155   3.899  0.00  0.00    +0.005 A 
BRANCH  17  20
ATOM     20  C   UNL     1      -7.904   3.262   2.508  0.00  0.00    +0.339 C 
ATOM     21  O   UNL     1      -8.115   2.084   2.300  0.00  0.00    -0.245 OA
BRANCH  20  22
ATOM     22  O   UNL     1      -8.850   4.177   2.223  0.00  0.00    -0.464 OA
ATOM     23  C   UNL     1     -10.099   3.683   1.669  0.00  0.00    +0.280 C 
ENDBRANCH  20  22
ENDBRANCH  17  20
ENDBRANCH   6  14
BRANCH  10  24
ATOM     24  C   UNL     1      -4.447   7.436   9.671  0.00  0.00    -0.040 A 
ATOM     25  C   UNL     1      -3.359   7.663  10.494  0.00  0.00    +0.008 A 
ATOM     26  C   UNL     1      -3.536   8.261  11.728  0.00  0.00    +0.049 A 
ATOM     27  C   UNL     1      -4.804   8.633  12.142  0.00  0.00    +0.161 A 
ATOM     28  C   UNL     1      -5.899   8.405  11.314  0.00  0.00    +0.162 A 
ATOM     29  C   UNL     1      -5.714   7.810  10.076  0.00  0.00    +0.053 A 
BRANCH  28  30
ATOM     30  O   UNL     1      -7.146   8.769  11.716  0.00  0.00    -0.491 OA
ATOM     31  C   UNL     1      -8.222   8.504  10.814  0.00  0.00    +0.277 C 
ENDBRANCH  28  30
BRANCH  27  32
ATOM     32  O   UNL     1      -4.980   9.221  13.356  0.00  0.00    -0.491 OA
ATOM     33  C   UNL     1      -3.811   9.424  14.153  0.00  0.00    +0.277 C 
ENDBRANCH  27  32
ENDBRANCH  10  24
BRANCH   1  34
ATOM     34  C   UNL     1      -1.546   5.347   2.605  0.00  0.00    +0.338 C 
ATOM     35  O   UNL     1      -1.095   6.099   1.762  0.00  0.00    -0.245 OA
BRANCH  34  36
ATOM     36  O   UNL     1      -1.434   4.011   2.446  0.00  0.00    -0.461 OA
BRANCH  36  37
ATOM     37  C   UNL     1      -0.774   3.551   1.265  0.00  0.00    +0.232 C 
BRANCH  37  38
ATOM     38  C   UNL     1      -0.744   2.022   1.261  0.00  0.00    +0.041 C 
BRANCH  38  40
ATOM     39  C   UNL     1      -0.007  -0.001  -0.007  0.00  0.00    +0.004 C 
ATOM     40  C   UNL     1      -0.037   1.529  -0.003  0.00  0.00    -0.000 C 
ENDBRANCH  38  40
ENDBRANCH  37  38
ENDBRANCH  36  37
ENDBRANCH  34  36
ENDBRANCH   1  34
TORSDOF 11
