REMARK  Name = ZINC09346227
REMARK  3 active torsions:
REMARK  status: ('A' for Active; 'I' for Inactive)
REMARK    1  A    between atoms: C_10  and  N_11
REMARK    2  A    between atoms: C_12  and  C_14
REMARK    3  A    between atoms: C_14  and  N_15
REMARK                            x       y       z     vdW  Elec       q    Type
REMARK                         _______ _______ _______ _____ _____    ______ ____
ROOT
ATOM      1  N   UNL     1      -5.014   2.577  -2.490  0.00  0.00    -0.288 N 
ATOM      2  C   UNL     1      -4.101   3.461  -1.968  0.00  0.00    +0.090 A 
ATOM      3  C   UNL     1      -3.575   3.138  -0.768  0.00  0.00    +0.033 A 
ATOM      4  S   UNL     1      -4.369   1.596  -0.381  0.00  0.00    -0.030 S 
ATOM      5  C   UNL     1      -5.343   1.460  -1.810  0.00  0.00    +0.292 A 
ATOM      6  O   UNL     1      -6.126   0.579  -2.121  0.00  0.00    -0.259 OA
ATOM      7  C   UNL     1      -2.575   3.870   0.053  0.00  0.00    +0.069 C 
ATOM      8  C   UNL     1      -1.240   3.175   0.032  0.00  0.00    +0.003 A 
ATOM      9  C   UNL     1      -1.204   1.791   0.018  0.00  0.00    +0.008 A 
ATOM     10  C   UNL     1       0.006   1.125   0.008  0.00  0.00    +0.001 A 
ATOM     11  C   UNL     1       1.189   1.842   0.002  0.00  0.00    +0.004 A 
ATOM     12  C   UNL     1       1.160   3.221   0.009  0.00  0.00    +0.046 A 
ATOM     13  C   UNL     1      -0.057   3.895   0.023  0.00  0.00    +0.124 A 
ATOM     14  O   UNL     1      -0.048   5.253   0.025  0.00  0.00    -0.491 OA
ATOM     15  C   UNL     1      -1.243   5.931   0.417  0.00  0.00    +0.234 C 
ATOM     16  C   UNL     1      -2.420   5.327  -0.363  0.00  0.00    +0.049 C 
ATOM     17  C   UNL     1      -2.121   5.441  -1.862  0.00  0.00    +0.083 C 
ATOM     18  S   UNL     1      -3.606   4.962  -2.791  0.00  0.00    -0.106 S 
ENDROOT
BRANCH   1  19
ATOM     19  C   UNL     1      -5.633   2.849  -3.789  0.00  0.00    +0.222 C 
BRANCH  19  21
ATOM     20  N   UNL     1      -7.638   4.014  -4.651  0.00  0.00    -0.283 N 
ATOM     21  C   UNL     1      -6.896   3.646  -3.587  0.00  0.00    +0.237 C 
ATOM     22  O   UNL     1      -7.245   3.955  -2.468  0.00  0.00    -0.274 OA
ATOM     23  H   UNL     1      -7.326   3.823  -5.549  0.00  0.00    +0.155 HD
BRANCH  20  33
ATOM     24  C   UNL     1     -12.094   3.995  -7.022  0.00  0.00    +0.001 A 
ATOM     25  C   UNL     1     -10.887   3.331  -7.232  0.00  0.00    +0.001 A 
ATOM     26  C   UNL     1      -9.822   3.537  -6.409  0.00  0.00    +0.010 A 
ATOM     27  C   UNL     1      -9.938   4.430  -5.332  0.00  0.00    +0.003 A 
ATOM     28  C   UNL     1     -11.165   5.106  -5.118  0.00  0.00    -0.016 A 
ATOM     29  C   UNL     1     -12.243   4.868  -5.989  0.00  0.00    +0.008 A 
ATOM     30  C   UNL     1     -11.283   6.001  -4.042  0.00  0.00    +0.008 A 
ATOM     31  C   UNL     1     -10.222   6.213  -3.214  0.00  0.00    +0.002 A 
ATOM     32  C   UNL     1      -9.014   5.550  -3.411  0.00  0.00    +0.024 A 
ATOM     33  C   UNL     1      -8.856   4.669  -4.459  0.00  0.00    +0.041 A 
ENDBRANCH  20  33
ENDBRANCH  19  21
ENDBRANCH   1  19
TORSDOF 3
