REMARK  Name = ZINC39461380
REMARK  10 active torsions:
REMARK  status: ('A' for Active; 'I' for Inactive)
REMARK    1  A    between atoms: C_1  and  O_2
REMARK    2  A    between atoms: O_2  and  C_3
REMARK    3  A    between atoms: C_6  and  N_9
REMARK    4  A    between atoms: C_11  and  C_23
REMARK    5  A    between atoms: C_13  and  C_16
REMARK    6  A    between atoms: C_23  and  N_24
REMARK    7  A    between atoms: N_24  and  C_25
REMARK    8  A    between atoms: C_25  and  C_26
REMARK    9  A    between atoms: C_26  and  S_27
REMARK   10  A    between atoms: S_27  and  C_28
REMARK                            x       y       z     vdW  Elec       q    Type
REMARK                         _______ _______ _______ _____ _____    ______ ____
ROOT
ATOM      1  N   UNL     1      -4.889  -2.581   0.035  0.00  0.00    -0.266 N 
ATOM      2  C   UNL     1      -5.076  -4.040   0.041  0.00  0.00    +0.127 C 
ATOM      3  C   UNL     1      -6.606  -4.259   0.131  0.00  0.00    +0.014 C 
ATOM      4  C   UNL     1      -7.073  -2.885   0.683  0.00  0.00    +0.107 C 
ATOM      5  N   UNL     1      -6.109  -1.955   0.046  0.00  0.00    -0.232 NA
ATOM      6  H   UNL     1      -6.063  -1.081   0.548  0.00  0.00    +0.145 HD
ENDROOT
BRANCH   4   7
ATOM      7  C   UNL     1      -8.485  -2.582   0.251  0.00  0.00    -0.010 A 
ATOM      8  C   UNL     1      -8.714  -1.822  -0.880  0.00  0.00    +0.006 A 
ATOM      9  C   UNL     1     -10.008  -1.544  -1.277  0.00  0.00    +0.000 A 
ATOM     10  C   UNL     1     -11.075  -2.027  -0.542  0.00  0.00    +0.001 A 
ATOM     11  C   UNL     1     -10.848  -2.787   0.589  0.00  0.00    +0.020 A 
ATOM     12  C   UNL     1      -9.552  -3.070   0.984  0.00  0.00    +0.046 A 
ATOM     13 CL   UNL     1      -9.266  -4.031   2.401  0.00  0.00    -0.083 Cl
ENDBRANCH   4   7
BRANCH   1  17
ATOM     14  C   UNL     1      -1.201  -0.638   0.010  0.00  0.00    +0.120 A 
ATOM     15  C   UNL     1      -2.374   0.102   0.020  0.00  0.00    +0.047 A 
ATOM     16  C   UNL     1      -3.597  -0.541   0.028  0.00  0.00    +0.028 A 
ATOM     17  C   UNL     1      -3.651  -1.928   0.027  0.00  0.00    +0.045 A 
ATOM     18  C   UNL     1      -2.476  -2.668   0.017  0.00  0.00    +0.028 A 
ATOM     19  C   UNL     1      -1.254  -2.024   0.003  0.00  0.00    +0.047 A 
BRANCH  14  21
ATOM     20  C   UNL     1      -0.017   1.425   0.010  0.00  0.00    +0.277 C 
ATOM     21  O   UNL     1       0.002  -0.004   0.002  0.00  0.00    -0.495 OA
ENDBRANCH  14  21
ENDBRANCH   1  17
BRANCH   3  22
ATOM     22  C   UNL     1      -7.205  -4.531  -1.250  0.00  0.00    -0.076 C 
BRANCH  22  23
ATOM     23  N   UNL     1      -6.707  -5.818  -1.755  0.00  0.00    +0.380 N 
ATOM     24  H   UNL     1      -5.701  -5.784  -1.826  0.00  0.00    -0.086 HD
ATOM     25  H   UNL     1      -6.976  -6.555  -1.121  0.00  0.00    -0.086 HD
BRANCH  23  26
ATOM     26  C   UNL     1      -7.283  -6.079  -3.081  0.00  0.00    -0.071 C 
BRANCH  26  27
ATOM     27  C   UNL     1      -6.764  -7.419  -3.607  0.00  0.00    +0.057 C 
BRANCH  27  28
ATOM     28  S   UNL     1      -7.475  -7.742  -5.244  0.00  0.00    -0.107 S 
BRANCH  28  29
ATOM     29  C   UNL     1      -6.790  -9.298  -5.707  0.00  0.00    +0.112 A 
ATOM     30  C   UNL     1      -7.016  -9.972  -6.866  0.00  0.00    +0.170 A 
ATOM     31  N   UNL     1      -6.320 -11.109  -6.845  0.00  0.00    -0.137 NA
ATOM     32  N   UNL     1      -5.662 -11.202  -5.742  0.00  0.00    -0.067 NA
ATOM     33  N   UNL     1      -5.926 -10.057  -4.976  0.00  0.00    -0.251 N 
ATOM     34  H   UNL     1      -5.567  -9.849  -4.099  0.00  0.00    +0.191 HD
ENDBRANCH  28  29
ENDBRANCH  27  28
ENDBRANCH  26  27
ENDBRANCH  23  26
ENDBRANCH  22  23
ENDBRANCH   3  22
TORSDOF 9
