REMARK  Name = ZINC25144431
REMARK  6 active torsions:
REMARK  status: ('A' for Active; 'I' for Inactive)
REMARK    1  A    between atoms: C_6  and  C_7
REMARK    2  A    between atoms: C_9  and  C_12
REMARK    3  A    between atoms: C_12  and  C_13
REMARK    4  A    between atoms: C_13  and  C_14
REMARK    5  A    between atoms: N_16  and  C_17
REMARK    6  A    between atoms: C_22  and  C_25
REMARK                            x       y       z     vdW  Elec       q    Type
REMARK                         _______ _______ _______ _____ _____    ______ ____
ROOT
ATOM      1  C   UNL     1      -0.295  -4.245  -2.936  0.00  0.00    +0.105 C 
ENDROOT
BRANCH   1   2
ATOM      2  C   UNL     1      -1.001  -3.759  -1.696  0.00  0.00    +0.214 C 
ATOM      3  O   UNL     1      -1.815  -4.468  -1.144  0.00  0.00    -0.276 OA
ATOM      4  N   UNL     1      -0.727  -2.536  -1.201  0.00  0.00    -0.312 N 
ATOM      5  H   UNL     1       0.012  -1.892  -1.702  0.00  0.00    +0.149 HD
BRANCH   4   6
ATOM      6  C   UNL     1      -1.413  -2.063   0.004  0.00  0.00    +0.073 C 
ATOM      7  C   UNL     1      -0.673  -2.570   1.244  0.00  0.00    +0.022 C 
ATOM      8  C   UNL     1       0.763  -2.041   1.233  0.00  0.00    +0.002 C 
ATOM      9  C   UNL     1       0.742  -0.511   1.242  0.00  0.00    +0.012 C 
ATOM     10  C   UNL     1       0.002  -0.004   0.002  0.00  0.00    +0.095 C 
ATOM     11  C   UNL     1      -1.433  -0.534   0.013  0.00  0.00    +0.034 C 
BRANCH  10  12
ATOM     12  C   UNL     1      -0.019   1.526   0.010  0.00  0.00    +0.393 C 
ATOM     13  F   UNL     1       1.294   2.010   0.001  0.00  0.00    -0.170 F 
ATOM     14  F   UNL     1      -0.695   1.989  -1.123  0.00  0.00    -0.170 F 
ATOM     15  F   UNL     1      -0.673   1.977   1.161  0.00  0.00    -0.170 F 
ENDBRANCH  10  12
ENDBRANCH   4   6
ENDBRANCH   1   2
BRANCH   1  16
ATOM     16  C   UNL     1      -0.785  -5.652  -3.283  0.00  0.00    +0.108 C 
BRANCH  16  19
ATOM     17  C   UNL     1       1.291  -7.021  -5.878  0.00  0.00    +0.202 A 
ATOM     18  N   UNL     1       1.051  -6.798  -4.567  0.00  0.00    -0.191 NA
ATOM     19  C   UNL     1      -0.080  -6.138  -4.523  0.00  0.00    +0.228 A 
ATOM     20  O   UNL     1      -0.488  -5.973  -5.785  0.00  0.00    -0.338 OA
ATOM     21  N   UNL     1       0.305  -6.482  -6.548  0.00  0.00    -0.056 NA
BRANCH  17  27
ATOM     22  C   UNL     1       3.439  -8.258  -5.611  0.00  0.00    +0.013 A 
ATOM     23  C   UNL     1       4.519  -8.930  -6.148  0.00  0.00    +0.021 A 
ATOM     24  C   UNL     1       4.632  -9.077  -7.520  0.00  0.00    +0.041 A 
ATOM     25  C   UNL     1       3.662  -8.557  -8.360  0.00  0.00    +0.021 A 
ATOM     26  C   UNL     1       2.576  -7.889  -7.832  0.00  0.00    +0.013 A 
ATOM     27  C   UNL     1       2.457  -7.739  -6.451  0.00  0.00    +0.023 A 
ATOM     28 CL   UNL     1       5.996  -9.916  -8.190  0.00  0.00    -0.084 Cl
ENDBRANCH  17  27
ENDBRANCH  16  19
ENDBRANCH   1  16
TORSDOF 6
