REMARK  Name = ZINC39330511
REMARK  6 active torsions:
REMARK  status: ('A' for Active; 'I' for Inactive)
REMARK    1  A    between atoms: C_1  and  N_2
REMARK    2  A    between atoms: C_4  and  C_12
REMARK    3  A    between atoms: N_16  and  C_26
REMARK    4  A    between atoms: C_17  and  C_19
REMARK    5  A    between atoms: C_26  and  C_27
REMARK    6  A    between atoms: C_27  and  C_28
REMARK                            x       y       z     vdW  Elec       q    Type
REMARK                         _______ _______ _______ _____ _____    ______ ____
ROOT
ATOM      1  C   UNL     1      -1.286  -2.914  -1.220  0.00  0.00    +0.016 C 
ATOM      2  C   UNL     1      -1.940  -4.090  -1.123  0.00  0.00    +0.125 C 
ATOM      3  C   UNL     1      -2.271  -5.022  -2.226  0.00  0.00    +0.270 C 
ATOM      4  O   UNL     1      -2.012  -4.888  -3.407  0.00  0.00    -0.268 OA
ATOM      5  N   UNL     1      -2.921  -6.052  -1.642  0.00  0.00    -0.250 N 
ATOM      6  C   UNL     1      -3.000  -5.804  -0.291  0.00  0.00    +0.137 C 
ATOM      7  N   UNL     1      -2.428  -4.671   0.015  0.00  0.00    -0.227 NA
ENDROOT
BRANCH   1  11
ATOM      8  C   UNL     1      -0.740   1.708  -0.114  0.00  0.00    +0.129 C 
ATOM      9  N   UNL     1      -0.589   0.253  -0.037  0.00  0.00    -0.332 N 
ATOM     10  C   UNL     1      -1.691  -0.711  -0.110  0.00  0.00    +0.117 C 
ATOM     11  C   UNL     1      -1.028  -2.092   0.016  0.00  0.00    +0.063 C 
ATOM     12  C   UNL     1       0.448  -1.793   0.155  0.00  0.00    -0.018 A 
ATOM     13  C   UNL     1       0.625  -0.419   0.110  0.00  0.00    +0.033 A 
ATOM     14  C   UNL     1       1.917   0.101   0.214  0.00  0.00    +0.023 A 
ATOM     15  C   UNL     1       2.998  -0.743   0.355  0.00  0.00    +0.002 A 
ATOM     16  C   UNL     1       2.810  -2.113   0.395  0.00  0.00    +0.000 A 
ATOM     17  C   UNL     1       1.533  -2.635   0.302  0.00  0.00    +0.006 A 
ENDBRANCH   1  11
BRANCH   6  18
ATOM     18  C   UNL     1      -3.644  -6.705   0.687  0.00  0.00    +0.034 A 
ATOM     19  C   UNL     1      -2.910  -7.215   1.760  0.00  0.00    +0.013 A 
ATOM     20  C   UNL     1      -3.517  -8.056   2.669  0.00  0.00    +0.001 A 
ATOM     21  C   UNL     1      -4.850  -8.395   2.521  0.00  0.00    +0.001 A 
ATOM     22  C   UNL     1      -5.584  -7.894   1.461  0.00  0.00    +0.021 A 
ATOM     23  C   UNL     1      -4.991  -7.046   0.546  0.00  0.00    +0.051 A 
ATOM     24 CL   UNL     1      -5.916  -6.412  -0.779  0.00  0.00    -0.083 Cl
ENDBRANCH   6  18
BRANCH   5  25
ATOM     25  C   UNL     1      -3.453  -7.231  -2.329  0.00  0.00    +0.120 C 
BRANCH  25  26
ATOM     26  C   UNL     1      -2.341  -8.269  -2.496  0.00  0.00    +0.056 C 
BRANCH  26  27
ATOM     27  C   UNL     1      -2.888  -9.482  -3.203  0.00  0.00    -0.021 A 
ATOM     28  C   UNL     1      -3.009  -9.665  -4.652  0.00  0.00    +0.003 A 
ATOM     29  C   UNL     1      -2.698  -8.873  -5.759  0.00  0.00    +0.013 A 
ATOM     30  C   UNL     1      -2.938  -9.344  -7.019  0.00  0.00    +0.039 A 
ATOM     31  C   UNL     1      -3.491 -10.605  -7.208  0.00  0.00    +0.125 A 
ATOM     32  C   UNL     1      -3.807 -11.403  -6.128  0.00  0.00    +0.064 A 
ATOM     33  C   UNL     1      -3.569 -10.943  -4.837  0.00  0.00    +0.049 A 
ATOM     34  N   UNL     1      -3.768 -11.484  -3.586  0.00  0.00    -0.360 N 
ATOM     35  C   UNL     1      -3.351 -10.601  -2.626  0.00  0.00    +0.087 A 
ATOM     36  F   UNL     1      -3.723 -11.053  -8.461  0.00  0.00    -0.205 F 
ATOM     37  H   UNL     1      -4.143 -12.361  -3.412  0.00  0.00    +0.165 HD
ENDBRANCH  26  27
ENDBRANCH  25  26
ENDBRANCH   5  25
TORSDOF 5
