REMARK  Name = ZINC09569188
REMARK  10 active torsions:
REMARK  status: ('A' for Active; 'I' for Inactive)
REMARK    1  A    between atoms: C_1  and  N_2
REMARK    2  A    between atoms: N_2  and  C_3
REMARK    3  A    between atoms: N_2  and  C_4
REMARK    4  A    between atoms: C_7  and  C_10
REMARK    5  A    between atoms: C_10  and  C_12
REMARK    6  A    between atoms: C_10  and  N_63
REMARK    7  A    between atoms: C_12  and  N_13
REMARK    8  A    between atoms: C_14  and  C_16
REMARK    9  A    between atoms: C_21  and  O_22
REMARK   10  A    between atoms: O_22  and  C_23
REMARK                            x       y       z     vdW  Elec       q    Type
REMARK                         _______ _______ _______ _____ _____    ______ ____
ROOT
ATOM      1  C   UNL     1      -0.013   1.086   0.008  0.00  0.00    -0.020 C 
ENDROOT
BRANCH   1  11
ATOM      2  C   UNL     1      -0.365   1.455  -2.361  0.00  0.00    -0.073 C 
ATOM      3  C   UNL     1      -1.450   1.866  -3.357  0.00  0.00    +0.017 C 
ATOM      4  C   UNL     1      -1.894   3.279  -3.080  0.00  0.00    -0.048 A 
ATOM      5  C   UNL     1      -2.596   3.957  -4.066  0.00  0.00    +0.004 A 
ATOM      6  C   UNL     1      -3.024   5.252  -3.851  0.00  0.00    +0.000 A 
ATOM      7  C   UNL     1      -2.751   5.876  -2.648  0.00  0.00    +0.000 A 
ATOM      8  C   UNL     1      -2.052   5.203  -1.667  0.00  0.00    +0.002 A 
ATOM      9  C   UNL     1      -1.619   3.902  -1.882  0.00  0.00    -0.061 A 
ATOM     10  C   UNL     1      -0.852   3.212  -0.785  0.00  0.00    -0.042 C 
ATOM     11  N   UNL     1      -0.862   1.756  -1.003  0.00  0.00    +0.388 N 
ATOM     12  H   UNL     1      -1.824   1.409  -0.914  0.00  0.00    -0.080 HD
ENDBRANCH   1  11
BRANCH   1  16
ATOM     13  C   UNL     1       4.095   2.097  -0.600  0.00  0.00    +0.029 A 
ATOM     14  C   UNL     1       3.631   0.835  -0.946  0.00  0.00    +0.023 A 
ATOM     15  C   UNL     1       2.303   0.511  -0.748  0.00  0.00    +0.004 A 
ATOM     16  C   UNL     1       1.436   1.442  -0.206  0.00  0.00    -0.059 A 
ATOM     17  C   UNL     1       1.893   2.702   0.133  0.00  0.00    +0.004 A 
ATOM     18  C   UNL     1       3.221   3.031  -0.057  0.00  0.00    +0.023 A 
BRANCH  13  20
ATOM     19  C   UNL     1       6.357   1.443  -1.373  0.00  0.00    +0.129 C 
ATOM     20  N   UNL     1       5.437   2.428  -0.799  0.00  0.00    -0.336 N 
ATOM     21  C   UNL     1       5.926   3.760  -0.434  0.00  0.00    +0.129 C 
ENDBRANCH  13  20
ENDBRANCH   1  16
BRANCH   1  22
ATOM     22  C   UNL     1      -0.447   1.534   1.405  0.00  0.00    +0.094 C 
BRANCH  22  23
ATOM     23  N   UNL     1      -1.883   1.296   1.570  0.00  0.00    -0.312 N 
ATOM     24  C   UNL     1      -2.490   1.617   2.729  0.00  0.00    +0.248 C 
ATOM     25  O   UNL     1      -1.847   2.103   3.639  0.00  0.00    -0.270 OA
ATOM     26  H   UNL     1      -2.397   0.908   0.844  0.00  0.00    +0.149 HD
BRANCH  24  27
ATOM     27  C   UNL     1      -3.937   1.377   2.895  0.00  0.00    +0.080 A 
ATOM     28  C   UNL     1      -4.681   0.823   1.851  0.00  0.00    +0.036 A 
ATOM     29  C   UNL     1      -6.032   0.597   2.014  0.00  0.00    +0.042 A 
ATOM     30  C   UNL     1      -6.656   0.927   3.208  0.00  0.00    +0.023 A 
ATOM     31  C   UNL     1      -5.932   1.479   4.245  0.00  0.00    +0.048 A 
ATOM     32  C   UNL     1      -4.572   1.709   4.099  0.00  0.00    +0.132 A 
ATOM     33 CL   UNL     1      -6.955  -0.097   0.718  0.00  0.00    -0.084 Cl
BRANCH  32  34
ATOM     34  O   UNL     1      -3.860   2.252   5.119  0.00  0.00    -0.494 OA
ATOM     35  C   UNL     1      -4.575   2.564   6.316  0.00  0.00    +0.277 C 
ENDBRANCH  32  34
ENDBRANCH  24  27
ENDBRANCH  22  23
ENDBRANCH   1  22
TORSDOF 7
