REMARK  Name = ZINC19851805
REMARK  2 active torsions:
REMARK  status: ('A' for Active; 'I' for Inactive)
REMARK    1  A    between atoms: C_1  and  C_2
REMARK    2  A    between atoms: C_5  and  N_7
REMARK                            x       y       z     vdW  Elec       q    Type
REMARK                         _______ _______ _______ _____ _____    ______ ____
ROOT
ATOM      1  N   UNL     1       0.436  -2.849   2.245  0.00  0.00    -0.189 NA
ATOM      2  C   UNL     1       0.156  -2.372   3.439  0.00  0.00    +0.195 C 
ATOM      3  N   UNL     1       0.145  -1.017   3.651  0.00  0.00    -0.370 N 
ATOM      4  N   UNL     1      -0.125  -3.229   4.471  0.00  0.00    -0.370 N 
ATOM      5  H   UNL     1      -0.012  -0.412   2.909  0.00  0.00    +0.159 HD
ATOM      6  H   UNL     1      -0.117  -4.188   4.322  0.00  0.00    +0.159 HD
ATOM      7  H   UNL     1      -0.332  -2.877   5.351  0.00  0.00    +0.159 HD
ATOM      8  H   UNL     1       0.294  -0.664   4.542  0.00  0.00    +0.159 HD
ENDROOT
BRANCH   1  13
ATOM      9  C   UNL     1       1.861   1.412   0.344  0.00  0.00    +0.067 C 
ATOM     10  C   UNL     1       1.542  -0.058   0.250  0.00  0.00    +0.062 A 
ATOM     11  C   UNL     1       1.663  -0.704  -0.936  0.00  0.00    +0.079 A 
ATOM     12  S   UNL     1       1.172  -2.358  -0.466  0.00  0.00    -0.041 S 
ATOM     13  C   UNL     1       0.857  -2.012   1.260  0.00  0.00    +0.197 A 
ATOM     14  N   UNL     1       1.149  -0.717   1.321  0.00  0.00    -0.225 NA
ATOM     15 BR   UNL     1       2.203  -0.040  -2.622  0.00  0.00    -0.041 Br
ENDBRANCH   1  13
TORSDOF 1
