REMARK  Name = ZINC36536702
REMARK  15 active torsions:
REMARK  status: ('A' for Active; 'I' for Inactive)
REMARK    1  A    between atoms: C_1  and  C_2
REMARK    2  A    between atoms: C_2  and  C_3
REMARK    3  A    between atoms: C_3  and  C_4
REMARK    4  A    between atoms: C_4  and  C_5
REMARK    5  A    between atoms: C_5  and  C_6
REMARK    6  A    between atoms: N_8  and  C_9
REMARK    7  A    between atoms: N_8  and  C_10
REMARK    8  A    between atoms: C_10  and  C_12
REMARK    9  A    between atoms: C_10  and  C_24
REMARK   10  A    between atoms: C_21  and  O_22
REMARK   11  A    between atoms: O_22  and  C_23
REMARK   12  A    between atoms: N_26  and  C_27
REMARK   13  A    between atoms: C_27  and  S_28
REMARK   14  A    between atoms: S_28  and  C_31
REMARK   15  A    between atoms: C_34  and  C_37
REMARK                            x       y       z     vdW  Elec       q    Type
REMARK                         _______ _______ _______ _____ _____    ______ ____
ROOT
ATOM      1  C   UNL     1      -4.013  -6.242  -0.140  0.00  0.00    +0.196 C 
ENDROOT
BRANCH   1   2
ATOM      2  C   UNL     1      -4.540  -6.574  -1.512  0.00  0.00    +0.031 A 
ATOM      3  C   UNL     1      -3.970  -7.622  -2.254  0.00  0.00    -0.009 A 
ATOM      4  C   UNL     1      -2.903  -8.381  -1.741  0.00  0.00    +0.009 A 
ATOM      5  C   UNL     1      -2.375  -9.390  -2.487  0.00  0.00    +0.001 A 
ATOM      6  C   UNL     1      -2.875  -9.683  -3.754  0.00  0.00    +0.001 A 
ATOM      7  C   UNL     1      -3.906  -8.970  -4.283  0.00  0.00    +0.008 A 
ATOM      8  C   UNL     1      -4.479  -7.921  -3.542  0.00  0.00    -0.017 A 
ATOM      9  C   UNL     1      -5.545  -7.163  -4.056  0.00  0.00    +0.012 A 
ATOM     10  C   UNL     1      -6.076  -6.155  -3.314  0.00  0.00    +0.046 A 
ATOM     11  C   UNL     1      -5.579  -5.862  -2.040  0.00  0.00    +0.126 A 
BRANCH  11  12
ATOM     12  O   UNL     1      -6.134  -4.852  -1.320  0.00  0.00    -0.495 OA
ATOM     13  C   UNL     1      -7.217  -4.143  -1.924  0.00  0.00    +0.277 C 
ENDBRANCH  11  12
ENDBRANCH   1   2
BRANCH   1  16
ATOM     14  C   UNL     1      -2.081  -4.766   0.020  0.00  0.00    +0.216 C 
ATOM     15  O   UNL     1      -1.385  -5.743   0.196  0.00  0.00    -0.276 OA
ATOM     16  N   UNL     1      -3.410  -4.907  -0.159  0.00  0.00    -0.289 N 
ATOM     17  C   UNL     1      -4.250  -3.727  -0.372  0.00  0.00    +0.133 C 
BRANCH  14  18
ATOM     18  C   UNL     1      -1.461  -3.393   0.001  0.00  0.00    +0.096 C 
BRANCH  18  19
ATOM     19  C   UNL     1       0.048  -3.512   0.226  0.00  0.00    +0.009 C 
BRANCH  19  20
ATOM     20  C   UNL     1       0.678  -2.118   0.206  0.00  0.00    +0.000 C 
BRANCH  20  22
ATOM     21  C   UNL     1       2.817  -0.842   0.412  0.00  0.00    +0.004 C 
ATOM     22  C   UNL     1       2.187  -2.236   0.432  0.00  0.00    -0.003 C 
ENDBRANCH  20  22
ENDBRANCH  19  20
ENDBRANCH  18  19
ENDBRANCH  14  18
ENDBRANCH   1  16
BRANCH   1  23
ATOM     23  C   UNL     1      -5.146  -6.268   0.853  0.00  0.00    +0.239 C 
ATOM     24  O   UNL     1      -5.423  -5.269   1.483  0.00  0.00    -0.273 OA
ATOM     25  N   UNL     1      -5.852  -7.400   1.041  0.00  0.00    -0.294 N 
ATOM     26  H   UNL     1      -5.631  -8.199   0.537  0.00  0.00    +0.150 HD
BRANCH  25  27
ATOM     27  C   UNL     1      -6.954  -7.425   2.006  0.00  0.00    +0.278 C 
BRANCH  27  28
ATOM     28  S   UNL     1      -8.519  -7.105   1.146  0.00  0.00    +0.013 S 
ATOM     29  O   UNL     1      -9.605  -7.188   2.059  0.00  0.00    -0.168 OA
ATOM     30  O   UNL     1      -8.383  -5.985   0.283  0.00  0.00    -0.168 OA
BRANCH  28  31
ATOM     31  C   UNL     1      -8.732  -8.481   0.067  0.00  0.00    +0.090 A 
ATOM     32  C   UNL     1      -8.219  -8.440  -1.215  0.00  0.00    +0.027 A 
ATOM     33  C   UNL     1      -8.386  -9.520  -2.062  0.00  0.00    +0.005 A 
ATOM     34  C   UNL     1      -9.066 -10.641  -1.626  0.00  0.00    -0.050 A 
ATOM     35  C   UNL     1      -9.579 -10.683  -0.343  0.00  0.00    +0.005 A 
ATOM     36  C   UNL     1      -9.408  -9.605   0.505  0.00  0.00    +0.027 A 
ATOM     37  C   UNL     1      -9.250 -11.818  -2.549  0.00  0.00    +0.044 C 
ENDBRANCH  28  31
ENDBRANCH  27  28
ENDBRANCH  25  27
ENDBRANCH   1  23
TORSDOF 11
