REMARK  Name = ZINC33276636
REMARK  7 active torsions:
REMARK  status: ('A' for Active; 'I' for Inactive)
REMARK    1  A    between atoms: C_1  and  C_2
REMARK    2  A    between atoms: C_2  and  C_3
REMARK    3  A    between atoms: C_4  and  C_15
REMARK    4  A    between atoms: C_18  and  C_32
REMARK    5  A    between atoms: C_19  and  S_21
REMARK    6  A    between atoms: S_21  and  N_24
REMARK    7  A    between atoms: N_24  and  C_25
REMARK                            x       y       z     vdW  Elec       q    Type
REMARK                         _______ _______ _______ _____ _____    ______ ____
ROOT
ATOM      1  C   UNL     1       1.031  -3.797  -0.653  0.00  0.00    -0.011 A 
ATOM      2  C   UNL     1       1.853  -4.185  -1.710  0.00  0.00    +0.009 A 
ATOM      3  C   UNL     1       2.858  -5.107  -1.497  0.00  0.00    +0.006 A 
ATOM      4  C   UNL     1       3.049  -5.646  -0.237  0.00  0.00    -0.024 A 
ATOM      5  C   UNL     1       2.237  -5.265   0.815  0.00  0.00    +0.109 A 
ATOM      6  C   UNL     1       1.233  -4.339   0.615  0.00  0.00    +0.037 A 
ATOM      7  C   UNL     1       4.148  -6.652  -0.011  0.00  0.00    +0.046 C 
ENDROOT
BRANCH   1   9
ATOM      8  C   UNL     1      -1.432  -3.043  -0.766  0.00  0.00    +0.073 A 
ATOM      9  C   UNL     1      -0.049  -2.805  -0.875  0.00  0.00    +0.045 A 
ATOM     10  C   UNL     1       0.118  -1.472  -1.231  0.00  0.00    +0.139 A 
ATOM     11  N   UNL     1      -1.119  -0.913  -1.259  0.00  0.00    -0.185 N 
ATOM     12  N   UNL     1      -2.061  -1.931  -1.016  0.00  0.00    -0.167 NA
ATOM     13  C   UNL     1      -1.477   0.374  -1.450  0.00  0.00    +0.250 C 
ATOM     14  O   UNL     1      -2.653   0.635  -1.544  0.00  0.00    -0.271 OA
ATOM     15  C   UNL     1      -0.504   1.477  -1.555  0.00  0.00    +0.110 C 
ATOM     16  C   UNL     1       0.734   1.302  -0.716  0.00  0.00    +0.105 C 
ATOM     17  C   UNL     1       1.701   0.356  -1.348  0.00  0.00    +0.219 C 
ATOM     18  O   UNL     1       2.802   0.743  -1.678  0.00  0.00    -0.275 OA
ATOM     19  N   UNL     1       1.347  -0.930  -1.550  0.00  0.00    -0.270 N 
ATOM     20  H   UNL     1       2.124  -1.561  -2.006  0.00  0.00    +0.156 HD
BRANCH   8  22
ATOM     21  C   UNL     1      -2.345  -5.151  -1.700  0.00  0.00    +0.010 C 
ATOM     22  C   UNL     1      -2.075  -4.360  -0.418  0.00  0.00    +0.054 C 
ENDBRANCH   8  22
ENDBRANCH   1   9
BRANCH   5  23
ATOM     23  S   UNL     1       2.488  -5.957   2.416  0.00  0.00    +0.059 S 
ATOM     24  O   UNL     1       1.561  -5.320   3.284  0.00  0.00    -0.153 OA
ATOM     25  O   UNL     1       2.529  -7.367   2.247  0.00  0.00    -0.153 OA
BRANCH  23  26
ATOM     26  N   UNL     1       3.998  -5.497   2.917  0.00  0.00    -0.187 NA
ATOM     27  H   UNL     1       4.820  -6.228   2.890  0.00  0.00    +0.148 HD
BRANCH  26  28
ATOM     28  C   UNL     1       4.284  -4.084   3.181  0.00  0.00    +0.077 C 
ATOM     29  C   UNL     1       4.873  -3.447   1.906  0.00  0.00    +0.020 C 
ATOM     30  C   UNL     1       4.688  -1.955   1.989  0.00  0.00    +0.002 C 
ATOM     31  C   UNL     1       5.924  -1.241   2.571  0.00  0.00    +0.000 C 
ATOM     32  C   UNL     1       6.538  -1.991   3.768  0.00  0.00    +0.000 C 
ATOM     33  C   UNL     1       5.493  -2.530   4.707  0.00  0.00    +0.002 C 
ATOM     34  C   UNL     1       5.190  -3.991   4.316  0.00  0.00    +0.020 C 
ENDBRANCH  26  28
ENDBRANCH  23  26
ENDBRANCH   5  23
TORSDOF 5
