REMARK  Name = ZINC02094441
REMARK  13 active torsions:
REMARK  status: ('A' for Active; 'I' for Inactive)
REMARK    1  A    between atoms: C_1  and  C_2
REMARK    2  A    between atoms: C_2  and  C_3
REMARK    3  A    between atoms: C_3  and  C_5
REMARK    4  A    between atoms: C_3  and  C_6
REMARK    5  A    between atoms: C_6  and  C_8
REMARK    6  A    between atoms: C_6  and  N_28
REMARK    7  A    between atoms: C_8  and  O_10
REMARK    8  A    between atoms: O_10  and  C_11
REMARK    9  A    between atoms: C_18  and  O_26
REMARK   10  A    between atoms: O_26  and  C_27
REMARK   11  A    between atoms: N_28  and  S_29
REMARK   12  A    between atoms: S_29  and  C_32
REMARK   13  A    between atoms: C_35  and  C_38
REMARK                            x       y       z     vdW  Elec       q    Type
REMARK                         _______ _______ _______ _____ _____    ______ ____
ROOT
ATOM      1  C   UNL     1       4.069  -1.826   9.839  0.00  0.00    +0.331 C 
ATOM      2  O   UNL     1       4.579  -2.176   8.801  0.00  0.00    -0.249 OA
ENDROOT
BRANCH   1   3
ATOM      3  C   UNL     1       4.605  -2.338  11.151  0.00  0.00    +0.188 C 
BRANCH   3   4
ATOM      4  C   UNL     1       3.503  -3.100  11.890  0.00  0.00    +0.015 C 
ATOM      5  C   UNL     1       2.322  -2.163  12.152  0.00  0.00    +0.009 C 
BRANCH   4   7
ATOM      6  C   UNL     1       2.026  -5.114  11.823  0.00  0.00    +0.004 C 
ATOM      7  C   UNL     1       3.037  -4.280  11.035  0.00  0.00    +0.002 C 
ENDBRANCH   4   7
ENDBRANCH   3   4
BRANCH   3   8
ATOM      8  N   UNL     1       5.735  -3.235  10.901  0.00  0.00    -0.176 NA
ATOM      9  H   UNL     1       5.736  -3.808  10.118  0.00  0.00    +0.149 HD
BRANCH   8  10
ATOM     10  S   UNL     1       7.013  -3.271  11.954  0.00  0.00    +0.059 S 
ATOM     11  O   UNL     1       7.921  -4.245  11.458  0.00  0.00    -0.153 OA
ATOM     12  O   UNL     1       7.393  -1.920  12.178  0.00  0.00    -0.153 OA
BRANCH  10  13
ATOM     13  C   UNL     1       6.405  -3.885  13.490  0.00  0.00    +0.105 A 
ATOM     14  C   UNL     1       5.918  -3.008  14.441  0.00  0.00    +0.029 A 
ATOM     15  C   UNL     1       5.437  -3.490  15.644  0.00  0.00    +0.005 A 
ATOM     16  C   UNL     1       5.452  -4.848  15.900  0.00  0.00    -0.050 A 
ATOM     17  C   UNL     1       5.944  -5.725  14.951  0.00  0.00    +0.005 A 
ATOM     18  C   UNL     1       6.420  -5.243  13.746  0.00  0.00    +0.029 A 
ATOM     19  C   UNL     1       4.932  -5.373  17.213  0.00  0.00    +0.044 C 
ENDBRANCH  10  13
ENDBRANCH   8  10
ENDBRANCH   3   8
ENDBRANCH   1   3
BRANCH   1  20
ATOM     20  O   UNL     1       3.025  -0.983   9.823  0.00  0.00    -0.425 OA
BRANCH  20  21
ATOM     21  C   UNL     1       2.514  -0.655   8.607  0.00  0.00    +0.135 A 
ATOM     22  C   UNL     1       1.816  -1.607   7.872  0.00  0.00    +0.047 A 
ATOM     23  C   UNL     1       1.297  -1.281   6.638  0.00  0.00    +0.016 A 
ATOM     24  C   UNL     1       1.472   0.004   6.128  0.00  0.00    +0.026 A 
ATOM     25  C   UNL     1       0.922   0.371   4.809  0.00  0.00    -0.000 A 
ATOM     26  C   UNL     1       0.216  -0.536   4.028  0.00  0.00    +0.013 A 
ATOM     27  C   UNL     1      -0.277  -0.142   2.801  0.00  0.00    +0.046 A 
ATOM     28  C   UNL     1      -0.072   1.155   2.340  0.00  0.00    +0.121 A 
ATOM     29  C   UNL     1       0.634   2.069   3.102  0.00  0.00    +0.061 A 
ATOM     30  C   UNL     1       1.133   1.687   4.345  0.00  0.00    +0.071 A 
ATOM     31  C   UNL     1       1.884   2.620   5.197  0.00  0.00    +0.345 A 
ATOM     32  O   UNL     1       2.080   3.760   4.822  0.00  0.00    -0.245 OA
ATOM     33  O   UNL     1       2.357   2.219   6.388  0.00  0.00    -0.422 OA
ATOM     34  C   UNL     1       2.176   0.967   6.866  0.00  0.00    +0.143 A 
ATOM     35  C   UNL     1       2.694   0.624   8.108  0.00  0.00    +0.093 A 
BRANCH  28  36
ATOM     36  O   UNL     1      -0.564   1.524   1.128  0.00  0.00    -0.495 OA
ATOM     37  C   UNL     1      -1.278   0.532   0.388  0.00  0.00    +0.277 C 
ENDBRANCH  28  36
ENDBRANCH  20  21
ENDBRANCH   1  20
TORSDOF 9
