REMARK  Name = ZINC01043137
REMARK  4 active torsions:
REMARK  status: ('A' for Active; 'I' for Inactive)
REMARK    1  A    between atoms: C_4  and  C_7
REMARK    2  A    between atoms: C_8  and  O_24
REMARK    3  A    between atoms: O_24  and  C_25
REMARK    4  A    between atoms: C_25  and  C_27
REMARK                            x       y       z     vdW  Elec       q    Type
REMARK                         _______ _______ _______ _____ _____    ______ ____
ROOT
ATOM      1  C   UNL     1       4.857   0.162  -0.200  0.00  0.00    +0.090 A 
ATOM      2  C   UNL     1       3.740  -0.670  -0.211  0.00  0.00    +0.154 A 
ATOM      3  C   UNL     1       2.431  -0.017  -0.089  0.00  0.00    +0.043 A 
ATOM      4  C   UNL     1       1.205  -0.681  -0.079  0.00  0.00    +0.013 A 
ATOM      5  C   UNL     1       0.041   0.062   0.043  0.00  0.00    +0.001 A 
ATOM      6  C   UNL     1       0.053   1.444   0.156  0.00  0.00    +0.010 A 
ATOM      7  C   UNL     1       1.266   2.127   0.148  0.00  0.00    +0.004 A 
ATOM      8  C   UNL     1       2.429   1.368   0.025  0.00  0.00    +0.068 A 
ATOM      9  N   UNL     1       3.530   2.163   0.031  0.00  0.00    -0.279 N 
ATOM     10  C   UNL     1       4.737   1.568  -0.078  0.00  0.00    +0.267 A 
ATOM     11  O   UNL     1       5.743   2.255  -0.071  0.00  0.00    -0.267 OA
ATOM     12  C   UNL     1       3.100   3.465   0.157  0.00  0.00    +0.031 A 
ATOM     13  C   UNL     1       1.751   3.502   0.232  0.00  0.00    -0.018 A 
ATOM     14  C   UNL     1       0.939   4.763   0.377  0.00  0.00    +0.037 C 
ATOM     15  C   UNL     1       1.869   5.896   0.826  0.00  0.00    +0.005 C 
ATOM     16  C   UNL     1       3.103   5.926  -0.081  0.00  0.00    +0.006 C 
ATOM     17  C   UNL     1       3.973   4.697   0.203  0.00  0.00    +0.054 C 
ENDROOT
BRANCH   1  21
ATOM     18  C   UNL     1       8.726  -1.563  -0.544  0.00  0.00    +0.000 A 
ATOM     19  C   UNL     1       8.234  -0.767  -1.563  0.00  0.00    +0.001 A 
ATOM     20  C   UNL     1       6.979  -0.204  -1.457  0.00  0.00    +0.009 A 
ATOM     21  C   UNL     1       6.206  -0.439  -0.320  0.00  0.00    -0.009 A 
ATOM     22  C   UNL     1       6.710  -1.237   0.706  0.00  0.00    +0.009 A 
ATOM     23  C   UNL     1       7.965  -1.800   0.586  0.00  0.00    +0.001 A 
ENDBRANCH   1  21
BRANCH   2  24
ATOM     24  O   UNL     1       3.855  -2.013  -0.329  0.00  0.00    -0.421 OA
BRANCH  24  25
ATOM     25  C   UNL     1       3.383  -2.594  -1.452  0.00  0.00    +0.351 C 
ATOM     26  O   UNL     1       2.928  -1.907  -2.347  0.00  0.00    -0.244 OA
BRANCH  25  27
ATOM     27  C   UNL     1       3.418  -4.050  -1.592  0.00  0.00    +0.097 A 
ATOM     28  C   UNL     1       2.988  -4.837  -2.651  0.00  0.00    +0.022 A 
ATOM     29  C   UNL     1       3.139  -6.194  -2.522  0.00  0.00    +0.008 A 
ATOM     30  C   UNL     1       3.692  -6.696  -1.386  0.00  0.00    +0.046 A 
ATOM     31  S   UNL     1       4.030  -5.276  -0.450  0.00  0.00    -0.090 S 
ENDBRANCH  25  27
ENDBRANCH  24  25
ENDBRANCH   2  24
TORSDOF 4
