REMARK  Name = ZINC12403536
REMARK  12 active torsions:
REMARK  status: ('A' for Active; 'I' for Inactive)
REMARK    1  A    between atoms: C_1  and  C_2
REMARK    2  A    between atoms: C_6  and  C_8
REMARK    3  A    between atoms: N_10  and  C_11
REMARK    4  A    between atoms: C_11  and  N_13
REMARK    5  A    between atoms: N_13  and  N_14
REMARK    6  A    between atoms: C_15  and  C_17
REMARK    7  A    between atoms: C_17  and  O_18
REMARK    8  A    between atoms: O_18  and  C_19
REMARK    9  A    between atoms: C_22  and  C_26
REMARK   10  A    between atoms: C_26  and  C_27
REMARK   11  A    between atoms: C_26  and  C_28
REMARK   12  A    between atoms: C_26  and  C_29
REMARK                            x       y       z     vdW  Elec       q    Type
REMARK                         _______ _______ _______ _____ _____    ______ ____
ROOT
ATOM      1  N   UNL     1       3.450   7.365   0.008  0.00  0.00    -0.232 N 
ATOM      2  C   UNL     1       4.608   8.055   0.001  0.00  0.00    +0.267 C 
ATOM      3  O   UNL     1       4.591   9.268   0.007  0.00  0.00    -0.271 OA
ATOM      4  H   UNL     1       3.463   6.396   0.003  0.00  0.00    +0.173 HD
ENDROOT
BRANCH   1   5
ATOM      5  N   UNL     1       2.227   8.049   0.024  0.00  0.00    -0.245 N 
ATOM      6  H   UNL     1       2.214   9.019   0.029  0.00  0.00    +0.172 HD
BRANCH   5   7
ATOM      7  C   UNL     1       1.069   7.360   0.031  0.00  0.00    +0.153 C 
ATOM      8  S   UNL     1      -0.425   8.195   0.050  0.00  0.00    -0.017 S 
BRANCH   7  11
ATOM      9  C   UNL     1      -0.070   5.322   0.031  0.00  0.00    +0.250 C 
ATOM     10  O   UNL     1      -1.131   5.916   0.044  0.00  0.00    -0.270 OA
ATOM     11  N   UNL     1       1.088   6.012   0.024  0.00  0.00    -0.263 N 
ATOM     12  H   UNL     1       1.934   5.539   0.013  0.00  0.00    +0.157 HD
BRANCH   9  18
ATOM     13  C   UNL     1      -2.514   0.972   0.019  0.00  0.00    +0.044 C 
ATOM     14  C   UNL     1      -1.222   1.748   0.017  0.00  0.00    -0.050 A 
ATOM     15  C   UNL     1      -0.013   1.076   0.008  0.00  0.00    +0.003 A 
ATOM     16  C   UNL     1       1.178   1.781   0.000  0.00  0.00    +0.001 A 
ATOM     17  C   UNL     1       1.166   3.160   0.007  0.00  0.00    +0.013 A 
ATOM     18  C   UNL     1      -0.050   3.845   0.023  0.00  0.00    +0.037 A 
ATOM     19  C   UNL     1      -1.248   3.127   0.031  0.00  0.00    +0.016 A 
ENDBRANCH   9  18
ENDBRANCH   7  11
ENDBRANCH   5   7
ENDBRANCH   1   5
BRANCH   2  20
ATOM     20  C   UNL     1       5.923   7.320  -0.016  0.00  0.00    +0.326 C 
BRANCH  20  21
ATOM     21  O   UNL     1       6.996   8.263  -0.021  0.00  0.00    -0.482 OA
BRANCH  21  22
ATOM     22  C   UNL     1       8.259   7.761  -0.036  0.00  0.00    +0.135 A 
ATOM     23  C   UNL     1       8.461   6.388  -0.045  0.00  0.00    +0.047 A 
ATOM     24  C   UNL     1       9.745   5.880  -0.060  0.00  0.00    +0.008 A 
ATOM     25  C   UNL     1      10.830   6.738  -0.067  0.00  0.00    -0.041 A 
ATOM     26  C   UNL     1      10.632   8.106  -0.058  0.00  0.00    +0.023 A 
ATOM     27  C   UNL     1       9.349   8.620  -0.047  0.00  0.00    +0.060 A 
ATOM     28 BR   UNL     1       9.079  10.491  -0.042  0.00  0.00    -0.047 Br
BRANCH  25  29
ATOM     29  C   UNL     1      12.230   6.180  -0.084  0.00  0.00    -0.013 C 
ATOM     30  C   UNL     1      12.424   5.328  -1.340  0.00  0.00    +0.015 C 
ATOM     31  C   UNL     1      13.238   7.332  -0.089  0.00  0.00    +0.015 C 
ATOM     32  C   UNL     1      12.450   5.315   1.158  0.00  0.00    +0.015 C 
ENDBRANCH  25  29
ENDBRANCH  21  22
ENDBRANCH  20  21
ENDBRANCH   2  20
TORSDOF 8
