REMARK  Name = ZINC02626789
REMARK  10 active torsions:
REMARK  status: ('A' for Active; 'I' for Inactive)
REMARK    1  A    between atoms: C_1  and  C_2
REMARK    2  A    between atoms: C_5  and  C_8
REMARK    3  A    between atoms: C_8  and  C_32
REMARK    4  A    between atoms: N_11  and  C_15
REMARK    5  A    between atoms: C_15  and  C_16
REMARK    6  A    between atoms: C_16  and  C_18
REMARK    7  A    between atoms: C_20  and  C_31
REMARK    8  A    between atoms: N_21  and  C_24
REMARK    9  A    between atoms: C_22  and  C_23
REMARK   10  A    between atoms: C_35  and  C_38
REMARK                            x       y       z     vdW  Elec       q    Type
REMARK                         _______ _______ _______ _____ _____    ______ ____
ROOT
ATOM      1  C   UNL     1       4.088  -0.355  -0.673  0.00  0.00    +0.164 C 
ATOM      2  C   UNL     1       2.675  -0.146  -1.180  0.00  0.00    +0.256 C 
ATOM      3  O   UNL     1       2.211  -0.525  -2.233  0.00  0.00    -0.272 OA
ATOM      4  N   UNL     1       2.042   0.551  -0.215  0.00  0.00    -0.216 N 
ATOM      5  C   UNL     1       2.852   0.812   0.817  0.00  0.00    +0.310 C 
ATOM      6  O   UNL     1       2.509   1.431   1.805  0.00  0.00    -0.252 OA
ATOM      7  N   UNL     1       4.087   0.310   0.641  0.00  0.00    -0.278 N 
ATOM      8  H   UNL     1       4.833   0.376   1.258  0.00  0.00    +0.152 HD
ENDROOT
BRANCH   1  13
ATOM      9  C   UNL     1       5.225  -5.992  -0.097  0.00  0.00    +0.044 C 
ATOM     10  C   UNL     1       4.929  -4.522  -0.248  0.00  0.00    -0.050 A 
ATOM     11  C   UNL     1       5.215  -3.650   0.786  0.00  0.00    +0.004 A 
ATOM     12  C   UNL     1       4.944  -2.302   0.648  0.00  0.00    +0.007 A 
ATOM     13  C   UNL     1       4.385  -1.825  -0.523  0.00  0.00    -0.011 A 
ATOM     14  C   UNL     1       4.094  -2.698  -1.555  0.00  0.00    +0.007 A 
ATOM     15  C   UNL     1       4.371  -4.045  -1.419  0.00  0.00    +0.004 A 
ENDBRANCH   1  13
BRANCH   1  16
ATOM     16  C   UNL     1       5.085   0.297  -1.597  0.00  0.00    -0.011 A 
ATOM     17  C   UNL     1       5.045   0.033  -2.953  0.00  0.00    +0.007 A 
ATOM     18  C   UNL     1       5.956   0.635  -3.801  0.00  0.00    +0.004 A 
ATOM     19  C   UNL     1       6.913   1.492  -3.291  0.00  0.00    -0.050 A 
ATOM     20  C   UNL     1       6.956   1.752  -1.933  0.00  0.00    +0.004 A 
ATOM     21  C   UNL     1       6.042   1.154  -1.087  0.00  0.00    +0.007 A 
ATOM     22  C   UNL     1       7.911   2.144  -4.214  0.00  0.00    +0.044 C 
ENDBRANCH   1  16
BRANCH   4  23
ATOM     23  C   UNL     1       0.642   0.975  -0.291  0.00  0.00    +0.197 C 
BRANCH  23  24
ATOM     24  C   UNL     1      -0.240  -0.096   0.298  0.00  0.00    +0.183 C 
ATOM     25  O   UNL     1       0.253  -1.113   0.738  0.00  0.00    -0.290 OA
BRANCH  24  26
ATOM     26  C   UNL     1      -1.692   0.090   0.334  0.00  0.00    +0.040 A 
ATOM     27  C   UNL     1      -2.448   1.252  -0.152  0.00  0.00    +0.034 A 
ATOM     28  C   UNL     1      -3.744   0.987   0.084  0.00  0.00    +0.022 A 
ATOM     29  N   UNL     1      -3.851  -0.241   0.675  0.00  0.00    -0.317 N 
ATOM     30  C   UNL     1      -2.633  -0.795   0.827  0.00  0.00    +0.031 A 
ATOM     31  C   UNL     1      -2.345  -2.145   1.433  0.00  0.00    +0.064 C 
ATOM     32  C   UNL     1      -4.897   1.899  -0.249  0.00  0.00    +0.064 C 
BRANCH  29  33
ATOM     33  C   UNL     1      -5.057  -0.841   1.061  0.00  0.00    +0.047 A 
ATOM     34  C   UNL     1      -5.314  -1.084   2.404  0.00  0.00    +0.027 A 
ATOM     35  C   UNL     1      -6.505  -1.672   2.783  0.00  0.00    +0.022 A 
ATOM     36  C   UNL     1      -7.438  -2.027   1.824  0.00  0.00    +0.041 A 
ATOM     37  C   UNL     1      -7.182  -1.790   0.485  0.00  0.00    +0.022 A 
ATOM     38  C   UNL     1      -5.995  -1.199   0.102  0.00  0.00    +0.027 A 
ATOM     39 CL   UNL     1      -8.932  -2.771   2.303  0.00  0.00    -0.084 Cl
ENDBRANCH  29  33
ENDBRANCH  24  26
ENDBRANCH  23  24
ENDBRANCH   4  23
TORSDOF 6
