REMARK  Name = ZINC12495872
REMARK  9 active torsions:
REMARK  status: ('A' for Active; 'I' for Inactive)
REMARK    1  A    between atoms: C_1  and  C_2
REMARK    2  A    between atoms: C_2  and  O_3
REMARK    3  A    between atoms: O_3  and  C_4
REMARK    4  A    between atoms: C_4  and  C_6
REMARK    5  A    between atoms: C_6  and  C_26
REMARK    6  A    between atoms: C_11  and  C_13
REMARK    7  A    between atoms: N_22  and  C_25
REMARK    8  A    between atoms: C_26  and  C_27
REMARK    9  A    between atoms: C_30  and  O_33
REMARK                            x       y       z     vdW  Elec       q    Type
REMARK                         _______ _______ _______ _____ _____    ______ ____
ROOT
ATOM      1  C   UNL     1       0.023  -0.522   1.442  0.00  0.00    +0.048 C 
ATOM      2  C   UNL     1       0.246  -1.990   1.461  0.00  0.00    +0.086 C 
ATOM      3  C   UNL     1       1.822  -2.058   1.361  0.00  0.00    +0.077 C 
ATOM      4  C   UNL     1       2.142  -1.083   2.468  0.00  0.00    -0.024 C 
ATOM      5  C   UNL     1       1.956  -3.531   1.419  0.00  0.00    +0.224 C 
ATOM      6  O   UNL     1       2.836  -4.168   1.958  0.00  0.00    -0.275 OA
ATOM      7  N   UNL     1       0.875  -4.021   0.736  0.00  0.00    -0.245 N 
ATOM      8  C   UNL     1      -0.101  -3.075   0.546  0.00  0.00    +0.225 C 
ATOM      9  O   UNL     1      -1.044  -3.127  -0.214  0.00  0.00    -0.275 OA
ATOM     10  C   UNL     1       0.772  -5.402   0.259  0.00  0.00    +0.141 C 
ATOM     11  N   UNL     1       1.192   0.034   2.182  0.00  0.00    +0.396 N 
ATOM     12  H   UNL     1       0.876   0.455   3.063  0.00  0.00    -0.083 HD
ATOM     13  H   UNL     1       1.657   0.748   1.609  0.00  0.00    -0.083 HD
ENDROOT
BRANCH   4  14
ATOM     14  C   UNL     1       3.572  -0.618   2.375  0.00  0.00    -0.025 A 
ATOM     15  C   UNL     1       3.877   0.554   1.707  0.00  0.00    +0.005 A 
ATOM     16  C   UNL     1       5.189   0.981   1.623  0.00  0.00    +0.000 A 
ATOM     17  C   UNL     1       6.198   0.237   2.205  0.00  0.00    +0.003 A 
ATOM     18  C   UNL     1       5.896  -0.934   2.874  0.00  0.00    +0.038 A 
ATOM     19  C   UNL     1       4.582  -1.361   2.963  0.00  0.00    +0.125 A 
ATOM     20  F   UNL     1       4.285  -2.503   3.621  0.00  0.00    -0.205 F 
ENDBRANCH   4  14
BRANCH   1  21
ATOM     21  C   UNL     1      -1.265  -0.174   2.143  0.00  0.00    +0.297 C 
ATOM     22  O   UNL     1      -2.163  -0.981   2.192  0.00  0.00    -0.252 OA
BRANCH  21  23
ATOM     23  O   UNL     1      -1.415   1.032   2.712  0.00  0.00    -0.466 OA
BRANCH  23  25
ATOM     24  C   UNL     1      -2.666   2.712   3.954  0.00  0.00    +0.048 C 
ATOM     25  C   UNL     1      -2.682   1.298   3.370  0.00  0.00    +0.228 C 
ENDBRANCH  23  25
ENDBRANCH  21  23
ENDBRANCH   1  21
BRANCH   1  26
ATOM     26  C   UNL     1       0.002  -0.004   0.002  0.00  0.00    +0.034 C 
BRANCH  26  27
ATOM     27  C   UNL     1      -0.018   1.503   0.010  0.00  0.00    -0.048 A 
ATOM     28  C   UNL     1      -1.226   2.177   0.020  0.00  0.00    +0.007 A 
ATOM     29  C   UNL     1      -1.247   3.558   0.033  0.00  0.00    +0.045 A 
ATOM     30  C   UNL     1      -0.056   4.269   0.025  0.00  0.00    +0.117 A 
ATOM     31  C   UNL     1       1.154   3.591   0.010  0.00  0.00    +0.045 A 
ATOM     32  C   UNL     1       1.170   2.209   0.003  0.00  0.00    +0.007 A 
BRANCH  30  33
ATOM     33  O   UNL     1      -0.074   5.628   0.033  0.00  0.00    -0.507 OA
ATOM     34  H   UNL     1      -0.088   6.026  -0.848  0.00  0.00    +0.292 HD
ENDBRANCH  30  33
ENDBRANCH  26  27
ENDBRANCH   1  26
TORSDOF 7
