REMARK  Name = ZINC15419663
REMARK  6 active torsions:
REMARK  status: ('A' for Active; 'I' for Inactive)
REMARK    1  A    between atoms: C_6  and  C_7
REMARK    2  A    between atoms: C_7  and  C_8
REMARK    3  A    between atoms: C_7  and  N_15
REMARK    4  A    between atoms: N_18  and  C_21
REMARK    5  A    between atoms: C_21  and  C_22
REMARK    6  A    between atoms: C_24  and  N_32
REMARK                            x       y       z     vdW  Elec       q    Type
REMARK                         _______ _______ _______ _____ _____    ______ ____
ROOT
ATOM      1  N   UNL     1       1.365   1.594  -0.002  0.00  0.00    -0.295 NA
ATOM      2  C   UNL     1       2.057   1.215  -1.242  0.00  0.00    +0.067 C 
ATOM      3  C   UNL     1       3.459   1.829  -1.249  0.00  0.00    -0.063 C 
ATOM      4  N   UNL     1       4.202   1.361  -0.071  0.00  0.00    +0.384 N 
ATOM      5  C   UNL     1       3.510   1.741   1.169  0.00  0.00    -0.063 C 
ATOM      6  C   UNL     1       2.108   1.127   1.176  0.00  0.00    +0.067 C 
ATOM      7  H   UNL     1       4.248   0.263  -0.112  0.00  0.00    -0.081 HD
ENDROOT
BRANCH   1   8
ATOM      8  C   UNL     1      -0.013   1.086   0.008  0.00  0.00    +0.117 C 
BRANCH   8  14
ATOM      9  C   UNL     1      -0.551   2.883  -1.648  0.00  0.00    +0.008 A 
ATOM     10  C   UNL     1      -1.215   3.341  -2.771  0.00  0.00    +0.038 A 
ATOM     11  C   UNL     1      -2.080   2.501  -3.453  0.00  0.00    +0.123 A 
ATOM     12  C   UNL     1      -2.274   1.203  -3.013  0.00  0.00    +0.038 A 
ATOM     13  C   UNL     1      -1.605   0.746  -1.893  0.00  0.00    +0.008 A 
ATOM     14  C   UNL     1      -0.742   1.585  -1.213  0.00  0.00    -0.026 A 
ATOM     15  F   UNL     1      -2.733   2.949  -4.547  0.00  0.00    -0.205 F 
ENDBRANCH   8  14
BRANCH   8  16
ATOM     16  C   UNL     1      -0.718   1.572   1.248  0.00  0.00    -0.026 A 
ATOM     17  C   UNL     1      -0.510   2.862   1.700  0.00  0.00    +0.008 A 
ATOM     18  C   UNL     1      -1.160   3.310   2.834  0.00  0.00    +0.038 A 
ATOM     19  C   UNL     1      -2.012   2.463   3.524  0.00  0.00    +0.123 A 
ATOM     20  C   UNL     1      -2.215   1.170   3.073  0.00  0.00    +0.038 A 
ATOM     21  C   UNL     1      -1.568   0.726   1.935  0.00  0.00    +0.008 A 
ATOM     22  F   UNL     1      -2.644   2.899   4.635  0.00  0.00    -0.205 F 
ENDBRANCH   8  16
ENDBRANCH   1   8
BRANCH   4  23
ATOM     23  C   UNL     1       5.580   1.870  -0.081  0.00  0.00    -0.039 C 
BRANCH  23  24
ATOM     24  C   UNL     1       6.176   1.679  -1.452  0.00  0.00    -0.020 A 
ATOM     25  C   UNL     1       7.021   0.614  -1.696  0.00  0.00    +0.038 A 
ATOM     26  C   UNL     1       7.568   0.439  -2.954  0.00  0.00    +0.127 A 
ATOM     27  C   UNL     1       7.271   1.329  -3.969  0.00  0.00    +0.042 A 
ATOM     28  C   UNL     1       6.426   2.397  -3.730  0.00  0.00    +0.022 A 
ATOM     29  C   UNL     1       5.870   2.570  -2.472  0.00  0.00    +0.130 A 
ATOM     30  O   UNL     1       5.036   3.615  -2.223  0.00  0.00    -0.466 OA
ATOM     31  C   UNL     1       5.043   4.689  -3.168  0.00  0.00    +0.394 C 
ATOM     32  O   UNL     1       4.962   4.137  -4.488  0.00  0.00    -0.339 OA
ATOM     33  C   UNL     1       6.112   3.364  -4.843  0.00  0.00    +0.202 C 
BRANCH  26  34
ATOM     34  N   UNL     1       8.472  -0.703  -3.214  0.00  0.00    +0.056 N 
ATOM     35  O   UNL     1       8.735  -1.488  -2.320  0.00  0.00    -0.126 OA
ATOM     36  O   UNL     1       8.955  -0.858  -4.321  0.00  0.00    -0.126 OA
ENDBRANCH  26  34
ENDBRANCH  23  24
ENDBRANCH   4  23
TORSDOF 6
