REMARK  Name = ZINC35746402
REMARK  16 active torsions:
REMARK  status: ('A' for Active; 'I' for Inactive)
REMARK    1  A    between atoms: C_1  and  C_2
REMARK    2  A    between atoms: C_5  and  C_9
REMARK    3  A    between atoms: C_6  and  C_8
REMARK    4  A    between atoms: C_18  and  C_20
REMARK    5  A    between atoms: C_20  and  N_21
REMARK    6  A    between atoms: N_21  and  C_22
REMARK    7  A    between atoms: N_21  and  C_29
REMARK    8  A    between atoms: C_22  and  C_23
REMARK    9  A    between atoms: C_29  and  C_30
REMARK   10  A    between atoms: C_30  and  C_32
REMARK   11  A    between atoms: C_30  and  O_38
REMARK   12  A    between atoms: C_32  and  O_33
REMARK   13  A    between atoms: O_33  and  C_34
REMARK   14  A    between atoms: C_34  and  C_35
REMARK   15  A    between atoms: C_35  and  C_36
REMARK   16  A    between atoms: C_35  and  C_37
REMARK                            x       y       z     vdW  Elec       q    Type
REMARK                         _______ _______ _______ _____ _____    ______ ____
ROOT
ATOM      1  C   UNL     1      -3.650  -7.658   2.107  0.00  0.00    -0.003 C 
ENDROOT
BRANCH   1  11
ATOM      2  C   UNL     1       1.263  -4.898   1.246  0.00  0.00    +0.004 A 
ATOM      3  C   UNL     1       2.236  -5.710   0.766  0.00  0.00    +0.056 A 
ATOM      4  S   UNL     1       1.429  -7.294   0.643  0.00  0.00    -0.076 S 
ATOM      5  C   UNL     1      -0.180  -6.835   1.233  0.00  0.00    +0.116 A 
ATOM      6  C   UNL     1      -0.053  -5.466   1.517  0.00  0.00    +0.080 A 
ATOM      7  C   UNL     1      -1.228  -4.826   2.025  0.00  0.00    +0.260 A 
ATOM      8  O   UNL     1      -1.218  -3.638   2.296  0.00  0.00    -0.267 OA
ATOM      9  N   UNL     1      -2.346  -5.556   2.197  0.00  0.00    -0.312 N 
ATOM     10  H   UNL     1      -3.145  -5.128   2.540  0.00  0.00    +0.170 HD
ATOM     11  C   UNL     1      -2.376  -6.880   1.899  0.00  0.00    +0.094 A 
ATOM     12  N   UNL     1      -1.322  -7.490   1.425  0.00  0.00    -0.229 NA
BRANCH   2  17
ATOM     13  C   UNL     1       2.306   0.680   2.219  0.00  0.00    +0.044 C 
ATOM     14  C   UNL     1       2.033  -0.780   1.964  0.00  0.00    -0.050 A 
ATOM     15  C   UNL     1       2.075  -1.274   0.672  0.00  0.00    +0.004 A 
ATOM     16  C   UNL     1       1.826  -2.610   0.433  0.00  0.00    +0.009 A 
ATOM     17  C   UNL     1       1.532  -3.462   1.496  0.00  0.00    -0.014 A 
ATOM     18  C   UNL     1       1.491  -2.959   2.796  0.00  0.00    -0.042 A 
ATOM     19  C   UNL     1       1.747  -1.622   3.023  0.00  0.00    +0.007 A 
ATOM     20  C   UNL     1       1.173  -3.874   3.950  0.00  0.00    +0.044 C 
ENDBRANCH   2  17
ENDBRANCH   1  11
BRANCH   1  21
ATOM     21  N   UNL     1      -3.486  -9.018   1.578  0.00  0.00    +0.389 N 
ATOM     22  H   UNL     1      -2.659  -9.437   1.978  0.00  0.00    -0.081 HD
BRANCH  21  23
ATOM     23  C   UNL     1      -3.348  -8.962   0.117  0.00  0.00    -0.042 C 
BRANCH  23  24
ATOM     24  C   UNL     1      -4.494  -8.176  -0.466  0.00  0.00    -0.064 A 
ATOM     25  C   UNL     1      -5.697  -8.803  -0.734  0.00  0.00    +0.002 A 
ATOM     26  C   UNL     1      -6.748  -8.082  -1.268  0.00  0.00    +0.000 A 
ATOM     27  C   UNL     1      -6.598  -6.734  -1.534  0.00  0.00    +0.000 A 
ATOM     28  C   UNL     1      -5.396  -6.107  -1.265  0.00  0.00    +0.000 A 
ATOM     29  C   UNL     1      -4.345  -6.827  -0.727  0.00  0.00    +0.002 A 
ENDBRANCH  23  24
ENDBRANCH  21  23
BRANCH  21  30
ATOM     30  C   UNL     1      -4.662  -9.825   1.928  0.00  0.00    -0.044 C 
BRANCH  30  31
ATOM     31  C   UNL     1      -4.289 -11.309   1.903  0.00  0.00    +0.124 C 
BRANCH  31  32
ATOM     32  O   UNL     1      -3.852 -11.668   0.591  0.00  0.00    -0.391 OA
ATOM     33  H   UNL     1      -4.515 -11.522  -0.098  0.00  0.00    +0.210 HD
ENDBRANCH  31  32
BRANCH  31  34
ATOM     34  C   UNL     1      -5.511 -12.149   2.282  0.00  0.00    +0.189 C 
BRANCH  34  35
ATOM     35  O   UNL     1      -5.134 -13.524   2.372  0.00  0.00    -0.377 OA
BRANCH  35  36
ATOM     36  C   UNL     1      -6.208 -14.399   2.722  0.00  0.00    +0.163 C 
BRANCH  36  37
ATOM     37  C   UNL     1      -5.692 -15.838   2.789  0.00  0.00    +0.009 C 
ATOM     38  C   UNL     1      -4.679 -15.964   3.928  0.00  0.00    +0.009 C 
ATOM     39  C   UNL     1      -6.864 -16.789   3.040  0.00  0.00    +0.009 C 
ENDBRANCH  36  37
ENDBRANCH  35  36
ENDBRANCH  34  35
ENDBRANCH  31  34
ENDBRANCH  30  31
ENDBRANCH  21  30
ENDBRANCH   1  21
TORSDOF 12
