REMARK  Name = ZINC63139135
REMARK  6 active torsions:
REMARK  status: ('A' for Active; 'I' for Inactive)
REMARK    1  A    between atoms: C_1  and  C_2
REMARK    2  A    between atoms: C_2  and  C_3
REMARK    3  A    between atoms: C_2  and  C_4
REMARK    4  A    between atoms: C_7  and  C_10
REMARK    5  A    between atoms: N_29  and  C_32
REMARK    6  A    between atoms: C_32  and  C_33
REMARK                            x       y       z     vdW  Elec       q    Type
REMARK                         _______ _______ _______ _____ _____    ______ ____
ROOT
ATOM      1  C   UNL     1       2.707  -1.868  -4.752  0.00  0.00    +0.133 C 
ATOM      2  C   UNL     1       3.902  -0.958  -5.035  0.00  0.00    +0.131 C 
ATOM      3  C   UNL     1       4.971  -1.347  -4.017  0.00  0.00    -0.034 C 
ATOM      4  C   UNL     1       5.213  -0.269  -3.285  0.00  0.00    -0.001 A 
ATOM      5  C   UNL     1       6.155  -0.025  -2.179  0.00  0.00    +0.010 A 
ATOM      6  C   UNL     1       6.138   1.223  -1.641  0.00  0.00    +0.001 A 
ATOM      7  C   UNL     1       5.290   2.241  -2.087  0.00  0.00    +0.002 A 
ATOM      8  C   UNL     1       4.394   2.106  -3.097  0.00  0.00    +0.026 A 
ATOM      9  C   UNL     1       4.319   0.838  -3.743  0.00  0.00    +0.043 A 
ATOM     10  N   UNL     1       3.562   0.441  -4.747  0.00  0.00    -0.375 N 
ATOM     11  C   UNL     1       5.525  -2.745  -3.963  0.00  0.00    +0.065 C 
ATOM     12  C   UNL     1       4.412  -3.743  -4.152  0.00  0.00    +0.167 C 
ATOM     13  N   UNL     1       3.113  -3.252  -4.554  0.00  0.00    -0.279 N 
ATOM     14  C   UNL     1       2.147  -4.215  -4.718  0.00  0.00    +0.234 C 
ATOM     15  O   UNL     1       1.036  -3.938  -5.118  0.00  0.00    -0.274 OA
ATOM     16  C   UNL     1       2.534  -5.638  -4.376  0.00  0.00    +0.204 C 
ATOM     17  N   UNL     1       3.284  -5.626  -3.107  0.00  0.00    -0.287 N 
ATOM     18  C   UNL     1       4.258  -4.683  -2.982  0.00  0.00    +0.237 C 
ATOM     19  O   UNL     1       4.958  -4.605  -1.995  0.00  0.00    -0.274 OA
ATOM     20  H   UNL     1       2.896   0.969  -5.214  0.00  0.00    +0.160 HD
ENDROOT
BRANCH   1  24
ATOM     21  C   UNL     1       0.707  -0.490  -1.238  0.00  0.00    -0.045 A 
ATOM     22  C   UNL     1       0.222  -0.151  -2.487  0.00  0.00    +0.004 A 
ATOM     23  C   UNL     1       0.869  -0.597  -3.624  0.00  0.00    +0.006 A 
ATOM     24  C   UNL     1       2.002  -1.381  -3.513  0.00  0.00    -0.025 A 
ATOM     25  C   UNL     1       2.488  -1.720  -2.263  0.00  0.00    +0.006 A 
ATOM     26  C   UNL     1       1.843  -1.270  -1.126  0.00  0.00    +0.004 A 
BRANCH  21  28
ATOM     27  C   UNL     1      -0.019   1.526   0.010  0.00  0.00    +0.012 C 
ATOM     28  C   UNL     1       0.002  -0.004   0.002  0.00  0.00    +0.013 C 
ATOM     29  C   UNL     1      -1.433  -0.534   0.013  0.00  0.00    +0.012 C 
ENDBRANCH  21  28
ENDBRANCH   1  24
BRANCH  17  30
ATOM     30  C   UNL     1       2.996  -6.580  -2.033  0.00  0.00    +0.143 C 
BRANCH  30  31
ATOM     31  C   UNL     1       3.844  -7.813  -2.216  0.00  0.00    -0.030 A 
ATOM     32  C   UNL     1       3.373  -8.868  -2.975  0.00  0.00    +0.008 A 
ATOM     33  C   UNL     1       4.149  -9.999  -3.144  0.00  0.00    +0.038 A 
ATOM     34  C   UNL     1       5.399 -10.075  -2.553  0.00  0.00    +0.123 A 
ATOM     35  C   UNL     1       5.869  -9.017  -1.793  0.00  0.00    +0.038 A 
ATOM     36  C   UNL     1       5.093  -7.885  -1.630  0.00  0.00    +0.008 A 
ATOM     37  F   UNL     1       6.159 -11.180  -2.717  0.00  0.00    -0.205 F 
ENDBRANCH  30  31
ENDBRANCH  17  30
TORSDOF 4
