REMARK  Name = ZINC55587519
REMARK  4 active torsions:
REMARK  status: ('A' for Active; 'I' for Inactive)
REMARK    1  A    between atoms: C_1  and  C_2
REMARK    2  A    between atoms: C_7  and  S_8
REMARK    3  A    between atoms: S_8  and  N_11
REMARK    4  A    between atoms: N_11  and  C_12
REMARK                            x       y       z     vdW  Elec       q    Type
REMARK                         _______ _______ _______ _____ _____    ______ ____
ROOT
ATOM      1  C   UNL     1       1.729   1.808   3.922  0.00  0.00    +0.075 A 
ATOM      2  C   UNL     1       0.810   1.882   4.969  0.00  0.00    +0.029 A 
ATOM      3  C   UNL     1       1.062   2.649   6.070  0.00  0.00    +0.030 A 
ATOM      4  C   UNL     1       2.254   3.372   6.158  0.00  0.00    +0.078 A 
ATOM      5  C   UNL     1       3.187   3.301   5.101  0.00  0.00    +0.067 A 
ATOM      6  C   UNL     1       2.920   2.511   3.986  0.00  0.00    +0.042 A 
ATOM      7  C   UNL     1       4.428   4.077   5.229  0.00  0.00    +0.262 A 
ATOM      8  O   UNL     1       5.272   4.059   4.353  0.00  0.00    -0.267 OA
ATOM      9  N   UNL     1       4.602   4.814   6.356  0.00  0.00    -0.296 N 
ATOM     10  C   UNL     1       3.652   4.824   7.330  0.00  0.00    +0.113 A 
ATOM     11  N   UNL     1       2.542   4.143   7.233  0.00  0.00    -0.234 NA
ATOM     12  C   UNL     1       4.107   5.717   8.473  0.00  0.00    +0.076 C 
ATOM     13  C   UNL     1       5.624   5.891   8.244  0.00  0.00    +0.029 C 
ATOM     14  C   UNL     1       5.742   5.673   6.722  0.00  0.00    +0.127 C 
ENDROOT
BRANCH   1  15
ATOM     15  N   UNL     1       1.449   1.015   2.806  0.00  0.00    -0.098 NA
BRANCH  15  16
ATOM     16  S   UNL     1       0.025   0.172   2.726  0.00  0.00    +0.092 S 
ATOM     17  O   UNL     1      -1.014   1.137   2.644  0.00  0.00    -0.148 OA
ATOM     18  O   UNL     1       0.076  -0.809   3.753  0.00  0.00    -0.148 OA
BRANCH  16  25
ATOM     19  C   UNL     1      -0.018   1.503   0.010  0.00  0.00    +0.046 C 
ATOM     20  C   UNL     1       0.002  -0.004   0.002  0.00  0.00    -0.022 A 
ATOM     21  C   UNL     1       0.006  -0.689  -1.199  0.00  0.00    +0.025 A 
ATOM     22  C   UNL     1       0.025  -2.072  -1.206  0.00  0.00    +0.041 A 
ATOM     23  C   UNL     1       0.041  -2.769  -0.011  0.00  0.00    +0.022 A 
ATOM     24  C   UNL     1       0.037  -2.084   1.188  0.00  0.00    +0.030 A 
ATOM     25  C   UNL     1       0.023  -0.701   1.195  0.00  0.00    +0.113 A 
ATOM     26 CL   UNL     1       0.029  -2.932  -2.714  0.00  0.00    -0.084 Cl
ENDBRANCH  16  25
ENDBRANCH  15  16
ENDBRANCH   1  15
TORSDOF 3
