REMARK  Name = ZINC08790985
REMARK  6 active torsions:
REMARK  status: ('A' for Active; 'I' for Inactive)
REMARK    1  A    between atoms: C_1  and  C_2
REMARK    2  A    between atoms: C_16  and  C_18
REMARK    3  A    between atoms: C_18  and  C_19
REMARK    4  A    between atoms: N_27  and  C_30
REMARK    5  A    between atoms: C_30  and  C_31
REMARK    6  A    between atoms: C_31  and  C_32
REMARK                            x       y       z     vdW  Elec       q    Type
REMARK                         _______ _______ _______ _____ _____    ______ ____
ROOT
ATOM      1  C   UNL     1       3.050   3.711  -0.011  0.00  0.00    +0.046 C 
ATOM      2  C   UNL     1       1.613   3.257   0.003  0.00  0.00    -0.028 A 
ATOM      3  C   UNL     1       0.597   4.190   0.018  0.00  0.00    +0.025 A 
ATOM      4  C   UNL     1      -0.725   3.783   0.030  0.00  0.00    +0.042 A 
ATOM      5  C   UNL     1      -1.030   2.432   0.030  0.00  0.00    +0.024 A 
ATOM      6  C   UNL     1      -0.018   1.498   0.010  0.00  0.00    -0.026 A 
ATOM      7  C   UNL     1       1.315   1.897  -0.000  0.00  0.00    +0.039 A 
ATOM      8  N   UNL     1       2.153   0.779  -0.013  0.00  0.00    -0.286 N 
ATOM      9  C   UNL     1       1.460  -0.376  -0.009  0.00  0.00    +0.211 C 
ATOM     10  O   UNL     1       1.921  -1.498  -0.015  0.00  0.00    -0.277 OA
ATOM     11  C   UNL     1       0.002  -0.004   0.002  0.00  0.00    +0.050 C 
ATOM     12  C   UNL     1      -0.716  -0.584   1.226  0.00  0.00    +0.088 C 
ATOM     13  C   UNL     1      -1.412  -1.870   0.700  0.00  0.00    +0.073 C 
ATOM     14  C   UNL     1      -1.022  -1.948  -0.792  0.00  0.00    -0.053 C 
ATOM     15  C   UNL     1      -0.726  -2.989   1.451  0.00  0.00    +0.224 C 
ATOM     16  O   UNL     1      -0.981  -4.168   1.337  0.00  0.00    -0.275 OA
ATOM     17  N   UNL     1       0.206  -2.474   2.260  0.00  0.00    -0.241 N 
ATOM     18  C   UNL     1       0.307  -1.140   2.215  0.00  0.00    +0.225 C 
ATOM     19  O   UNL     1       1.085  -0.474   2.864  0.00  0.00    -0.275 OA
ATOM     20 CL   UNL     1      -1.999   4.962   0.051  0.00  0.00    -0.084 Cl
ATOM     21  H   UNL     1       3.122   0.828  -0.023  0.00  0.00    +0.155 HD
ATOM     22  N   UNL     1      -0.693  -0.565  -1.144  0.00  0.00    +0.394 N 
ATOM     23  H   UNL     1      -0.086  -0.544  -1.972  0.00  0.00    -0.083 HD
ATOM     24  H   UNL     1      -1.550  -0.033  -1.335  0.00  0.00    -0.083 HD
ENDROOT
BRANCH  14  25
ATOM     25  C   UNL     1      -2.194  -2.472  -1.625  0.00  0.00    +0.020 C 
BRANCH  25  26
ATOM     26  C   UNL     1      -1.775  -2.584  -3.068  0.00  0.00    -0.049 A 
ATOM     27  C   UNL     1      -1.952  -1.514  -3.924  0.00  0.00    +0.003 A 
ATOM     28  C   UNL     1      -1.564  -1.615  -5.247  0.00  0.00    +0.000 A 
ATOM     29  C   UNL     1      -1.006  -2.790  -5.715  0.00  0.00    +0.000 A 
ATOM     30  C   UNL     1      -0.833  -3.862  -4.860  0.00  0.00    +0.000 A 
ATOM     31  C   UNL     1      -1.218  -3.759  -3.536  0.00  0.00    +0.003 A 
ENDBRANCH  25  26
ENDBRANCH  14  25
BRANCH  17  32
ATOM     32  C   UNL     1       1.049  -3.303   3.126  0.00  0.00    +0.121 C 
BRANCH  32  33
ATOM     33  C   UNL     1       2.320  -3.700   2.371  0.00  0.00    +0.054 C 
BRANCH  33  34
ATOM     34  C   UNL     1       3.187  -4.553   3.261  0.00  0.00    -0.046 A 
ATOM     35  C   UNL     1       4.137  -3.961   4.072  0.00  0.00    +0.004 A 
ATOM     36  C   UNL     1       4.929  -4.743   4.892  0.00  0.00    +0.000 A 
ATOM     37  C   UNL     1       4.778  -6.117   4.894  0.00  0.00    +0.000 A 
ATOM     38  C   UNL     1       3.831  -6.709   4.079  0.00  0.00    +0.000 A 
ATOM     39  C   UNL     1       3.035  -5.927   3.263  0.00  0.00    +0.004 A 
ENDBRANCH  33  34
ENDBRANCH  32  33
ENDBRANCH  17  32
TORSDOF 5
