REMARK  Name = ZINC29974260
REMARK  12 active torsions:
REMARK  status: ('A' for Active; 'I' for Inactive)
REMARK    1  A    between atoms: C_1  and  C_2
REMARK    2  A    between atoms: C_7  and  N_8
REMARK    3  A    between atoms: C_9  and  C_11
REMARK    4  A    between atoms: C_11  and  N_12
REMARK    5  A    between atoms: N_12  and  C_13
REMARK    6  A    between atoms: N_12  and  C_14
REMARK    7  A    between atoms: C_14  and  C_16
REMARK    8  A    between atoms: C_14  and  C_17
REMARK    9  A    between atoms: C_19  and  C_22
REMARK   10  A    between atoms: C_22  and  C_23
REMARK   11  A    between atoms: C_22  and  C_24
REMARK   12  A    between atoms: C_22  and  C_25
REMARK                            x       y       z     vdW  Elec       q    Type
REMARK                         _______ _______ _______ _____ _____    ______ ____
ROOT
ATOM      1  N   UNL     1      -4.840   1.165  -0.284  0.00  0.00    +0.391 N 
ATOM      2  C   UNL     1      -4.991   0.392   0.956  0.00  0.00    -0.094 C 
ATOM      3  H   UNL     1      -4.607   0.460  -1.096  0.00  0.00    -0.080 HD
ENDROOT
BRANCH   1   4
ATOM      4  C   UNL     1      -6.089   1.856  -0.630  0.00  0.00    +0.019 C 
ATOM      5  C   UNL     1      -7.198   0.825  -0.848  0.00  0.00    -0.003 C 
BRANCH   4   6
ATOM      6  C   UNL     1      -5.890   2.654  -1.892  0.00  0.00    +0.214 A 
ATOM      7  N   UNL     1      -6.208   3.912  -2.079  0.00  0.00    -0.197 NA
ATOM      8  C   UNL     1      -5.848   4.193  -3.344  0.00  0.00    +0.177 A 
ATOM      9  N   UNL     1      -5.344   3.109  -3.855  0.00  0.00    -0.061 NA
ATOM     10  O   UNL     1      -5.359   2.213  -3.037  0.00  0.00    -0.340 OA
BRANCH   8  11
ATOM     11  C   UNL     1      -6.004   5.519  -4.043  0.00  0.00    +0.025 C 
ATOM     12  C   UNL     1      -5.474   5.407  -5.474  0.00  0.00    +0.019 C 
ATOM     13  C   UNL     1      -7.484   5.907  -4.076  0.00  0.00    +0.019 C 
ATOM     14  C   UNL     1      -5.213   6.589  -3.288  0.00  0.00    +0.019 C 
ENDBRANCH   8  11
ENDBRANCH   4   6
ENDBRANCH   1   4
BRANCH   1  15
ATOM     15  C   UNL     1      -3.724   2.116  -0.179  0.00  0.00    +0.020 C 
BRANCH  15  17
ATOM     16  N   UNL     1      -1.262   2.027   0.038  0.00  0.00    -0.287 N 
ATOM     17  C   UNL     1      -2.427   1.357  -0.069  0.00  0.00    +0.201 C 
ATOM     18  O   UNL     1      -2.430   0.145  -0.077  0.00  0.00    -0.278 OA
ATOM     19  H   UNL     1      -1.264   3.124   0.118  0.00  0.00    +0.155 HD
BRANCH  16  26
ATOM     20  C   UNL     1       1.000   3.236  -1.195  0.00  0.00    +0.046 C 
ATOM     21  C   UNL     1       1.077   1.878  -0.544  0.00  0.00    -0.028 A 
ATOM     22  C   UNL     1       2.270   1.182  -0.538  0.00  0.00    +0.020 A 
ATOM     23  C   UNL     1       2.342  -0.064   0.059  0.00  0.00    +0.018 A 
ATOM     24  C   UNL     1       1.220  -0.616   0.651  0.00  0.00    +0.017 A 
ATOM     25  C   UNL     1       0.025   0.075   0.647  0.00  0.00    +0.024 A 
ATOM     26  C   UNL     1      -0.050   1.327   0.049  0.00  0.00    +0.036 A 
ATOM     27 BR   UNL     1       3.977  -1.014   0.067  0.00  0.00    -0.050 Br
ENDBRANCH  16  26
ENDBRANCH  15  17
ENDBRANCH   1  15
TORSDOF 6
