REMARK  Name = ZINC11882292
REMARK  7 active torsions:
REMARK  status: ('A' for Active; 'I' for Inactive)
REMARK    1  A    between atoms: C_6  and  C_7
REMARK    2  A    between atoms: C_7  and  C_8
REMARK    3  A    between atoms: C_8  and  C_14
REMARK    4  A    between atoms: C_14  and  C_15
REMARK    5  A    between atoms: C_15  and  C_16
REMARK    6  A    between atoms: C_23  and  C_24
REMARK    7  A    between atoms: C_23  and  N_64
REMARK                            x       y       z     vdW  Elec       q    Type
REMARK                         _______ _______ _______ _____ _____    ______ ____
ROOT
ATOM      1  C   UNL     1      -2.798   1.891   2.608  0.00  0.00    +0.216 C 
ATOM      2  O   UNL     1      -2.214   2.649   3.353  0.00  0.00    -0.276 OA
ATOM      3  N   UNL     1      -4.056   1.500   2.895  0.00  0.00    -0.305 N 
ATOM      4  C   UNL     1      -4.784   0.586   2.002  0.00  0.00    +0.089 C 
ATOM      5  C   UNL     1      -5.337  -0.573   2.846  0.00  0.00    -0.059 C 
ATOM      6  C   UNL     1      -5.295   0.772   4.863  0.00  0.00    -0.059 C 
ATOM      7  C   UNL     1      -4.738   1.982   4.105  0.00  0.00    +0.089 C 
ATOM      8  N   UNL     1      -6.151  -0.011   3.946  0.00  0.00    +0.384 N 
ATOM      9  H   UNL     1      -6.866   0.609   3.547  0.00  0.00    -0.081 HD
ENDROOT
BRANCH   1  10
ATOM     10  C   UNL     1      -2.117   1.385   1.362  0.00  0.00    +0.098 C 
BRANCH  10  11
ATOM     11  C   UNL     1      -0.709   1.977   1.275  0.00  0.00    +0.035 C 
BRANCH  11  12
ATOM     12  C   UNL     1      -0.018   1.463   0.010  0.00  0.00    +0.039 C 
ATOM     13  C   UNL     1       1.465   1.896  -0.002  0.00  0.00    +0.035 C 
ATOM     14  C   UNL     1       2.144   0.675  -0.664  0.00  0.00    +0.098 C 
ATOM     15  C   UNL     1       1.203  -0.474  -0.379  0.00  0.00    +0.214 C 
ATOM     16  O   UNL     1       1.489  -1.648  -0.478  0.00  0.00    -0.276 OA
ATOM     17  N   UNL     1       0.002  -0.004   0.002  0.00  0.00    -0.309 N 
ATOM     18  H   UNL     1      -0.754  -0.563   0.241  0.00  0.00    +0.149 HD
BRANCH  12  19
ATOM     19  C   UNL     1      -0.733   1.990  -1.236  0.00  0.00    +0.061 C 
BRANCH  19  25
ATOM     20  C   UNL     1       0.955   2.057  -3.083  0.00  0.00    +0.005 A 
ATOM     21  C   UNL     1       1.544   1.516  -4.210  0.00  0.00    +0.020 A 
ATOM     22  C   UNL     1       1.075   0.322  -4.729  0.00  0.00    +0.041 A 
ATOM     23  C   UNL     1       0.020  -0.331  -4.116  0.00  0.00    +0.020 A 
ATOM     24  C   UNL     1      -0.564   0.208  -2.986  0.00  0.00    +0.005 A 
ATOM     25  C   UNL     1      -0.095   1.401  -2.468  0.00  0.00    -0.045 A 
ATOM     26 CL   UNL     1       1.809  -0.355  -6.149  0.00  0.00    -0.084 Cl
ENDBRANCH  19  25
ENDBRANCH  12  19
ENDBRANCH  11  12
ENDBRANCH  10  11
ENDBRANCH   1  10
BRANCH   8  27
ATOM     27  C   UNL     1      -6.820  -1.101   4.686  0.00  0.00    -0.043 C 
BRANCH  27  28
ATOM     28  C   UNL     1      -7.463  -2.043   3.702  0.00  0.00    -0.060 A 
ATOM     29  C   UNL     1      -8.760  -1.819   3.279  0.00  0.00    +0.005 A 
ATOM     30  C   UNL     1      -9.353  -2.677   2.372  0.00  0.00    +0.050 A 
ATOM     31  C   UNL     1      -8.652  -3.773   1.895  0.00  0.00    +0.166 A 
ATOM     32  C   UNL     1      -7.348  -4.003   2.325  0.00  0.00    +0.166 A 
ATOM     33  C   UNL     1      -6.758  -3.134   3.229  0.00  0.00    +0.051 A 
ATOM     34  O   UNL     1      -6.880  -5.131   1.717  0.00  0.00    -0.453 OA
ATOM     35  C   UNL     1      -8.048  -5.816   1.226  0.00  0.00    +0.466 C 
ATOM     36  O   UNL     1      -9.002  -4.758   1.016  0.00  0.00    -0.453 OA
ENDBRANCH  27  28
ENDBRANCH   8  27
TORSDOF 7
