REMARK  Name = ZINC34708233
REMARK  8 active torsions:
REMARK  status: ('A' for Active; 'I' for Inactive)
REMARK    1  A    between atoms: C_1  and  C_2
REMARK    2  A    between atoms: C_6  and  C_8
REMARK    3  A    between atoms: C_12  and  O_27
REMARK    4  A    between atoms: C_19  and  C_21
REMARK    5  A    between atoms: O_27  and  C_28
REMARK    6  A    between atoms: C_28  and  C_30
REMARK    7  A    between atoms: C_28  and  C_31
REMARK    8  A    between atoms: N_33  and  C_34
REMARK                            x       y       z     vdW  Elec       q    Type
REMARK                         _______ _______ _______ _____ _____    ______ ____
ROOT
ATOM      1  C   UNL     1      -0.318  -2.931   2.824  0.00  0.00    +0.137 C 
ATOM      2  C   UNL     1      -1.577  -3.529   3.401  0.00  0.00    -0.016 A 
ATOM      3  C   UNL     1      -2.489  -2.667   3.993  0.00  0.00    +0.051 A 
ATOM      4  C   UNL     1      -3.668  -3.155   4.531  0.00  0.00    +0.122 A 
ATOM      5  C   UNL     1      -3.937  -4.515   4.473  0.00  0.00    +0.046 A 
ATOM      6  C   UNL     1      -3.027  -5.368   3.888  0.00  0.00    +0.007 A 
ATOM      7  C   UNL     1      -1.840  -4.880   3.353  0.00  0.00    -0.040 A 
ATOM      8  C   UNL     1      -0.884  -5.877   2.754  0.00  0.00    +0.054 C 
ATOM      9  C   UNL     1       0.099  -5.188   1.808  0.00  0.00    +0.113 C 
ATOM     10  N   UNL     1       0.630  -4.000   2.496  0.00  0.00    -0.286 N 
ATOM     11  C   UNL     1       1.937  -3.899   2.810  0.00  0.00    +0.247 C 
ATOM     12  O   UNL     1       2.719  -4.753   2.440  0.00  0.00    -0.270 OA
ENDROOT
BRANCH   1  18
ATOM     13  C   UNL     1       0.157  -2.250  -2.111  0.00  0.00    +0.044 C 
ATOM     14  C   UNL     1      -0.428  -1.833  -0.786  0.00  0.00    -0.050 A 
ATOM     15  C   UNL     1      -1.275  -0.742  -0.717  0.00  0.00    +0.003 A 
ATOM     16  C   UNL     1      -1.811  -0.359   0.498  0.00  0.00    +0.001 A 
ATOM     17  C   UNL     1      -1.502  -1.068   1.644  0.00  0.00    +0.006 A 
ATOM     18  C   UNL     1      -0.656  -2.159   1.575  0.00  0.00    -0.022 A 
ATOM     19  C   UNL     1      -0.123  -2.544   0.359  0.00  0.00    +0.009 A 
ENDBRANCH   1  18
BRANCH  11  20
ATOM     20  C   UNL     1       2.419  -2.749   3.604  0.00  0.00    +0.037 A 
ATOM     21  C   UNL     1       3.293  -2.953   4.673  0.00  0.00    +0.013 A 
ATOM     22  C   UNL     1       3.740  -1.876   5.410  0.00  0.00    +0.001 A 
ATOM     23  C   UNL     1       3.324  -0.596   5.091  0.00  0.00    +0.000 A 
ATOM     24  C   UNL     1       2.458  -0.386   4.033  0.00  0.00    +0.001 A 
ATOM     25  C   UNL     1       2.008  -1.454   3.284  0.00  0.00    +0.013 A 
ENDBRANCH  11  20
BRANCH   4  26
ATOM     26  O   UNL     1      -4.557  -2.307   5.112  0.00  0.00    -0.480 OA
BRANCH  26  27
ATOM     27  C   UNL     1      -5.700  -2.893   5.738  0.00  0.00    +0.256 C 
ATOM     28  C   UNL     1      -6.791  -3.127   4.691  0.00  0.00    +0.062 C 
BRANCH  27  29
ATOM     29  C   UNL     1      -6.219  -1.966   6.806  0.00  0.00    +0.258 C 
ATOM     30  O   UNL     1      -5.722  -0.869   6.951  0.00  0.00    -0.271 OA
ATOM     31  N   UNL     1      -7.235  -2.355   7.601  0.00  0.00    -0.282 N 
ATOM     32  H   UNL     1      -7.595  -3.252   7.524  0.00  0.00    +0.155 HD
BRANCH  31  33
ATOM     33  C   UNL     1      -7.771  -1.465   8.538  0.00  0.00    +0.036 A 
ATOM     34  C   UNL     1      -8.249  -1.938   9.754  0.00  0.00    +0.023 A 
ATOM     35  C   UNL     1      -8.777  -1.058  10.678  0.00  0.00    +0.005 A 
ATOM     36  C   UNL     1      -8.831   0.294  10.395  0.00  0.00    +0.038 A 
ATOM     37  C   UNL     1      -8.355   0.771   9.185  0.00  0.00    +0.125 A 
ATOM     38  C   UNL     1      -7.820  -0.106   8.258  0.00  0.00    +0.061 A 
ATOM     39  F   UNL     1      -8.410   2.093   8.911  0.00  0.00    -0.205 F 
ENDBRANCH  31  33
ENDBRANCH  27  29
ENDBRANCH  26  27
ENDBRANCH   4  26
TORSDOF 6
