REMARK  Name = ZINC35888063
REMARK  14 active torsions:
REMARK  status: ('A' for Active; 'I' for Inactive)
REMARK    1  A    between atoms: C_1  and  C_2
REMARK    2  A    between atoms: C_2  and  C_3
REMARK    3  A    between atoms: C_2  and  C_4
REMARK    4  A    between atoms: C_4  and  N_5
REMARK    5  A    between atoms: N_5  and  C_6
REMARK    6  A    between atoms: C_6  and  C_7
REMARK    7  A    between atoms: N_10  and  C_22
REMARK    8  A    between atoms: C_12  and  C_14
REMARK    9  A    between atoms: C_17  and  O_20
REMARK   10  A    between atoms: O_20  and  C_21
REMARK   11  A    between atoms: C_22  and  C_23
REMARK   12  A    between atoms: C_28  and  O_29
REMARK   13  A    between atoms: O_29  and  C_30
REMARK   14  A    between atoms: C_31  and  C_33
REMARK                            x       y       z     vdW  Elec       q    Type
REMARK                         _______ _______ _______ _____ _____    ______ ____
ROOT
ATOM      1  C   UNL     1      -2.567  -3.050   1.706  0.00  0.00    -0.005 C 
ATOM      2  C   UNL     1      -3.464  -3.907   0.787  0.00  0.00    -0.073 C 
ATOM      3  N   UNL     1      -3.297  -5.295   1.292  0.00  0.00    +0.383 N 
ATOM      4  C   UNL     1      -3.261  -5.144   2.769  0.00  0.00    -0.070 C 
ATOM      5  C   UNL     1      -2.433  -3.861   3.011  0.00  0.00    +0.005 C 
ATOM      6  H   UNL     1      -2.432  -5.691   0.956  0.00  0.00    -0.081 HD
ENDROOT
BRANCH   5   7
ATOM      7  C   UNL     1      -2.998  -3.082   4.171  0.00  0.00    -0.046 A 
ATOM      8  C   UNL     1      -4.328  -2.704   4.167  0.00  0.00    +0.007 A 
ATOM      9  C   UNL     1      -4.847  -1.990   5.229  0.00  0.00    +0.046 A 
ATOM     10  C   UNL     1      -4.034  -1.653   6.301  0.00  0.00    +0.120 A 
ATOM     11  C   UNL     1      -2.700  -2.034   6.303  0.00  0.00    +0.046 A 
ATOM     12  C   UNL     1      -2.186  -2.752   5.241  0.00  0.00    +0.007 A 
BRANCH  10  13
ATOM     13  O   UNL     1      -4.543  -0.950   7.347  0.00  0.00    -0.495 OA
ATOM     14  C   UNL     1      -3.647  -0.637   8.416  0.00  0.00    +0.277 C 
ENDBRANCH  10  13
ENDBRANCH   5   7
BRANCH   1  15
ATOM     15  C   UNL     1      -1.193  -2.844   1.065  0.00  0.00    +0.110 C 
BRANCH  15  16
ATOM     16  N   UNL     1      -1.330  -2.001  -0.125  0.00  0.00    -0.297 N 
ATOM     17  C   UNL     1      -1.556  -2.564  -1.328  0.00  0.00    +0.249 C 
ATOM     18  O   UNL     1      -1.712  -3.767  -1.416  0.00  0.00    -0.270 OA
BRANCH  17  19
ATOM     19  C   UNL     1      -1.616  -1.721  -2.539  0.00  0.00    +0.072 A 
ATOM     20  C   UNL     1      -2.561  -0.698  -2.636  0.00  0.00    +0.016 A 
ATOM     21  C   UNL     1      -2.611   0.086  -3.769  0.00  0.00    +0.001 A 
ATOM     22  C   UNL     1      -1.728  -0.139  -4.811  0.00  0.00    +0.003 A 
ATOM     23  C   UNL     1      -0.789  -1.150  -4.726  0.00  0.00    +0.039 A 
ATOM     24  C   UNL     1      -0.723  -1.940  -3.592  0.00  0.00    +0.135 A 
ATOM     25  F   UNL     1       0.198  -2.925  -3.506  0.00  0.00    -0.205 F 
ENDBRANCH  17  19
BRANCH  16  26
ATOM     26  C   UNL     1      -1.221  -0.544  -0.007  0.00  0.00    +0.111 C 
BRANCH  26  28
ATOM     27  C   UNL     1       0.289   1.417  -0.346  0.00  0.00    +0.009 C 
ATOM     28  C   UNL     1       0.206  -0.110  -0.347  0.00  0.00    +0.000 C 
ATOM     29  C   UNL     1       1.172  -0.674   0.697  0.00  0.00    +0.009 C 
ENDBRANCH  26  28
ENDBRANCH  16  26
ENDBRANCH  15  16
ENDBRANCH   1  15
BRANCH   3  30
ATOM     30  C   UNL     1      -4.438  -6.128   0.888  0.00  0.00    -0.039 C 
BRANCH  30  31
ATOM     31  C   UNL     1      -4.189  -7.555   1.304  0.00  0.00    -0.022 A 
ATOM     32  C   UNL     1      -3.732  -8.475   0.380  0.00  0.00    +0.005 A 
ATOM     33  C   UNL     1      -3.505  -9.784   0.760  0.00  0.00    +0.000 A 
ATOM     34  C   UNL     1      -3.733 -10.177   2.067  0.00  0.00    +0.004 A 
ATOM     35  C   UNL     1      -4.189  -9.261   2.994  0.00  0.00    +0.046 A 
ATOM     36  C   UNL     1      -4.414  -7.945   2.616  0.00  0.00    +0.121 A 
BRANCH  36  37
ATOM     37  O   UNL     1      -4.857  -7.040   3.528  0.00  0.00    -0.495 OA
ATOM     38  C   UNL     1      -5.067  -7.512   4.861  0.00  0.00    +0.277 C 
ENDBRANCH  36  37
ENDBRANCH  30  31
ENDBRANCH   3  30
TORSDOF 10
