REMARK  Name = ZINC33864528
REMARK  7 active torsions:
REMARK  status: ('A' for Active; 'I' for Inactive)
REMARK    1  A    between atoms: C_1  and  C_2
REMARK    2  A    between atoms: C_2  and  C_3
REMARK    3  A    between atoms: C_2  and  C_4
REMARK    4  A    between atoms: C_2  and  C_5
REMARK    5  A    between atoms: C_8  and  C_11
REMARK    6  A    between atoms: N_20  and  S_21
REMARK    7  A    between atoms: S_21  and  C_24
REMARK                            x       y       z     vdW  Elec       q    Type
REMARK                         _______ _______ _______ _____ _____    ______ ____
ROOT
ATOM      1  C   UNL     1       2.245  -1.726  -5.311  0.00  0.00    +0.156 C 
ATOM      2  C   UNL     1       2.719  -2.994  -4.639  0.00  0.00    +0.042 A 
ATOM      3  C   UNL     1       1.973  -4.034  -4.234  0.00  0.00    +0.025 A 
ATOM      4  C   UNL     1       2.851  -4.985  -3.672  0.00  0.00    +0.019 A 
ATOM      5  C   UNL     1       4.100  -4.482  -3.756  0.00  0.00    +0.086 A 
ATOM      6  N   UNL     1       4.029  -3.257  -4.345  0.00  0.00    -0.348 N 
ATOM      7  C   UNL     1       5.145  -2.347  -4.625  0.00  0.00    +0.138 C 
ATOM      8  C   UNL     1       4.710  -1.324  -5.679  0.00  0.00    +0.132 C 
ATOM      9  N   UNL     1       3.386  -0.791  -5.325  0.00  0.00    -0.162 NA
ENDROOT
BRANCH   1  13
ATOM     10  C   UNL     1      -0.999  -0.035  -3.106  0.00  0.00    -0.042 A 
ATOM     11  C   UNL     1      -1.042  -0.061  -4.487  0.00  0.00    +0.004 A 
ATOM     12  C   UNL     1       0.008  -0.608  -5.201  0.00  0.00    +0.006 A 
ATOM     13  C   UNL     1       1.101  -1.128  -4.533  0.00  0.00    -0.023 A 
ATOM     14  C   UNL     1       1.144  -1.101  -3.151  0.00  0.00    +0.006 A 
ATOM     15  C   UNL     1       0.096  -0.550  -2.438  0.00  0.00    +0.004 A 
BRANCH  10  17
ATOM     16  C   UNL     1      -1.634   1.736  -1.490  0.00  0.00    +0.015 C 
ATOM     17  C   UNL     1      -2.144   0.562  -2.328  0.00  0.00    -0.013 C 
ATOM     18  C   UNL     1      -2.741  -0.502  -1.404  0.00  0.00    +0.015 C 
ATOM     19  C   UNL     1      -3.218   1.055  -3.299  0.00  0.00    +0.015 C 
ENDBRANCH  10  17
ENDBRANCH   1  13
BRANCH   9  20
ATOM     20  S   UNL     1       3.182   0.809  -4.951  0.00  0.00    +0.064 S 
ATOM     21  O   UNL     1       2.132   0.872  -3.996  0.00  0.00    -0.153 OA
ATOM     22  O   UNL     1       4.477   1.335  -4.696  0.00  0.00    -0.153 OA
BRANCH  20  23
ATOM     23  C   UNL     1       2.590   1.612  -6.404  0.00  0.00    +0.131 A 
ATOM     24  C   UNL     1       1.355   2.184  -6.413  0.00  0.00    +0.031 A 
ATOM     25  C   UNL     1       0.868   2.824  -7.550  0.00  0.00    +0.003 A 
ATOM     26  C   UNL     1       1.615   2.895  -8.687  0.00  0.00    +0.010 A 
ATOM     27  C   UNL     1       2.894   2.316  -8.713  0.00  0.00    +0.002 A 
ATOM     28  C   UNL     1       3.394   1.669  -7.555  0.00  0.00    +0.097 A 
ATOM     29  N   UNL     1       4.613   1.120  -7.574  0.00  0.00    -0.253 NA
ATOM     30  C   UNL     1       5.366   1.170  -8.646  0.00  0.00    +0.111 A 
ATOM     31  C   UNL     1       4.937   1.795  -9.815  0.00  0.00    +0.020 A 
ATOM     32  C   UNL     1       3.698   2.366  -9.867  0.00  0.00    +0.011 A 
ENDBRANCH  20  23
ENDBRANCH   9  20
TORSDOF 4
