REMARK  Name = ZINC34747762
REMARK  6 active torsions:
REMARK  status: ('A' for Active; 'I' for Inactive)
REMARK    1  A    between atoms: C_1  and  C_2
REMARK    2  A    between atoms: C_2  and  C_4
REMARK    3  A    between atoms: C_4  and  N_5
REMARK    4  A    between atoms: N_23  and  C_24
REMARK    5  A    between atoms: C_24  and  C_25
REMARK    6  A    between atoms: N_27  and  C_28
REMARK                            x       y       z     vdW  Elec       q    Type
REMARK                         _______ _______ _______ _____ _____    ______ ____
ROOT
ATOM      1  N   UNL     1      -0.994  -0.240   2.363  0.00  0.00    +0.384 N 
ATOM      2  C   UNL     1      -1.194  -0.194   3.817  0.00  0.00    -0.059 C 
ATOM      3  C   UNL     1      -2.509  -0.896   4.173  0.00  0.00    +0.089 C 
ATOM      4  N   UNL     1      -3.593  -0.281   3.392  0.00  0.00    -0.304 N 
ATOM      5  C   UNL     1      -3.405  -0.137   1.940  0.00  0.00    +0.089 C 
ATOM      6  C   UNL     1      -2.048   0.529   1.689  0.00  0.00    -0.059 C 
ATOM      7  C   UNL     1      -4.747   0.147   4.000  0.00  0.00    +0.202 A 
ATOM      8  N   UNL     1      -4.791   1.349   4.535  0.00  0.00    -0.208 NA
ATOM      9  C   UNL     1      -5.896   1.788   5.129  0.00  0.00    +0.117 A 
ATOM     10  C   UNL     1      -7.055   1.004   5.217  0.00  0.00    +0.076 A 
ATOM     11  C   UNL     1      -8.201   1.622   5.904  0.00  0.00    -0.023 A 
ATOM     12  C   UNL     1      -8.027   2.867   6.375  0.00  0.00    -0.004 A 
ATOM     13  S   UNL     1      -6.355   3.293   5.947  0.00  0.00    -0.073 S 
ATOM     14  C   UNL     1      -9.264   3.397   7.051  0.00  0.00    +0.043 C 
ATOM     15  C   UNL     1     -10.399   2.468   6.567  0.00  0.00    +0.010 C 
ATOM     16  C   UNL     1      -9.627   1.175   6.241  0.00  0.00    +0.037 C 
ATOM     17  C   UNL     1      -6.980  -0.296   4.627  0.00  0.00    +0.264 A 
ATOM     18  O   UNL     1      -7.941  -1.046   4.656  0.00  0.00    -0.267 OA
ATOM     19  N   UNL     1      -5.832  -0.678   4.036  0.00  0.00    -0.271 N 
ATOM     20  H   UNL     1      -1.028  -1.199   2.052  0.00  0.00    -0.081 HD
ENDROOT
BRANCH   1  21
ATOM     21  C   UNL     1       0.317   0.335   2.033  0.00  0.00    -0.048 C 
BRANCH  21  23
ATOM     22  C   UNL     1       1.862  -1.761   1.855  0.00  0.00    +0.036 C 
ATOM     23  C   UNL     1       1.406  -0.536   2.604  0.00  0.00    -0.096 C 
ATOM     24  C   UNL     1       1.956  -0.227   3.752  0.00  0.00    +0.005 C 
ENDBRANCH  21  23
ENDBRANCH   1  21
BRANCH  19  25
ATOM     25  C   UNL     1      -5.745  -2.007   3.425  0.00  0.00    +0.223 C 
BRANCH  25  26
ATOM     26  C   UNL     1      -5.383  -3.022   4.478  0.00  0.00    +0.233 C 
ATOM     27  O   UNL     1      -5.213  -2.670   5.626  0.00  0.00    -0.274 OA
ATOM     28  N   UNL     1      -5.247  -4.320   4.144  0.00  0.00    -0.311 N 
ATOM     29  H   UNL     1      -5.383  -4.601   3.225  0.00  0.00    +0.149 HD
BRANCH  28  30
ATOM     30  C   UNL     1      -4.894  -5.307   5.167  0.00  0.00    +0.073 C 
ATOM     31  C   UNL     1      -3.374  -5.344   5.338  0.00  0.00    +0.022 C 
ATOM     32  C   UNL     1      -3.006  -6.374   6.407  0.00  0.00    +0.002 C 
ATOM     33  C   UNL     1      -3.504  -7.755   5.978  0.00  0.00    +0.000 C 
ATOM     34  C   UNL     1      -5.024  -7.719   5.807  0.00  0.00    +0.002 C 
ATOM     35  C   UNL     1      -5.392  -6.688   4.737  0.00  0.00    +0.022 C 
ENDBRANCH  28  30
ENDBRANCH  25  26
ENDBRANCH  19  25
TORSDOF 5
