REMARK  Name = ZINC19404432
REMARK  1 active torsions:
REMARK  status: ('A' for Active; 'I' for Inactive)
REMARK    1  A    between atoms: C_5  and  C_6
REMARK                            x       y       z     vdW  Elec       q    Type
REMARK                         _______ _______ _______ _____ _____    ______ ____
ROOT
ATOM      1  C   UNL     1      -2.507  -0.564   0.023  0.00  0.00    +0.024 A 
ATOM      2  C   UNL     1      -3.466  -1.583   0.027  0.00  0.00    -0.036 A 
ATOM      3  C   UNL     1      -3.002  -2.859   0.018  0.00  0.00    -0.006 A 
ATOM      4  S   UNL     1      -1.233  -2.675  -0.007  0.00  0.00    -0.088 S 
ATOM      5  C   UNL     1      -1.171  -0.891   0.009  0.00  0.00    +0.076 A 
ATOM      6  C   UNL     1      -4.116  -3.866   0.027  0.00  0.00    +0.043 C 
ATOM      7  C   UNL     1      -5.358  -3.068   0.480  0.00  0.00    +0.010 C 
ATOM      8  C   UNL     1      -4.996  -1.637   0.036  0.00  0.00    +0.036 C 
ENDROOT
BRANCH   5   9
ATOM      9  C   UNL     1       0.002  -0.004   0.002  0.00  0.00    +0.257 A 
ATOM     10  N   UNL     1      -0.016   1.309   0.009  0.00  0.00    -0.105 NA
ATOM     11  N   UNL     1       1.192   1.752   0.000  0.00  0.00    -0.093 NA
ATOM     12  C   UNL     1       2.029   0.743  -0.013  0.00  0.00    +0.305 A 
ATOM     13  O   UNL     1       1.298  -0.389  -0.012  0.00  0.00    -0.404 OA
ATOM     14  N   UNL     1       3.408   0.825  -0.025  0.00  0.00    -0.312 N 
ATOM     15  H   UNL     1       4.014  -0.094  -0.036  0.00  0.00    +0.147 HD
ATOM     16  H   UNL     1       3.901   1.808  -0.024  0.00  0.00    +0.147 HD
ENDBRANCH   5   9
TORSDOF 1
