REMARK  Name = ZINC12908592
REMARK  10 active torsions:
REMARK  status: ('A' for Active; 'I' for Inactive)
REMARK    1  A    between atoms: C_1  and  C_2
REMARK    2  A    between atoms: C_2  and  C_3
REMARK    3  A    between atoms: C_2  and  C_4
REMARK    4  A    between atoms: C_4  and  C_6
REMARK    5  A    between atoms: C_4  and  N_29
REMARK    6  A    between atoms: N_8  and  C_9
REMARK    7  A    between atoms: C_9  and  C_10
REMARK    8  A    between atoms: C_10  and  C_12
REMARK    9  A    between atoms: C_10  and  C_19
REMARK   10  A    between atoms: C_30  and  C_32
REMARK                            x       y       z     vdW  Elec       q    Type
REMARK                         _______ _______ _______ _____ _____    ______ ____
ROOT
ATOM      1  C   UNL     1       2.478   4.125  -1.552  0.00  0.00    +0.117 C 
ENDROOT
BRANCH   1   4
ATOM      2  C   UNL     1       4.235   5.599  -2.377  0.00  0.00    +0.234 C 
ATOM      3  O   UNL     1       4.632   4.690  -3.075  0.00  0.00    -0.274 OA
ATOM      4  N   UNL     1       3.197   5.402  -1.540  0.00  0.00    -0.313 N 
ATOM      5  H   UNL     1       2.925   6.106  -0.930  0.00  0.00    +0.149 HD
BRANCH   2   6
ATOM      6  C   UNL     1       4.901   6.949  -2.446  0.00  0.00    +0.162 C 
BRANCH   6   7
ATOM      7  N   UNL     1       5.621   7.074  -3.716  0.00  0.00    -0.297 N 
ATOM      8  C   UNL     1       5.861   8.293  -4.238  0.00  0.00    +0.280 C 
ATOM      9  O   UNL     1       5.479   9.290  -3.655  0.00  0.00    -0.267 OA
ATOM     10  H   UNL     1       5.925   6.279  -4.181  0.00  0.00    +0.150 HD
BRANCH   8  11
ATOM     11  C   UNL     1       6.581   8.418  -5.510  0.00  0.00    +0.189 A 
ATOM     12  C   UNL     1       6.889   9.586  -6.146  0.00  0.00    +0.054 A 
ATOM     13  C   UNL     1       7.577   9.237  -7.319  0.00  0.00    +0.042 A 
ATOM     14  C   UNL     1       7.658   7.889  -7.346  0.00  0.00    +0.196 A 
ATOM     15  O   UNL     1       7.061   7.399  -6.252  0.00  0.00    -0.458 OA
ENDBRANCH   8  11
ENDBRANCH   6   7
BRANCH   6  17
ATOM     16  C   UNL     1       7.026   6.082  -1.457  0.00  0.00    +0.009 C 
ATOM     17  C   UNL     1       5.888   7.090  -1.285  0.00  0.00    +0.012 C 
ATOM     18  C   UNL     1       6.460   8.509  -1.273  0.00  0.00    +0.009 C 
ENDBRANCH   6  17
ENDBRANCH   2   6
ENDBRANCH   1   4
BRANCH   1  19
ATOM     19  C   UNL     1       1.354   4.164  -0.515  0.00  0.00    +0.069 C 
BRANCH  19  20
ATOM     20  C   UNL     1       0.539   2.900  -0.611  0.00  0.00    -0.013 A 
ATOM     21  C   UNL     1       0.987   1.646  -0.437  0.00  0.00    +0.088 A 
ATOM     22  N   UNL     1      -0.041   0.757  -0.602  0.00  0.00    -0.360 N 
ATOM     23  H   UNL     1       0.039  -0.207  -0.525  0.00  0.00    +0.165 HD
ATOM     24  C   UNL     1      -1.203   1.434  -0.898  0.00  0.00    +0.047 A 
ATOM     25  C   UNL     1      -0.892   2.806  -0.911  0.00  0.00    +0.003 A 
ATOM     26  C   UNL     1      -1.889   3.744  -1.184  0.00  0.00    +0.010 A 
ATOM     27  C   UNL     1      -3.166   3.323  -1.431  0.00  0.00    +0.001 A 
ATOM     28  C   UNL     1      -3.479   1.971  -1.414  0.00  0.00    +0.002 A 
ATOM     29  C   UNL     1      -2.510   1.029  -1.147  0.00  0.00    +0.026 A 
ENDBRANCH  19  20
BRANCH  19  30
ATOM     30  C   UNL     1       1.948   4.275   0.866  0.00  0.00    -0.020 A 
ATOM     31  C   UNL     1       2.795   3.289   1.335  0.00  0.00    +0.006 A 
ATOM     32  C   UNL     1       3.343   3.393   2.600  0.00  0.00    +0.000 A 
ATOM     33  C   UNL     1       3.036   4.478   3.400  0.00  0.00    +0.001 A 
ATOM     34  C   UNL     1       2.185   5.462   2.934  0.00  0.00    +0.020 A 
ATOM     35  C   UNL     1       1.640   5.361   1.666  0.00  0.00    +0.045 A 
ATOM     36 CL   UNL     1       0.570   6.596   1.079  0.00  0.00    -0.083 Cl
ENDBRANCH  19  30
ENDBRANCH   1  19
TORSDOF 8
