REMARK  Name = ZINC38999576
REMARK  8 active torsions:
REMARK  status: ('A' for Active; 'I' for Inactive)
REMARK    1  A    between atoms: C_1  and  C_2
REMARK    2  A    between atoms: C_5  and  C_8
REMARK    3  A    between atoms: C_10  and  C_14
REMARK    4  A    between atoms: C_18  and  S_22
REMARK    5  A    between atoms: N_20  and  N_21
REMARK    6  A    between atoms: S_22  and  C_23
REMARK    7  A    between atoms: C_23  and  C_24
REMARK    8  A    between atoms: N_26  and  C_27
REMARK                            x       y       z     vdW  Elec       q    Type
REMARK                         _______ _______ _______ _____ _____    ______ ____
ROOT
ATOM      1  C   UNL     1      -1.144  -7.221   0.947  0.00  0.00    +0.185 C 
ATOM      2  N   UNL     1      -1.227  -7.267   2.430  0.00  0.00    -0.234 NA
ATOM      3  N   UNL     1      -2.049  -8.447   2.715  0.00  0.00    -0.228 NA
ATOM      4  C   UNL     1      -1.937  -9.339   1.544  0.00  0.00    +0.214 C 
ATOM      5  N   UNL     1      -1.048  -8.657   0.573  0.00  0.00    -0.197 NA
ATOM      6  H   UNL     1      -1.657  -6.430   2.795  0.00  0.00    +0.143 HD
ATOM      7  H   UNL     1      -3.010  -8.186   2.881  0.00  0.00    +0.143 HD
ENDROOT
BRANCH   1  10
ATOM      8  C   UNL     1       0.082  -4.274  -0.069  0.00  0.00    +0.091 C 
ATOM      9  C   UNL     1       0.091  -5.041   1.039  0.00  0.00    +0.034 C 
ATOM     10  C   UNL     1       0.105  -6.460   0.498  0.00  0.00    +0.187 C 
ATOM     11  N   UNL     1       0.101  -6.263  -0.961  0.00  0.00    -0.176 NA
ATOM     12  N   UNL     1       0.083  -5.050  -1.184  0.00  0.00    -0.154 NA
BRANCH   8  17
ATOM     13  C   UNL     1       0.022   1.485  -0.075  0.00  0.00    +0.044 C 
ATOM     14  C   UNL     1       0.038  -0.022  -0.073  0.00  0.00    -0.050 A 
ATOM     15  C   UNL     1       0.038  -0.712  -1.272  0.00  0.00    +0.004 A 
ATOM     16  C   UNL     1       0.053  -2.092  -1.276  0.00  0.00    +0.010 A 
ATOM     17  C   UNL     1       0.067  -2.790  -0.070  0.00  0.00    +0.002 A 
ATOM     18  C   UNL     1       0.066  -2.089   1.134  0.00  0.00    +0.010 A 
ATOM     19  C   UNL     1       0.057  -0.709   1.127  0.00  0.00    +0.004 A 
ENDBRANCH   8  17
ENDBRANCH   1  10
BRANCH   5  20
ATOM     20  N   UNL     1      -1.499  -8.871  -0.793  0.00  0.00    -0.264 NA
ATOM     21  H   UNL     1      -1.433  -9.845  -1.047  0.00  0.00    +0.137 HD
ATOM     22  H   UNL     1      -2.438  -8.526  -0.922  0.00  0.00    +0.137 HD
ENDBRANCH   5  20
BRANCH   4  23
ATOM     23  S   UNL     1      -1.219 -10.929   2.041  0.00  0.00    -0.115 S 
BRANCH  23  24
ATOM     24  C   UNL     1       0.389 -10.481   2.751  0.00  0.00    +0.168 C 
BRANCH  24  25
ATOM     25  C   UNL     1       1.101 -11.728   3.210  0.00  0.00    +0.227 C 
ATOM     26  O   UNL     1       0.575 -12.812   3.071  0.00  0.00    -0.275 OA
ATOM     27  N   UNL     1       2.321 -11.639   3.774  0.00  0.00    -0.285 N 
ATOM     28  H   UNL     1       2.771 -10.780   3.824  0.00  0.00    +0.155 HD
BRANCH  27  29
ATOM     29  C   UNL     1       2.941 -12.783   4.288  0.00  0.00    +0.036 A 
ATOM     30  C   UNL     1       3.728 -12.696   5.428  0.00  0.00    +0.023 A 
ATOM     31  C   UNL     1       4.338 -13.827   5.934  0.00  0.00    +0.005 A 
ATOM     32  C   UNL     1       4.166 -15.047   5.307  0.00  0.00    +0.038 A 
ATOM     33  C   UNL     1       3.382 -15.139   4.169  0.00  0.00    +0.125 A 
ATOM     34  C   UNL     1       2.764 -14.010   3.662  0.00  0.00    +0.061 A 
ATOM     35  F   UNL     1       3.216 -16.332   3.558  0.00  0.00    -0.205 F 
ENDBRANCH  27  29
ENDBRANCH  24  25
ENDBRANCH  23  24
ENDBRANCH   4  23
TORSDOF 7
