REMARK  Name = ZINC08958762
REMARK  6 active torsions:
REMARK  status: ('A' for Active; 'I' for Inactive)
REMARK    1  A    between atoms: C_1  and  C_2
REMARK    2  A    between atoms: C_2  and  C_25
REMARK    3  A    between atoms: C_7  and  N_17
REMARK    4  A    between atoms: N_11  and  C_14
REMARK    5  A    between atoms: C_14  and  C_15
REMARK    6  A    between atoms: C_18  and  C_20
REMARK                            x       y       z     vdW  Elec       q    Type
REMARK                         _______ _______ _______ _____ _____    ______ ____
ROOT
ATOM      1  C   UNL     1      -3.833  -0.115   4.168  0.00  0.00    +0.024 C 
ATOM      2  C   UNL     1      -3.935   1.090   3.230  0.00  0.00    +0.076 C 
ATOM      3  C   UNL     1      -3.456   2.342   3.962  0.00  0.00    +0.244 C 
ATOM      4  O   UNL     1      -3.192   3.391   3.034  0.00  0.00    -0.489 OA
ATOM      5  C   UNL     1      -4.099   3.586   2.041  0.00  0.00    +0.144 A 
ATOM      6  C   UNL     1      -4.980   4.652   2.096  0.00  0.00    +0.070 A 
ATOM      7  C   UNL     1      -5.910   4.835   1.081  0.00  0.00    +0.037 A 
ATOM      8  C   UNL     1      -5.957   3.949   0.012  0.00  0.00    +0.025 A 
ATOM      9  C   UNL     1      -5.077   2.885  -0.046  0.00  0.00    +0.029 A 
ATOM     10  C   UNL     1      -4.147   2.701   0.965  0.00  0.00    +0.079 A 
ATOM     11  N   UNL     1      -3.244   1.628   0.917  0.00  0.00    -0.264 N 
ATOM     12  C   UNL     1      -3.089   0.844   2.008  0.00  0.00    +0.229 C 
ATOM     13  O   UNL     1      -2.270  -0.051   2.004  0.00  0.00    -0.275 OA
ATOM     14  C   UNL     1      -5.391   1.278   2.802  0.00  0.00    +0.024 C 
ENDROOT
BRANCH   7  15
ATOM     15  N   UNL     1      -6.801   5.912   1.135  0.00  0.00    -0.281 N 
ATOM     16  C   UNL     1      -7.291   6.323   2.321  0.00  0.00    +0.255 C 
ATOM     17  O   UNL     1      -6.893   5.814   3.353  0.00  0.00    -0.269 OA
ATOM     18  H   UNL     1      -7.066   6.364   0.318  0.00  0.00    +0.155 HD
BRANCH  16  19
ATOM     19  C   UNL     1      -8.303   7.382   2.370  0.00  0.00    +0.074 A 
ATOM     20  C   UNL     1      -8.928   7.943   3.472  0.00  0.00    +0.021 A 
ATOM     21  C   UNL     1      -9.849   8.932   3.232  0.00  0.00    +0.008 A 
ATOM     22  C   UNL     1     -10.100   9.308   1.951  0.00  0.00    +0.046 A 
ATOM     23  S   UNL     1      -9.045   8.291   1.026  0.00  0.00    -0.092 S 
ENDBRANCH  16  19
ENDBRANCH   7  15
BRANCH  11  24
ATOM     24  C   UNL     1      -2.482   1.355  -0.304  0.00  0.00    +0.140 C 
BRANCH  24  25
ATOM     25  C   UNL     1      -1.181   2.116  -0.264  0.00  0.00    -0.015 C 
ATOM     26  C   UNL     1      -0.046   1.480  -0.411  0.00  0.00    +0.005 C 
ENDBRANCH  24  25
ENDBRANCH  11  24
TORSDOF 4
