REMARK  Name = ZINC39678250
REMARK  5 active torsions:
REMARK  status: ('A' for Active; 'I' for Inactive)
REMARK    1  A    between atoms: C_4  and  N_32
REMARK    2  A    between atoms: C_5  and  C_7
REMARK    3  A    between atoms: C_7  and  N_8
REMARK    4  A    between atoms: C_9  and  C_11
REMARK    5  A    between atoms: C_22  and  C_24
REMARK                            x       y       z     vdW  Elec       q    Type
REMARK                         _______ _______ _______ _____ _____    ______ ____
ROOT
ATOM      1  C   UNL     1       1.820  -4.506   2.958  0.00  0.00    +0.100 C 
ATOM      2  C   UNL     1       3.263  -4.163   3.390  0.00  0.00    +0.121 C 
ATOM      3  N   UNL     1       3.708  -5.338   4.176  0.00  0.00    -0.296 N 
ATOM      4  C   UNL     1       3.151  -6.503   3.446  0.00  0.00    +0.115 C 
ATOM      5  C   UNL     1       1.750  -6.042   2.995  0.00  0.00    -0.004 C 
ATOM      6  C   UNL     1       1.437  -6.591   1.607  0.00  0.00    -0.010 C 
ATOM      7  C   UNL     1       1.315  -8.116   1.681  0.00  0.00    -0.082 C 
ATOM      8  N   UNL     1       0.251  -8.478   2.624  0.00  0.00    +0.379 N 
ATOM      9  C   UNL     1       0.604  -8.028   3.976  0.00  0.00    -0.082 C 
ATOM     10  C   UNL     1       0.696  -6.499   3.999  0.00  0.00    -0.010 C 
ATOM     11  C   UNL     1       4.450  -5.347   5.301  0.00  0.00    +0.249 C 
ATOM     12  O   UNL     1       4.752  -4.298   5.838  0.00  0.00    -0.270 OA
ATOM     13  H   UNL     1      -0.613  -8.040   2.340  0.00  0.00    -0.086 HD
ATOM     14  H   UNL     1       0.131  -9.480   2.626  0.00  0.00    -0.086 HD
ENDROOT
BRANCH  11  15
ATOM     15  C   UNL     1       4.896  -6.628   5.881  0.00  0.00    +0.072 A 
ATOM     16  C   UNL     1       5.229  -7.698   5.047  0.00  0.00    +0.019 A 
ATOM     17  C   UNL     1       5.644  -8.892   5.593  0.00  0.00    +0.039 A 
ATOM     18  C   UNL     1       5.733  -9.035   6.971  0.00  0.00    +0.126 A 
ATOM     19  C   UNL     1       5.405  -7.980   7.805  0.00  0.00    +0.077 A 
ATOM     20  C   UNL     1       4.992  -6.775   7.269  0.00  0.00    +0.138 A 
ATOM     21  F   UNL     1       4.678  -5.743   8.083  0.00  0.00    -0.205 F 
ATOM     22  F   UNL     1       6.141 -10.209   7.500  0.00  0.00    -0.205 F 
ENDBRANCH  11  15
BRANCH   1  24
ATOM     23  N   UNL     1       0.289  -3.814   1.142  0.00  0.00    -0.311 N 
ATOM     24  C   UNL     1       1.556  -4.003   1.562  0.00  0.00    +0.218 C 
ATOM     25  O   UNL     1       2.484  -3.768   0.817  0.00  0.00    -0.275 OA
ATOM     26  H   UNL     1      -0.452  -4.002   1.738  0.00  0.00    +0.149 HD
BRANCH  23  27
ATOM     27  C   UNL     1       0.033  -3.325  -0.215  0.00  0.00    +0.141 C 
BRANCH  27  32
ATOM     28  C   UNL     1      -3.499  -4.072  -1.319  0.00  0.00    +0.000 A 
ATOM     29  C   UNL     1      -4.184  -2.973  -0.832  0.00  0.00    +0.002 A 
ATOM     30  C   UNL     1      -3.507  -1.985  -0.144  0.00  0.00    +0.023 A 
ATOM     31  C   UNL     1      -2.137  -2.096   0.058  0.00  0.00    +0.034 A 
ATOM     32  C   UNL     1      -1.453  -3.201  -0.432  0.00  0.00    -0.009 A 
ATOM     33  C   UNL     1      -2.136  -4.185  -1.119  0.00  0.00    +0.007 A 
BRANCH  31  34
ATOM     34  N   UNL     1      -1.450  -1.098   0.753  0.00  0.00    -0.330 N 
ATOM     35  C   UNL     1      -0.876   0.051   0.039  0.00  0.00    +0.105 C 
ATOM     36  C   UNL     1      -1.389   1.341   0.689  0.00  0.00    +0.019 C 
ATOM     37  C   UNL     1      -1.077   1.311   2.187  0.00  0.00    +0.003 C 
ATOM     38  C   UNL     1      -1.794   0.125   2.836  0.00  0.00    +0.019 C 
ATOM     39  C   UNL     1      -1.291  -1.175   2.211  0.00  0.00    +0.105 C 
ENDBRANCH  31  34
ENDBRANCH  27  32
ENDBRANCH  23  27
ENDBRANCH   1  24
TORSDOF 5
