REMARK  Name = ZINC13218926
REMARK  13 active torsions:
REMARK  status: ('A' for Active; 'I' for Inactive)
REMARK    1  A    between atoms: C_1  and  C_2
REMARK    2  A    between atoms: C_2  and  C_3
REMARK    3  A    between atoms: C_9  and  S_18
REMARK    4  A    between atoms: N_10  and  C_13
REMARK    5  A    between atoms: C_13  and  C_14
REMARK    6  A    between atoms: C_14  and  C_15
REMARK    7  A    between atoms: C_15  and  O_16
REMARK    8  A    between atoms: O_16  and  C_17
REMARK    9  A    between atoms: S_18  and  C_19
REMARK   10  A    between atoms: C_19  and  C_20
REMARK   11  A    between atoms: C_24  and  C_31
REMARK   12  A    between atoms: N_28  and  C_29
REMARK   13  A    between atoms: C_29  and  C_30
REMARK                            x       y       z     vdW  Elec       q    Type
REMARK                         _______ _______ _______ _____ _____    ______ ____
ROOT
ATOM      1  C   UNL     1       2.451  -5.890   4.944  0.00  0.00    -0.008 A 
ATOM      2  C   UNL     1       2.078  -5.105   5.965  0.00  0.00    +0.026 A 
ATOM      3  C   UNL     1       1.188  -3.985   5.711  0.00  0.00    +0.072 A 
ATOM      4  C   UNL     1       0.793  -3.833   4.369  0.00  0.00    +0.116 A 
ATOM      5  S   UNL     1       1.618  -5.169   3.542  0.00  0.00    -0.073 S 
ATOM      6  N   UNL     1      -0.018  -2.857   3.979  0.00  0.00    -0.216 NA
ATOM      7  C   UNL     1      -0.489  -1.983   4.845  0.00  0.00    +0.173 A 
ATOM      8  N   UNL     1      -0.153  -2.054   6.166  0.00  0.00    -0.287 N 
ATOM      9  C   UNL     1       0.660  -3.022   6.628  0.00  0.00    +0.263 A 
ATOM     10  O   UNL     1       0.947  -3.074   7.812  0.00  0.00    -0.267 OA
ENDROOT
BRANCH   1  12
ATOM     11  C   UNL     1       2.524  -8.353   5.223  0.00  0.00    +0.009 C 
ATOM     12  C   UNL     1       3.357  -7.093   4.974  0.00  0.00    +0.039 C 
ENDBRANCH   1  12
BRANCH   8  13
ATOM     13  C   UNL     1      -0.691  -1.061   7.099  0.00  0.00    +0.129 C 
BRANCH  13  14
ATOM     14  C   UNL     1      -2.019  -1.564   7.669  0.00  0.00    +0.050 C 
BRANCH  14  15
ATOM     15  C   UNL     1      -2.582  -0.527   8.643  0.00  0.00    +0.161 C 
BRANCH  15  16
ATOM     16  O   UNL     1      -3.822  -0.997   9.175  0.00  0.00    -0.383 OA
ATOM     17  C   UNL     1      -4.435  -0.098  10.102  0.00  0.00    +0.193 C 
ENDBRANCH  15  16
ENDBRANCH  14  15
ENDBRANCH  13  14
ENDBRANCH   8  13
BRANCH   7  18
ATOM     18  S   UNL     1      -1.562  -0.701   4.289  0.00  0.00    -0.080 S 
BRANCH  18  19
ATOM     19  C   UNL     1      -1.636  -1.095   2.524  0.00  0.00    +0.151 C 
BRANCH  19  20
ATOM     20  C   UNL     1      -2.525  -0.101   1.824  0.00  0.00    +0.121 A 
ATOM     21  N   UNL     1      -3.807  -0.238   1.654  0.00  0.00    -0.231 NA
ATOM     22  C   UNL     1      -4.296   0.840   0.986  0.00  0.00    +0.090 A 
ATOM     23  C   UNL     1      -5.569   1.203   0.550  0.00  0.00    +0.045 A 
ATOM     24  C   UNL     1      -5.747   2.414  -0.113  0.00  0.00    +0.065 A 
ATOM     25  C   UNL     1      -4.651   3.255  -0.351  0.00  0.00    +0.017 A 
ATOM     26  C   UNL     1      -3.403   2.900   0.070  0.00  0.00    +0.029 A 
ATOM     27  C   UNL     1      -3.208   1.698   0.741  0.00  0.00    +0.069 A 
ATOM     28  N   UNL     1      -2.103   1.072   1.277  0.00  0.00    -0.327 N 
BRANCH  24  29
ATOM     29  C   UNL     1      -7.092   2.809  -0.574  0.00  0.00    +0.387 C 
ATOM     30  O   UNL     1      -8.043   2.082  -0.368  0.00  0.00    -0.241 OA
ATOM     31  O   UNL     1      -7.265   3.977  -1.223  0.00  0.00    -0.241 OA
ENDBRANCH  24  29
BRANCH  28  32
ATOM     32  C   UNL     1      -0.729   1.579   1.267  0.00  0.00    +0.120 C 
ATOM     33  C   UNL     1      -0.013   1.086   0.008  0.00  0.00    +0.027 C 
ENDBRANCH  28  32
ENDBRANCH  19  20
ENDBRANCH  18  19
ENDBRANCH   7  18
TORSDOF 10
