REMARK  Name = ZINC22299888
REMARK  15 active torsions:
REMARK  status: ('A' for Active; 'I' for Inactive)
REMARK    1  A    between atoms: C_1  and  C_2
REMARK    2  A    between atoms: C_2  and  C_4
REMARK    3  A    between atoms: C_2  and  S_13
REMARK    4  A    between atoms: N_6  and  C_7
REMARK    5  A    between atoms: C_7  and  C_8
REMARK    6  A    between atoms: S_13  and  C_14
REMARK    7  A    between atoms: N_24  and  C_25
REMARK    8  A    between atoms: C_25  and  C_26
REMARK    9  A    between atoms: C_26  and  N_27
REMARK   10  A    between atoms: N_27  and  C_28
REMARK   11  A    between atoms: N_27  and  C_31
REMARK   12  A    between atoms: C_28  and  C_29
REMARK   13  A    between atoms: C_28  and  C_30
REMARK   14  A    between atoms: C_31  and  C_32
REMARK   15  A    between atoms: C_31  and  C_33
REMARK                            x       y       z     vdW  Elec       q    Type
REMARK                         _______ _______ _______ _____ _____    ______ ____
ROOT
ATOM      1  C   UNL     1      -2.813  -0.605  -2.371  0.00  0.00    +0.173 A 
ATOM      2  N   UNL     1      -2.078  -0.071  -3.315  0.00  0.00    -0.223 NA
ATOM      3  C   UNL     1      -2.626   0.418  -4.445  0.00  0.00    +0.079 A 
ATOM      4  C   UNL     1      -1.841   0.987  -5.453  0.00  0.00    +0.028 A 
ATOM      5  C   UNL     1      -2.439   1.471  -6.583  0.00  0.00    +0.002 A 
ATOM      6  C   UNL     1      -3.817   1.407  -6.746  0.00  0.00    +0.001 A 
ATOM      7  C   UNL     1      -4.610   0.857  -5.778  0.00  0.00    +0.015 A 
ATOM      8  C   UNL     1      -4.027   0.355  -4.615  0.00  0.00    +0.065 A 
ATOM      9  C   UNL     1      -4.830  -0.248  -3.542  0.00  0.00    +0.262 A 
ATOM     10  O   UNL     1      -6.041  -0.332  -3.631  0.00  0.00    -0.267 OA
ATOM     11  N   UNL     1      -4.171  -0.712  -2.455  0.00  0.00    -0.289 N 
ENDROOT
BRANCH   1  12
ATOM     12  S   UNL     1      -2.010  -1.219  -0.928  0.00  0.00    -0.075 S 
BRANCH  12  14
ATOM     13  C   UNL     1      -0.025   0.629  -1.281  0.00  0.00    +0.029 C 
ATOM     14  C   UNL     1      -0.252  -0.883  -1.226  0.00  0.00    +0.137 C 
BRANCH  14  15
ATOM     15  C   UNL     1       0.569  -1.475  -0.110  0.00  0.00    +0.227 C 
ATOM     16  O   UNL     1       0.048  -1.736   0.953  0.00  0.00    -0.275 OA
ATOM     17  N   UNL     1       1.883  -1.713  -0.294  0.00  0.00    -0.307 N 
ATOM     18  H   UNL     1       2.300  -1.504  -1.145  0.00  0.00    +0.149 HD
BRANCH  17  19
ATOM     19  C   UNL     1       2.682  -2.288   0.791  0.00  0.00    +0.178 C 
BRANCH  19  20
ATOM     20  C   UNL     1       4.108  -2.454   0.332  0.00  0.00    +0.122 A 
ATOM     21  C   UNL     1       5.086  -1.539   0.458  0.00  0.00    +0.046 A 
ATOM     22  C   UNL     1       6.253  -2.107  -0.103  0.00  0.00    +0.041 A 
ATOM     23  C   UNL     1       5.918  -3.335  -0.538  0.00  0.00    +0.195 A 
ATOM     24  O   UNL     1       4.619  -3.542  -0.267  0.00  0.00    -0.466 OA
ENDBRANCH  19  20
ENDBRANCH  17  19
ENDBRANCH  14  15
ENDBRANCH  12  14
ENDBRANCH   1  12
BRANCH  11  25
ATOM     25  C   UNL     1      -4.922  -1.327  -1.358  0.00  0.00    +0.109 C 
BRANCH  25  26
ATOM     26  C   UNL     1      -5.324  -0.251  -0.347  0.00  0.00    -0.056 C 
BRANCH  26  27
ATOM     27  N   UNL     1      -6.196  -0.842   0.677  0.00  0.00    +0.384 N 
ATOM     28  H   UNL     1      -6.978  -1.296   0.231  0.00  0.00    -0.081 HD
BRANCH  27  29
ATOM     29  C   UNL     1      -5.436  -1.828   1.457  0.00  0.00    -0.074 C 
ATOM     30  C   UNL     1      -4.667  -1.114   2.570  0.00  0.00    -0.014 C 
ATOM     31  C   UNL     1      -6.401  -2.842   2.074  0.00  0.00    -0.014 C 
ENDBRANCH  27  29
BRANCH  27  32
ATOM     32  C   UNL     1      -6.688   0.216   1.570  0.00  0.00    -0.074 C 
ATOM     33  C   UNL     1      -7.354   1.315   0.740  0.00  0.00    -0.014 C 
ATOM     34  C   UNL     1      -7.708  -0.375   2.546  0.00  0.00    -0.014 C 
ENDBRANCH  27  32
ENDBRANCH  26  27
ENDBRANCH  25  26
ENDBRANCH  11  25
TORSDOF 10
