REMARK  Name = ZINC13495883
REMARK  13 active torsions:
REMARK  status: ('A' for Active; 'I' for Inactive)
REMARK    1  A    between atoms: C_1  and  C_2
REMARK    2  A    between atoms: C_2  and  C_3
REMARK    3  A    between atoms: C_3  and  C_5
REMARK    4  A    between atoms: C_3  and  N_69
REMARK    5  A    between atoms: N_9  and  C_10
REMARK    6  A    between atoms: C_10  and  C_11
REMARK    7  A    between atoms: C_16  and  C_17
REMARK    8  A    between atoms: C_16  and  N_69
REMARK    9  A    between atoms: C_17  and  C_18
REMARK   10  A    between atoms: C_23  and  C_24
REMARK   11  A    between atoms: C_25  and  C_26
REMARK   12  A    between atoms: C_25  and  N_69
REMARK   13  A    between atoms: C_32  and  C_38
REMARK                            x       y       z     vdW  Elec       q    Type
REMARK                         _______ _______ _______ _____ _____    ______ ____
ROOT
ATOM      1  N   UNL     1       1.373  -3.005   5.263  0.00  0.00    +0.389 N 
ATOM      2  H   UNL     1       1.638  -2.014   5.215  0.00  0.00    -0.080 HD
ENDROOT
BRANCH   1   3
ATOM      3  C   UNL     1       1.763  -3.542   6.583  0.00  0.00    +0.003 C 
BRANCH   3   4
ATOM      4  C   UNL     1       1.217  -4.934   6.769  0.00  0.00    +0.139 A 
ATOM      5  N   UNL     1      -0.021  -5.321   6.582  0.00  0.00    -0.115 NA
ATOM      6  N   UNL     1      -0.089  -6.580   6.842  0.00  0.00    -0.023 NA
ATOM      7  N   UNL     1       1.072  -7.006   7.198  0.00  0.00    -0.044 NA
ATOM      8  N   UNL     1       1.905  -6.021   7.167  0.00  0.00    -0.223 N 
BRANCH   8   9
ATOM      9  C   UNL     1       3.330  -6.075   7.500  0.00  0.00    +0.221 C 
BRANCH   9  10
ATOM     10  C   UNL     1       3.513  -5.792   8.969  0.00  0.00    +0.126 A 
ATOM     11  C   UNL     1       3.513  -6.709   9.953  0.00  0.00    +0.046 A 
ATOM     12  C   UNL     1       3.718  -6.010  11.165  0.00  0.00    +0.041 A 
ATOM     13  C   UNL     1       3.824  -4.707  10.849  0.00  0.00    +0.195 A 
ATOM     14  O   UNL     1       3.699  -4.580   9.518  0.00  0.00    -0.466 OA
ENDBRANCH   9  10
ENDBRANCH   8   9
ENDBRANCH   3   4
BRANCH   3  16
ATOM     15  C   UNL     1       1.869  -1.250   7.572  0.00  0.00    +0.002 C 
ATOM     16  C   UNL     1       1.206  -2.625   7.674  0.00  0.00    -0.011 C 
ENDBRANCH   3  16
ENDBRANCH   1   3
BRANCH   1  17
ATOM     17  C   UNL     1       2.073  -3.742   4.190  0.00  0.00    -0.073 C 
BRANCH  17  18
ATOM     18  C   UNL     1       3.571  -3.445   4.283  0.00  0.00    +0.017 C 
BRANCH  18  19
ATOM     19  C   UNL     1       4.282  -4.080   3.116  0.00  0.00    -0.046 A 
ATOM     20  C   UNL     1       4.862  -5.327   3.256  0.00  0.00    +0.004 A 
ATOM     21  C   UNL     1       5.510  -5.912   2.184  0.00  0.00    +0.000 A 
ATOM     22  C   UNL     1       5.588  -5.244   0.976  0.00  0.00    +0.000 A 
ATOM     23  C   UNL     1       5.013  -3.995   0.838  0.00  0.00    +0.003 A 
ATOM     24  C   UNL     1       4.360  -3.413   1.909  0.00  0.00    -0.047 A 
ATOM     25  C   UNL     1       3.734  -2.050   1.758  0.00  0.00    +0.044 C 
ENDBRANCH  18  19
ENDBRANCH  17  18
ENDBRANCH   1  17
BRANCH   1  26
ATOM     26  C   UNL     1      -0.090  -3.119   5.083  0.00  0.00    -0.037 C 
BRANCH  26  27
ATOM     27  C   UNL     1      -0.507  -2.236   3.936  0.00  0.00    +0.001 A 
ATOM     28  C   UNL     1      -0.646  -2.763   2.694  0.00  0.00    +0.017 A 
ATOM     29  C   UNL     1      -1.053  -1.878   1.601  0.00  0.00    -0.001 A 
ATOM     30  C   UNL     1      -1.213  -2.363   0.298  0.00  0.00    +0.010 A 
ATOM     31  C   UNL     1      -1.593  -1.511  -0.699  0.00  0.00    +0.001 A 
ATOM     32  C   UNL     1      -1.830  -0.170  -0.431  0.00  0.00    +0.005 A 
ATOM     33  C   UNL     1      -1.673   0.331   0.843  0.00  0.00    -0.026 A 
ATOM     34  C   UNL     1      -1.286  -0.517   1.875  0.00  0.00    +0.052 A 
ATOM     35  N   UNL     1      -1.127  -0.044   3.160  0.00  0.00    -0.322 N 
ATOM     36  H   UNL     1      -1.287   0.894   3.348  0.00  0.00    +0.169 HD
ATOM     37  C   UNL     1      -0.752  -0.864   4.158  0.00  0.00    +0.251 A 
ATOM     38  O   UNL     1      -0.622  -0.411   5.282  0.00  0.00    -0.268 OA
ATOM     39  C   UNL     1      -1.926   1.791   1.118  0.00  0.00    +0.046 C 
ENDBRANCH  26  27
ENDBRANCH   1  26
TORSDOF 10
