REMARK  Name = ZINC12010556
REMARK  4 active torsions:
REMARK  status: ('A' for Active; 'I' for Inactive)
REMARK    1  A    between atoms: C_3  and  C_6
REMARK    2  A    between atoms: C_8  and  N_23
REMARK    3  A    between atoms: C_24  and  C_26
REMARK    4  A    between atoms: C_26  and  C_27
REMARK                            x       y       z     vdW  Elec       q    Type
REMARK                         _______ _______ _______ _____ _____    ______ ____
ROOT
ATOM      1  C   UNL     1      -7.529   4.991   0.526  0.00  0.00    +0.130 A 
ATOM      2  C   UNL     1      -6.613   4.575  -0.463  0.00  0.00    +0.077 A 
ATOM      3  C   UNL     1      -6.224   5.674  -1.157  0.00  0.00    +0.132 A 
ATOM      4  N   UNL     1      -6.879   6.751  -0.630  0.00  0.00    -0.184 N 
ATOM      5  N   UNL     1      -7.687   6.295   0.419  0.00  0.00    -0.159 NA
ATOM      6  C   UNL     1      -6.764   8.060  -1.057  0.00  0.00    +0.234 A 
ATOM      7  N   UNL     1      -7.482   9.032  -0.434  0.00  0.00    -0.291 N 
ATOM      8  H   UNL     1      -8.068   8.809   0.306  0.00  0.00    +0.172 HD
ATOM      9  C   UNL     1      -7.374  10.309  -0.853  0.00  0.00    +0.256 A 
ATOM     10  O   UNL     1      -8.008  11.195  -0.305  0.00  0.00    -0.267 OA
ATOM     11  C   UNL     1      -6.516  10.606  -1.935  0.00  0.00    +0.038 A 
ATOM     12  C   UNL     1      -5.817   9.596  -2.514  0.00  0.00    +0.053 A 
ATOM     13  N   UNL     1      -5.961   8.346  -2.055  0.00  0.00    -0.217 NA
ATOM     14  C   UNL     1      -4.863   9.819  -3.657  0.00  0.00    +0.056 C 
ATOM     15  C   UNL     1      -5.135  11.162  -4.330  0.00  0.00    +0.006 C 
ATOM     16  C   UNL     1      -5.175  12.247  -3.247  0.00  0.00    +0.005 C 
ATOM     17  C   UNL     1      -6.427  12.034  -2.399  0.00  0.00    +0.042 C 
ENDROOT
BRANCH   1  20
ATOM     18  C   UNL     1      -9.471   3.358   3.168  0.00  0.00    +0.042 A 
ATOM     19  C   UNL     1      -9.083   4.515   2.462  0.00  0.00    +0.051 A 
ATOM     20  C   UNL     1      -8.201   4.115   1.509  0.00  0.00    +0.155 A 
ATOM     21  O   UNL     1      -8.040   2.782   1.619  0.00  0.00    -0.461 OA
ATOM     22  C   UNL     1      -8.806   2.321   2.621  0.00  0.00    +0.196 A 
ENDBRANCH   1  20
BRANCH   3  23
ATOM     23  N   UNL     1      -5.322   5.699  -2.219  0.00  0.00    -0.270 N 
ATOM     24  C   UNL     1      -4.745   4.556  -2.640  0.00  0.00    +0.220 C 
ATOM     25  O   UNL     1      -5.010   3.506  -2.094  0.00  0.00    -0.275 OA
ATOM     26  H   UNL     1      -5.111   6.539  -2.656  0.00  0.00    +0.156 HD
BRANCH  24  27
ATOM     27  C   UNL     1      -3.770   4.583  -3.789  0.00  0.00    +0.122 C 
BRANCH  27  28
ATOM     28  C   UNL     1      -3.380   3.151  -4.161  0.00  0.00    +0.112 C 
ATOM     29  C   UNL     1      -4.646   2.400  -4.599  0.00  0.00    +0.103 C 
ATOM     30  S   UNL     1      -4.186   1.903  -6.301  0.00  0.00    -0.086 S 
ATOM     31  C   UNL     1      -2.554   2.607  -6.375  0.00  0.00    +0.172 A 
ATOM     32  N   UNL     1      -2.328   3.205  -5.174  0.00  0.00    -0.283 N 
ATOM     33  C   UNL     1      -1.113   3.818  -5.011  0.00  0.00    +0.258 A 
ATOM     34  O   UNL     1      -0.849   4.371  -3.956  0.00  0.00    -0.267 OA
ATOM     35  C   UNL     1      -0.173   3.812  -6.049  0.00  0.00    +0.038 A 
ATOM     36  C   UNL     1      -0.481   3.190  -7.223  0.00  0.00    +0.052 A 
ATOM     37  N   UNL     1      -1.669   2.602  -7.349  0.00  0.00    -0.228 NA
ATOM     38  C   UNL     1       0.673   3.309  -8.194  0.00  0.00    +0.056 C 
ATOM     39  C   UNL     1       1.554   4.449  -7.636  0.00  0.00    +0.011 C 
ATOM     40  C   UNL     1       1.217   4.406  -6.127  0.00  0.00    +0.043 C 
ENDBRANCH  27  28
ENDBRANCH  24  27
ENDBRANCH   3  23
TORSDOF 4
