REMARK  Name = ZINC63491697
REMARK  7 active torsions:
REMARK  status: ('A' for Active; 'I' for Inactive)
REMARK    1  A    between atoms: C_1  and  C_2
REMARK    2  A    between atoms: C_2  and  O_3
REMARK    3  A    between atoms: O_3  and  C_4
REMARK    4  A    between atoms: C_4  and  C_6
REMARK    5  A    between atoms: C_6  and  C_7
REMARK    6  A    between atoms: C_7  and  N_8
REMARK    7  A    between atoms: C_24  and  C_26
REMARK                            x       y       z     vdW  Elec       q    Type
REMARK                         _______ _______ _______ _____ _____    ______ ____
ROOT
ATOM      1  N   UNL     1       2.120  -4.428  -3.671  0.00  0.00    -0.299 N 
ATOM      2  C   UNL     1       2.239  -5.761  -3.826  0.00  0.00    +0.303 C 
ATOM      3  O   UNL     1       1.873  -6.511  -2.942  0.00  0.00    -0.253 OA
ATOM      4  N   UNL     1       2.763  -6.263  -4.962  0.00  0.00    -0.276 N 
ATOM      5  C   UNL     1       3.328  -5.354  -5.964  0.00  0.00    +0.114 C 
ATOM      6  C   UNL     1       4.800  -5.727  -6.222  0.00  0.00    +0.052 C 
ATOM      7  C   UNL     1       4.845  -7.228  -6.372  0.00  0.00    -0.035 C 
ATOM      8  C   UNL     1       5.361  -8.000  -7.320  0.00  0.00    -0.001 A 
ATOM      9  C   UNL     1       6.169  -7.684  -8.509  0.00  0.00    +0.010 A 
ATOM     10  C   UNL     1       6.519  -8.738  -9.293  0.00  0.00    +0.001 A 
ATOM     11  C   UNL     1       6.152 -10.059  -9.016  0.00  0.00    +0.002 A 
ATOM     12  C   UNL     1       5.418 -10.441  -7.941  0.00  0.00    +0.026 A 
ATOM     13  C   UNL     1       4.997  -9.422  -7.038  0.00  0.00    +0.043 A 
ATOM     14  N   UNL     1       4.315  -9.506  -5.934  0.00  0.00    -0.375 N 
ATOM     15  C   UNL     1       4.216  -8.168  -5.350  0.00  0.00    +0.131 C 
ATOM     16  C   UNL     1       2.766  -7.718  -5.181  0.00  0.00    +0.137 C 
ATOM     17  H   UNL     1       2.478  -3.827  -4.343  0.00  0.00    +0.150 HD
ATOM     18  H   UNL     1       3.937 -10.317  -5.561  0.00  0.00    +0.160 HD
ENDROOT
BRANCH  16  19
ATOM     19  C   UNL     1       2.154  -8.415  -3.992  0.00  0.00    +0.010 A 
ATOM     20  C   UNL     1       2.967  -8.986  -3.031  0.00  0.00    +0.008 A 
ATOM     21  C   UNL     1       2.406  -9.624  -1.942  0.00  0.00    +0.000 A 
ATOM     22  C   UNL     1       1.031  -9.693  -1.811  0.00  0.00    +0.003 A 
ATOM     23  C   UNL     1       0.216  -9.122  -2.770  0.00  0.00    +0.039 A 
ATOM     24  C   UNL     1       0.777  -8.478  -3.860  0.00  0.00    +0.128 A 
ATOM     25  F   UNL     1      -0.018  -7.915  -4.796  0.00  0.00    -0.205 F 
ENDBRANCH  16  19
BRANCH   1  26
ATOM     26  C   UNL     1       1.452  -3.885  -2.485  0.00  0.00    +0.117 C 
BRANCH  26  27
ATOM     27  C   UNL     1       1.453  -2.357  -2.554  0.00  0.00    +0.139 C 
BRANCH  27  28
ATOM     28  C   UNL     1       0.765  -1.798  -1.335  0.00  0.00    +0.309 C 
ATOM     29  O   UNL     1       0.321  -2.546  -0.497  0.00  0.00    -0.251 OA
BRANCH  28  30
ATOM     30  O   UNL     1       0.647  -0.470  -1.180  0.00  0.00    -0.465 OA
BRANCH  30  32
ATOM     31  C   UNL     1      -0.054   1.519   0.001  0.00  0.00    +0.048 C 
ATOM     32  C   UNL     1      -0.016  -0.011  -0.000  0.00  0.00    +0.229 C 
ENDBRANCH  30  32
ENDBRANCH  28  30
ENDBRANCH  27  28
ENDBRANCH  26  27
ENDBRANCH   1  26
TORSDOF 6
