REMARK  Name = ZINC40824350
REMARK  3 active torsions:
REMARK  status: ('A' for Active; 'I' for Inactive)
REMARK    1  A    between atoms: C_1  and  C_2
REMARK    2  A    between atoms: C_6  and  C_7
REMARK    3  A    between atoms: N_18  and  N_19
REMARK                            x       y       z     vdW  Elec       q    Type
REMARK                         _______ _______ _______ _____ _____    ______ ____
ROOT
ATOM      1  C   UNL     1      -0.018   1.503   0.010  0.00  0.00    +0.048 C 
ATOM      2  C   UNL     1       0.002  -0.004   0.002  0.00  0.00    +0.009 A 
ATOM      3  C   UNL     1       0.008  -0.838  -1.123  0.00  0.00    +0.042 A 
ATOM      4  C   UNL     1       0.026  -2.137  -0.673  0.00  0.00    +0.115 A 
ATOM      5  O   UNL     1       0.034  -2.112   0.658  0.00  0.00    -0.454 OA
ATOM      6  C   UNL     1       0.024  -0.830   1.091  0.00  0.00    +0.193 A 
ATOM      7  C   UNL     1       0.033  -3.326  -1.600  0.00  0.00    +0.075 C 
ATOM      8  C   UNL     1      -0.492  -2.902  -2.974  0.00  0.00    +0.014 C 
ATOM      9  C   UNL     1       0.280  -1.685  -3.495  0.00  0.00    +0.058 C 
ATOM     10  C   UNL     1       0.001  -0.512  -2.566  0.00  0.00    +0.070 C 
ATOM     11  N   UNL     1      -0.227   0.686  -3.008  0.00  0.00    -0.183 NA
ENDROOT
BRANCH   6  12
ATOM     12  C   UNL     1       0.032  -0.400   2.494  0.00  0.00    +0.282 C 
ATOM     13  O   UNL     1       0.019   0.786   2.766  0.00  0.00    -0.267 OA
ATOM     14  N   UNL     1       0.054  -1.317   3.480  0.00  0.00    -0.295 N 
ATOM     15  C   UNL     1       0.079  -2.776   3.294  0.00  0.00    +0.108 C 
ATOM     16  C   UNL     1       0.073  -3.417   4.697  0.00  0.00    +0.020 C 
ATOM     17  C   UNL     1      -0.526  -2.297   5.589  0.00  0.00    +0.020 C 
ATOM     18  C   UNL     1       0.065  -1.025   4.925  0.00  0.00    +0.108 C 
ENDBRANCH   6  12
BRANCH  11  19
ATOM     19  N   UNL     1      -0.222   0.938  -4.386  0.00  0.00    -0.191 N 
ATOM     20  C   UNL     1      -0.458   2.183  -4.845  0.00  0.00    +0.317 C 
ATOM     21  O   UNL     1      -0.454   2.401  -6.041  0.00  0.00    -0.251 OA
ATOM     22  N   UNL     1      -0.700   3.186  -3.977  0.00  0.00    -0.312 N 
ATOM     23  H   UNL     1      -0.048   0.216  -5.010  0.00  0.00    +0.179 HD
ATOM     24  H   UNL     1      -0.703   3.012  -3.023  0.00  0.00    +0.147 HD
ATOM     25  H   UNL     1      -0.870   4.082  -4.308  0.00  0.00    +0.147 HD
ENDBRANCH  11  19
TORSDOF 2
