REMARK  Name = ZINC01973419
REMARK  6 active torsions:
REMARK  status: ('A' for Active; 'I' for Inactive)
REMARK    1  A    between atoms: C_5  and  N_7
REMARK    2  A    between atoms: C_8  and  C_10
REMARK    3  A    between atoms: C_10  and  O_11
REMARK    4  A    between atoms: O_11  and  C_12
REMARK    5  A    between atoms: C_20  and  O_23
REMARK    6  A    between atoms: O_23  and  C_24
REMARK                            x       y       z     vdW  Elec       q    Type
REMARK                         _______ _______ _______ _____ _____    ______ ____
ROOT
ATOM      1  C   UNL     1       0.422   0.290   0.059  0.00  0.00    +0.125 A 
ATOM      2  C   UNL     1      -0.711   1.102   0.045  0.00  0.00    +0.046 A 
ATOM      3  C   UNL     1      -0.587   2.462   0.038  0.00  0.00    +0.019 A 
ATOM      4  C   UNL     1       0.683   3.040   0.035  0.00  0.00    +0.068 A 
ATOM      5  C   UNL     1       1.832   2.230   0.044  0.00  0.00    +0.142 A 
ATOM      6  C   UNL     1       1.688   0.849   0.056  0.00  0.00    +0.092 A 
ATOM      7  O   UNL     1       3.054   2.800   0.040  0.00  0.00    -0.459 OA
ATOM      8  C   UNL     1       3.226   4.128   0.028  0.00  0.00    +0.245 A 
ATOM      9  C   UNL     1       2.196   4.997   0.018  0.00  0.00    +0.210 A 
ATOM     10  C   UNL     1       0.860   4.503   0.021  0.00  0.00    +0.234 A 
ATOM     11  O   UNL     1      -0.097   5.258   0.013  0.00  0.00    -0.283 OA
ENDROOT
BRANCH   1  12
ATOM     12  O   UNL     1       0.282  -1.060   0.072  0.00  0.00    -0.483 OA
BRANCH  12  13
ATOM     13  C   UNL     1      -1.051  -1.574   0.075  0.00  0.00    +0.324 C 
BRANCH  13  15
ATOM     14  N   UNL     1      -2.156  -3.787   0.093  0.00  0.00    -0.280 N 
ATOM     15  C   UNL     1      -1.008  -3.081   0.088  0.00  0.00    +0.255 C 
ATOM     16  O   UNL     1       0.059  -3.657   0.095  0.00  0.00    -0.272 OA
ATOM     17  H   UNL     1      -3.008  -3.328   0.150  0.00  0.00    +0.155 HD
BRANCH  14  22
ATOM     18  C   UNL     1      -1.052  -7.266   0.549  0.00  0.00    +0.002 A 
ATOM     19  C   UNL     1      -2.042  -7.948  -0.135  0.00  0.00    +0.003 A 
ATOM     20  C   UNL     1      -3.070  -7.253  -0.744  0.00  0.00    +0.040 A 
ATOM     21  C   UNL     1      -3.112  -5.873  -0.671  0.00  0.00    +0.144 A 
ATOM     22  C   UNL     1      -2.118  -5.185   0.017  0.00  0.00    +0.069 A 
ATOM     23  C   UNL     1      -1.084  -5.887   0.622  0.00  0.00    +0.026 A 
ATOM     24  F   UNL     1      -4.116  -5.193  -1.266  0.00  0.00    -0.204 F 
ENDBRANCH  14  22
ENDBRANCH  13  15
ENDBRANCH  12  13
ENDBRANCH   1  12
BRANCH   9  25
ATOM     25  O   UNL     1       2.430   6.338   0.007  0.00  0.00    -0.448 OA
BRANCH  25  26
ATOM     26  C   UNL     1       3.717   6.760  -0.106  0.00  0.00    +0.143 A 
ATOM     27  C   UNL     1       4.421   7.154   1.023  0.00  0.00    +0.047 A 
ATOM     28  C   UNL     1       5.730   7.577   0.905  0.00  0.00    +0.004 A 
ATOM     29  C   UNL     1       6.337   7.619  -0.337  0.00  0.00    +0.001 A 
ATOM     30  C   UNL     1       5.637   7.232  -1.464  0.00  0.00    +0.019 A 
ATOM     31  C   UNL     1       4.328   6.802  -1.352  0.00  0.00    +0.060 A 
ATOM     32 BR   UNL     1       3.370   6.272  -2.894  0.00  0.00    -0.046 Br
ENDBRANCH  25  26
ENDBRANCH   9  25
TORSDOF 6
