REMARK  Name = ZINC14542852
REMARK  6 active torsions:
REMARK  status: ('A' for Active; 'I' for Inactive)
REMARK    1  A    between atoms: C_1  and  C_2
REMARK    2  A    between atoms: C_2  and  N_3
REMARK    3  A    between atoms: N_6  and  C_25
REMARK    4  A    between atoms: C_14  and  C_15
REMARK    5  A    between atoms: C_14  and  N_65
REMARK    6  A    between atoms: C_25  and  C_26
REMARK                            x       y       z     vdW  Elec       q    Type
REMARK                         _______ _______ _______ _____ _____    ______ ____
ROOT
ATOM      1  N   UNL     1      -2.756   1.964  -2.990  0.00  0.00    -0.271 N 
ATOM      2  C   UNL     1      -2.391   1.707  -1.720  0.00  0.00    +0.312 C 
ATOM      3  O   UNL     1      -1.744   2.473  -1.034  0.00  0.00    -0.252 OA
ATOM      4  N   UNL     1      -2.818   0.510  -1.298  0.00  0.00    -0.220 N 
ATOM      5  C   UNL     1      -3.518  -0.133  -2.256  0.00  0.00    +0.247 C 
ATOM      6  O   UNL     1      -4.036  -1.226  -2.177  0.00  0.00    -0.273 OA
ATOM      7  C   UNL     1      -3.521   0.797  -3.446  0.00  0.00    +0.112 C 
ATOM      8  C   UNL     1      -4.947   1.199  -3.807  0.00  0.00    +0.017 C 
ATOM      9  C   UNL     1      -4.920   2.118  -5.032  0.00  0.00    -0.076 C 
ATOM     10  C   UNL     1      -2.876   1.093  -5.837  0.00  0.00    -0.076 C 
ATOM     11  C   UNL     1      -2.834   0.139  -4.639  0.00  0.00    +0.017 C 
ATOM     12  N   UNL     1      -4.287   1.397  -6.157  0.00  0.00    +0.383 N 
ATOM     13  H   UNL     1      -4.790   0.516  -6.312  0.00  0.00    -0.081 HD
ENDROOT
BRANCH   1  15
ATOM     14  C   UNL     1      -0.949   3.248  -4.024  0.00  0.00    +0.024 C 
ATOM     15  C   UNL     1      -2.454   3.172  -3.763  0.00  0.00    +0.107 C 
ENDBRANCH   1  15
BRANCH  12  16
ATOM     16  C   UNL     1      -4.361   2.214  -7.385  0.00  0.00    -0.041 C 
BRANCH  16  17
ATOM     17  C   UNL     1      -5.803   2.325  -7.808  0.00  0.00    -0.039 A 
ATOM     18  C   UNL     1      -6.413   1.602  -8.760  0.00  0.00    +0.085 A 
ATOM     19  N   UNL     1      -7.725   1.979  -8.863  0.00  0.00    -0.360 N 
ATOM     20  H   UNL     1      -8.367   1.598  -9.482  0.00  0.00    +0.165 HD
ATOM     21  C   UNL     1      -7.995   2.985  -7.962  0.00  0.00    +0.047 A 
ATOM     22  C   UNL     1      -6.803   3.245  -7.262  0.00  0.00    +0.001 A 
ATOM     23  C   UNL     1      -6.778   4.229  -6.272  0.00  0.00    +0.010 A 
ATOM     24  C   UNL     1      -7.913   4.935  -5.988  0.00  0.00    +0.001 A 
ATOM     25  C   UNL     1      -9.091   4.683  -6.677  0.00  0.00    +0.002 A 
ATOM     26  C   UNL     1      -9.138   3.716  -7.657  0.00  0.00    +0.026 A 
ENDBRANCH  16  17
ENDBRANCH  12  16
BRANCH   4  27
ATOM     27  C   UNL     1      -2.563  -0.031   0.039  0.00  0.00    +0.153 C 
BRANCH  27  28
ATOM     28  C   UNL     1      -1.220  -0.715   0.057  0.00  0.00    -0.022 A 
ATOM     29  C   UNL     1      -0.503  -0.844  -1.093  0.00  0.00    +0.006 A 
ATOM     30  C   UNL     1       0.740  -1.473  -1.097  0.00  0.00    +0.001 A 
ATOM     31  C   UNL     1       1.274  -1.977   0.050  0.00  0.00    +0.008 A 
ATOM     32  C   UNL     1       0.563  -1.862   1.256  0.00  0.00    -0.018 A 
ATOM     33  C   UNL     1      -0.702  -1.222   1.260  0.00  0.00    -0.013 A 
ATOM     34  C   UNL     1      -1.413  -1.108   2.467  0.00  0.00    +0.009 A 
ATOM     35  C   UNL     1      -0.879  -1.611   3.613  0.00  0.00    +0.001 A 
ATOM     36  C   UNL     1       0.365  -2.241   3.609  0.00  0.00    +0.001 A 
ATOM     37  C   UNL     1       1.082  -2.370   2.460  0.00  0.00    +0.008 A 
ENDBRANCH  27  28
ENDBRANCH   4  27
TORSDOF 5
