REMARK  Name = ZINC35914985
REMARK  4 active torsions:
REMARK  status: ('A' for Active; 'I' for Inactive)
REMARK    1  A    between atoms: C_4  and  C_7
REMARK    2  A    between atoms: C_10  and  C_24
REMARK    3  A    between atoms: N_17  and  C_18
REMARK    4  A    between atoms: N_29  and  C_32
REMARK                            x       y       z     vdW  Elec       q    Type
REMARK                         _______ _______ _______ _____ _____    ______ ____
ROOT
ATOM      1  C   UNL     1       3.252  -0.228   0.572  0.00  0.00    +0.037 C 
ATOM      2  C   UNL     1       3.345  -0.772  -0.856  0.00  0.00    +0.024 C 
ATOM      3  C   UNL     1       4.801  -1.117  -1.178  0.00  0.00    +0.093 C 
ATOM      4  C   UNL     1       5.290  -2.202  -0.214  0.00  0.00    +0.122 C 
ATOM      5  N   UNL     1       5.069  -1.744   1.165  0.00  0.00    -0.284 N 
ATOM      6  C   UNL     1       3.724  -1.302   1.556  0.00  0.00    +0.117 C 
ATOM      7  C   UNL     1       6.082  -1.730   2.054  0.00  0.00    +0.306 C 
ATOM      8  O   UNL     1       7.217  -1.967   1.687  0.00  0.00    -0.252 OA
ATOM      9  N   UNL     1       5.838  -1.451   3.349  0.00  0.00    -0.269 N 
ATOM     10  H   UNL     1       4.923  -1.377   3.665  0.00  0.00    +0.156 HD
ENDROOT
BRANCH   3  11
ATOM     11  C   UNL     1       4.896  -1.622  -2.595  0.00  0.00    +0.220 C 
ATOM     12  O   UNL     1       3.954  -2.196  -3.099  0.00  0.00    -0.275 OA
ATOM     13  N   UNL     1       6.028  -1.435  -3.302  0.00  0.00    -0.298 N 
ATOM     14  C   UNL     1       7.235  -0.901  -2.655  0.00  0.00    +0.126 C 
ATOM     15  C   UNL     1       8.392  -1.879  -2.895  0.00  0.00    +0.124 C 
ATOM     16  N   UNL     1       8.442  -2.205  -4.327  0.00  0.00    -0.325 N 
ATOM     17  C   UNL     1       7.235  -2.738  -4.974  0.00  0.00    +0.124 C 
ATOM     18  C   UNL     1       6.079  -1.766  -4.733  0.00  0.00    +0.126 C 
BRANCH  16  19
ATOM     19  C   UNL     1       9.616  -2.011  -5.061  0.00  0.00    +0.065 A 
ATOM     20  C   UNL     1      10.549  -3.034  -5.165  0.00  0.00    +0.026 A 
ATOM     21  C   UNL     1      11.708  -2.840  -5.891  0.00  0.00    +0.002 A 
ATOM     22  C   UNL     1      11.941  -1.628  -6.515  0.00  0.00    +0.003 A 
ATOM     23  C   UNL     1      11.015  -0.606  -6.415  0.00  0.00    +0.040 A 
ATOM     24  C   UNL     1       9.850  -0.795  -5.694  0.00  0.00    +0.144 A 
ATOM     25  F   UNL     1       8.942   0.202  -5.602  0.00  0.00    -0.204 F 
ENDBRANCH  16  19
ENDBRANCH   3  11
BRANCH   1  29
ATOM     26  C   UNL     1      -0.798   0.820   1.435  0.00  0.00    +0.000 A 
ATOM     27  C   UNL     1       0.192   1.783   1.492  0.00  0.00    +0.000 A 
ATOM     28  C   UNL     1       1.503   1.444   1.213  0.00  0.00    +0.004 A 
ATOM     29  C   UNL     1       1.823   0.142   0.877  0.00  0.00    -0.043 A 
ATOM     30  C   UNL     1       0.833  -0.821   0.821  0.00  0.00    +0.004 A 
ATOM     31  C   UNL     1      -0.478  -0.482   1.099  0.00  0.00    +0.000 A 
ENDBRANCH   1  29
BRANCH   9  32
ATOM     32  C   UNL     1       6.902  -1.270   4.239  0.00  0.00    +0.035 A 
ATOM     33  C   UNL     1       8.126  -1.880   3.994  0.00  0.00    +0.023 A 
ATOM     34  C   UNL     1       9.175  -1.699   4.874  0.00  0.00    +0.002 A 
ATOM     35  C   UNL     1       9.008  -0.911   5.998  0.00  0.00    +0.000 A 
ATOM     36  C   UNL     1       7.791  -0.302   6.245  0.00  0.00    +0.002 A 
ATOM     37  C   UNL     1       6.740  -0.475   5.366  0.00  0.00    +0.023 A 
ENDBRANCH   9  32
TORSDOF 4
