REMARK  Name = ZINC08451019
REMARK  14 active torsions:
REMARK  status: ('A' for Active; 'I' for Inactive)
REMARK    1  A    between atoms: C_1  and  C_2
REMARK    2  A    between atoms: C_4  and  C_34
REMARK    3  A    between atoms: C_6  and  S_10
REMARK    4  A    between atoms: C_7  and  C_8
REMARK    5  A    between atoms: S_10  and  C_11
REMARK    6  A    between atoms: C_11  and  C_12
REMARK    7  A    between atoms: C_13  and  C_30
REMARK    8  A    between atoms: C_14  and  C_22
REMARK    9  A    between atoms: C_16  and  C_20
REMARK   10  A    between atoms: C_17  and  N_19
REMARK   11  A    between atoms: C_25  and  O_28
REMARK   12  A    between atoms: O_28  and  C_29
REMARK   13  A    between atoms: C_30  and  O_32
REMARK   14  A    between atoms: O_32  and  C_33
REMARK                            x       y       z     vdW  Elec       q    Type
REMARK                         _______ _______ _______ _____ _____    ______ ____
ROOT
ATOM      1  C   UNL     1      -2.392   1.213  -0.087  0.00  0.00    +0.128 C 
ATOM      2  C   UNL     1      -1.260   1.894   0.129  0.00  0.00    +0.088 C 
ATOM      3  C   UNL     1      -1.268   3.393   0.257  0.00  0.00    +0.105 C 
ATOM      4  C   UNL     1      -2.564   3.943  -0.275  0.00  0.00    +0.098 C 
ATOM      5  C   UNL     1      -3.634   3.133  -0.465  0.00  0.00    +0.198 C 
ATOM      6  O   UNL     1      -3.585   1.818  -0.188  0.00  0.00    -0.444 OA
ENDROOT
BRANCH   3   7
ATOM      7  C   UNL     1      -1.120   3.773   1.708  0.00  0.00    -0.034 A 
ATOM      8  C   UNL     1      -2.063   3.357   2.630  0.00  0.00    +0.008 A 
ATOM      9  C   UNL     1      -1.927   3.699   3.961  0.00  0.00    +0.046 A 
ATOM     10  C   UNL     1      -0.849   4.470   4.371  0.00  0.00    +0.120 A 
ATOM     11  C   UNL     1       0.093   4.891   3.444  0.00  0.00    +0.046 A 
ATOM     12  C   UNL     1      -0.045   4.541   2.114  0.00  0.00    +0.008 A 
BRANCH  10  13
ATOM     13  O   UNL     1      -0.717   4.814   5.679  0.00  0.00    -0.495 OA
ATOM     14  C   UNL     1      -1.724   4.346   6.578  0.00  0.00    +0.277 C 
ENDBRANCH  10  13
ENDBRANCH   3   7
BRANCH   5  15
ATOM     15  N   UNL     1      -4.799   3.670  -0.953  0.00  0.00    -0.328 N 
ATOM     16  H   UNL     1      -4.848   4.616  -1.157  0.00  0.00    +0.145 HD
ATOM     17  H   UNL     1      -5.572   3.102  -1.094  0.00  0.00    +0.145 HD
ENDBRANCH   5  15
BRANCH   4  18
ATOM     18  C   UNL     1      -2.668   5.337  -0.583  0.00  0.00    +0.101 C 
ATOM     19  N   UNL     1      -2.751   6.444  -0.827  0.00  0.00    -0.191 NA
ENDBRANCH   4  18
BRANCH   2  20
ATOM     20  C   UNL     1      -0.034   1.192   0.233  0.00  0.00    +0.339 C 
ATOM     21  O   UNL     1       0.729   1.157  -0.714  0.00  0.00    -0.245 OA
BRANCH  20  22
ATOM     22  O   UNL     1       0.290   0.568   1.385  0.00  0.00    -0.465 OA
ATOM     23  C   UNL     1       1.545  -0.115   1.421  0.00  0.00    +0.280 C 
ENDBRANCH  20  22
ENDBRANCH   2  20
BRANCH   1  24
ATOM     24  C   UNL     1      -2.325  -0.287  -0.215  0.00  0.00    +0.150 C 
BRANCH  24  25
ATOM     25  S   UNL     1      -2.945  -1.051   1.305  0.00  0.00    -0.097 S 
BRANCH  25  31
ATOM     26  C   UNL     1      -3.356  -6.188   2.422  0.00  0.00    +0.045 C 
ATOM     27  C   UNL     1      -2.972  -5.089   1.465  0.00  0.00    -0.029 A 
ATOM     28  C   UNL     1      -2.454  -5.385   0.216  0.00  0.00    +0.027 A 
ATOM     29  C   UNL     1      -2.110  -4.355  -0.641  0.00  0.00    +0.040 A 
ATOM     30  N   UNL     1      -2.272  -3.094  -0.293  0.00  0.00    -0.244 NA
ATOM     31  C   UNL     1      -2.757  -2.753   0.891  0.00  0.00    +0.115 A 
ATOM     32  C   UNL     1      -3.130  -3.744   1.817  0.00  0.00    +0.086 A 
ATOM     33  C   UNL     1      -1.548  -4.682  -2.000  0.00  0.00    +0.065 C 
BRANCH  32  34
ATOM     34  C   UNL     1      -3.661  -3.382   3.097  0.00  0.00    +0.102 C 
ATOM     35  N   UNL     1      -4.083  -3.096   4.112  0.00  0.00    -0.191 NA
ENDBRANCH  32  34
ENDBRANCH  25  31
ENDBRANCH  24  25
ENDBRANCH   1  24
TORSDOF 10
