REMARK  Name = ZINC37641343
REMARK  4 active torsions:
REMARK  status: ('A' for Active; 'I' for Inactive)
REMARK    1  A    between atoms: C_1  and  C_2
REMARK    2  A    between atoms: C_3  and  N_21
REMARK    3  A    between atoms: C_5  and  C_9
REMARK    4  A    between atoms: C_15  and  C_18
REMARK                            x       y       z     vdW  Elec       q    Type
REMARK                         _______ _______ _______ _____ _____    ______ ____
ROOT
ATOM      1  C   UNL     1       0.059  -4.258  -0.016  0.00  0.00    +0.247 C 
ATOM      2  O   UNL     1      -0.007  -4.864  -1.068  0.00  0.00    -0.270 OA
ATOM      3  N   UNL     1       0.176  -4.934   1.144  0.00  0.00    -0.297 N 
ATOM      4  C   UNL     1       0.168  -4.221   2.429  0.00  0.00    +0.108 C 
ATOM      5  C   UNL     1       1.415  -4.623   3.223  0.00  0.00    +0.020 C 
ATOM      6  C   UNL     1       1.466  -6.147   3.349  0.00  0.00    +0.016 C 
ATOM      7  C   UNL     1       1.558  -6.773   1.956  0.00  0.00    +0.092 C 
ATOM      8  C   UNL     1       0.306  -6.397   1.148  0.00  0.00    +0.120 C 
ENDROOT
BRANCH   1  13
ATOM      9  C   UNL     1      -0.113   1.501   0.003  0.00  0.00    +0.048 C 
ATOM     10  C   UNL     1      -0.069  -0.006  -0.001  0.00  0.00    +0.005 A 
ATOM     11  C   UNL     1      -0.919  -0.726   0.829  0.00  0.00    +0.031 A 
ATOM     12  C   UNL     1      -0.881  -2.112   0.827  0.00  0.00    +0.036 A 
ATOM     13  C   UNL     1       0.013  -2.780  -0.010  0.00  0.00    +0.041 A 
ATOM     14  C   UNL     1       0.864  -2.050  -0.841  0.00  0.00    +0.051 A 
ATOM     15  C   UNL     1       0.815  -0.668  -0.836  0.00  0.00    +0.129 A 
ATOM     16  F   UNL     1       1.635   0.038  -1.645  0.00  0.00    -0.205 F 
BRANCH  11  17
ATOM     17  N   UNL     1      -1.813  -0.053   1.666  0.00  0.00    -0.358 N 
ATOM     18  H   UNL     1      -1.840   0.916   1.668  0.00  0.00    +0.142 HD
ATOM     19  H   UNL     1      -2.407  -0.556   2.245  0.00  0.00    +0.142 HD
ENDBRANCH  11  17
ENDBRANCH   1  13
BRANCH   7  20
ATOM     20  C   UNL     1       1.641  -8.273   2.083  0.00  0.00    +0.215 C 
ATOM     21  O   UNL     1       1.629  -8.790   3.180  0.00  0.00    -0.276 OA
ATOM     22  N   UNL     1       1.730  -9.039   0.978  0.00  0.00    -0.329 N 
ATOM     23  H   UNL     1       1.740  -8.625   0.100  0.00  0.00    +0.145 HD
ATOM     24  H   UNL     1       1.784 -10.004   1.060  0.00  0.00    +0.145 HD
ENDBRANCH   7  20
TORSDOF 3
