REMARK  Name = ZINC19371896
REMARK  4 active torsions:
REMARK  status: ('A' for Active; 'I' for Inactive)
REMARK    1  A    between atoms: C_4  and  C_7
REMARK    2  A    between atoms: C_7  and  N_8
REMARK    3  A    between atoms: N_21  and  C_24
REMARK    4  A    between atoms: C_24  and  C_25
REMARK                            x       y       z     vdW  Elec       q    Type
REMARK                         _______ _______ _______ _____ _____    ______ ____
ROOT
ATOM      1  N   UNL     1       4.153  -0.953   1.342  0.00  0.00    +0.382 N 
ATOM      2  C   UNL     1       4.422   0.329   2.003  0.00  0.00    -0.076 C 
ATOM      3  C   UNL     1       4.794   0.082   3.468  0.00  0.00    +0.013 C 
ATOM      4  C   UNL     1       6.025  -0.815   3.531  0.00  0.00    +0.095 C 
ATOM      5  C   UNL     1       5.782  -2.109   2.761  0.00  0.00    +0.013 C 
ATOM      6  C   UNL     1       5.371  -1.772   1.325  0.00  0.00    -0.076 C 
ATOM      7  C   UNL     1       7.236  -0.093   2.983  0.00  0.00    +0.205 C 
ATOM      8  N   UNL     1       7.365   0.390   1.794  0.00  0.00    -0.269 NA
ATOM      9  O   UNL     1       8.163  -0.049   3.978  0.00  0.00    -0.457 OA
ATOM     10  C   UNL     1       7.443  -0.141   5.217  0.00  0.00    +0.161 C 
ATOM     11  N   UNL     1       6.360  -1.117   4.943  0.00  0.00    -0.266 NA
ATOM     12  C   UNL     1       8.348  -0.657   6.329  0.00  0.00    +0.046 C 
ATOM     13  C   UNL     1       9.413   0.395   6.648  0.00  0.00    -0.073 C 
ATOM     14  N   UNL     1       8.762   1.647   7.054  0.00  0.00    +0.383 N 
ATOM     15  C   UNL     1       7.975   2.185   5.937  0.00  0.00    -0.073 C 
ATOM     16  C   UNL     1       6.846   1.211   5.591  0.00  0.00    +0.046 C 
ATOM     17  H   UNL     1       8.187   0.838   1.539  0.00  0.00    +0.190 HD
ATOM     18  H   UNL     1       5.567  -0.956   5.545  0.00  0.00    +0.127 HD
ATOM     19  H   UNL     1       8.153   1.468   7.838  0.00  0.00    -0.081 HD
ATOM     20  H   UNL     1       3.427  -1.442   1.844  0.00  0.00    -0.081 HD
ENDROOT
BRANCH   1  21
ATOM     21  C   UNL     1       3.711  -0.707  -0.038  0.00  0.00    -0.043 C 
BRANCH  21  25
ATOM     22  C   UNL     1      -0.017   1.378   0.010  0.00  0.00    +0.000 A 
ATOM     23  C   UNL     1       1.171   2.086   0.002  0.00  0.00    +0.000 A 
ATOM     24  C   UNL     1       2.377   1.411  -0.013  0.00  0.00    +0.002 A 
ATOM     25  C   UNL     1       2.396   0.029  -0.020  0.00  0.00    -0.064 A 
ATOM     26  C   UNL     1       1.208  -0.679  -0.012  0.00  0.00    +0.002 A 
ATOM     27  C   UNL     1       0.002  -0.004   0.002  0.00  0.00    +0.000 A 
ENDBRANCH  21  25
ENDBRANCH   1  21
BRANCH  14  28
ATOM     28  C   UNL     1       9.786   2.625   7.446  0.00  0.00    -0.043 C 
BRANCH  28  29
ATOM     29  C   UNL     1       9.117   3.866   7.979  0.00  0.00    -0.064 A 
ATOM     30  C   UNL     1       8.785   4.896   7.118  0.00  0.00    +0.002 A 
ATOM     31  C   UNL     1       8.172   6.034   7.607  0.00  0.00    +0.000 A 
ATOM     32  C   UNL     1       7.890   6.142   8.956  0.00  0.00    +0.000 A 
ATOM     33  C   UNL     1       8.220   5.112   9.816  0.00  0.00    +0.000 A 
ATOM     34  C   UNL     1       8.830   3.972   9.327  0.00  0.00    +0.002 A 
ENDBRANCH  28  29
ENDBRANCH  14  28
TORSDOF 4
