REMARK  Name = ZINC39499947
REMARK  13 active torsions:
REMARK  status: ('A' for Active; 'I' for Inactive)
REMARK    1  A    between atoms: C_1  and  C_2
REMARK    2  A    between atoms: C_4  and  C_9
REMARK    3  A    between atoms: C_5  and  C_8
REMARK    4  A    between atoms: C_9  and  C_11
REMARK    5  A    between atoms: C_9  and  N_12
REMARK    6  A    between atoms: N_12  and  C_13
REMARK    7  A    between atoms: N_12  and  C_14
REMARK    8  A    between atoms: C_14  and  C_15
REMARK    9  A    between atoms: C_22  and  C_35
REMARK   10  A    between atoms: C_24  and  N_26
REMARK   11  A    between atoms: C_27  and  C_29
REMARK   12  A    between atoms: C_35  and  O_37
REMARK   13  A    between atoms: O_37  and  C_38
REMARK                            x       y       z     vdW  Elec       q    Type
REMARK                         _______ _______ _______ _____ _____    ______ ____
ROOT
ATOM      1  C   UNL     1      -1.195   2.887  -4.699  0.00  0.00    +0.057 A 
ATOM      2  C   UNL     1      -0.108   3.474  -5.316  0.00  0.00    +0.025 A 
ATOM      3  C   UNL     1      -0.120   4.829  -5.593  0.00  0.00    +0.010 A 
ATOM      4  C   UNL     1      -1.236   5.593  -5.240  0.00  0.00    +0.006 A 
ATOM      5  C   UNL     1      -2.280   4.919  -4.606  0.00  0.00    +0.103 A 
ATOM      6  N   UNL     1      -2.243   3.622  -4.372  0.00  0.00    -0.244 NA
ATOM      7  S   UNL     1      -3.517   6.146  -4.238  0.00  0.00    -0.089 S 
ATOM      8  C   UNL     1      -2.513   7.658  -4.542  0.00  0.00    +0.186 C 
ATOM      9  C   UNL     1      -1.435   7.068  -5.479  0.00  0.00    +0.130 C 
ENDROOT
BRANCH   9  10
ATOM     10  N   UNL     1      -1.845   7.275  -6.870  0.00  0.00    -0.303 N 
ATOM     11  C   UNL     1      -0.915   7.470  -7.825  0.00  0.00    +0.245 C 
ATOM     12  O   UNL     1       0.265   7.472  -7.532  0.00  0.00    -0.270 OA
ATOM     13  H   UNL     1      -2.787   7.273  -7.103  0.00  0.00    +0.150 HD
BRANCH  11  14
ATOM     14  C   UNL     1      -1.329   7.679  -9.229  0.00  0.00    +0.037 A 
ATOM     15  C   UNL     1      -2.683   7.683  -9.567  0.00  0.00    +0.013 A 
ATOM     16  C   UNL     1      -3.062   7.879 -10.879  0.00  0.00    +0.001 A 
ATOM     17  C   UNL     1      -2.104   8.072 -11.858  0.00  0.00    +0.000 A 
ATOM     18  C   UNL     1      -0.760   8.070 -11.529  0.00  0.00    +0.001 A 
ATOM     19  C   UNL     1      -0.367   7.881 -10.220  0.00  0.00    +0.013 A 
ENDBRANCH  11  14
ENDBRANCH   9  10
BRANCH   8  20
ATOM     20  C   UNL     1      -3.321   8.724  -5.235  0.00  0.00    +0.322 C 
ATOM     21  O   UNL     1      -2.998   9.884  -5.142  0.00  0.00    -0.250 OA
BRANCH  20  22
ATOM     22  O   UNL     1      -4.401   8.384  -5.957  0.00  0.00    -0.467 OA
ATOM     23  C   UNL     1      -5.121   9.446  -6.587  0.00  0.00    +0.280 C 
ENDBRANCH  20  22
ENDBRANCH   8  20
BRANCH   1  24
ATOM     24  C   UNL     1      -1.189   1.409  -4.406  0.00  0.00    +0.140 C 
BRANCH  24  25
ATOM     25  N   UNL     1      -0.737   1.186  -3.026  0.00  0.00    -0.293 NA
ATOM     26  C   UNL     1       0.669   1.581  -2.862  0.00  0.00    +0.105 C 
BRANCH  25  27
ATOM     27  C   UNL     1      -0.941  -0.212  -2.625  0.00  0.00    +0.084 C 
ATOM     28  C   UNL     1      -2.397  -0.608  -2.879  0.00  0.00    +0.029 C 
BRANCH  27  31
ATOM     29  C   UNL     1      -0.986   1.877  -0.094  0.00  0.00    +0.039 C 
ATOM     30  C   UNL     1      -1.250   0.374   0.013  0.00  0.00    +0.154 C 
ATOM     31  C   UNL     1      -0.628  -0.365  -1.159  0.00  0.00    -0.005 C 
ATOM     32  C   UNL     1       0.260  -1.182  -0.588  0.00  0.00    +0.063 C 
ATOM     33  N   UNL     1       0.255  -1.034   0.755  0.00  0.00    -0.159 NA
ATOM     34  N   UNL     1      -0.551  -0.196   1.177  0.00  0.00    -0.180 NA
ATOM     35  C   UNL     1       1.148  -2.140  -1.340  0.00  0.00    +0.067 C 
ENDBRANCH  27  31
ENDBRANCH  25  27
ENDBRANCH  24  25
ENDBRANCH   1  24
TORSDOF 8
