REMARK  Name = ZINC14986760
REMARK  9 active torsions:
REMARK  status: ('A' for Active; 'I' for Inactive)
REMARK    1  A    between atoms: C_4  and  C_7
REMARK    2  A    between atoms: C_7  and  C_8
REMARK    3  A    between atoms: C_7  and  C_32
REMARK    4  A    between atoms: C_8  and  C_9
REMARK    5  A    between atoms: C_9  and  N_75
REMARK    6  A    between atoms: C_10  and  N_75
REMARK    7  A    between atoms: N_13  and  C_16
REMARK    8  A    between atoms: C_19  and  C_22
REMARK    9  A    between atoms: C_28  and  O_31
REMARK                            x       y       z     vdW  Elec       q    Type
REMARK                         _______ _______ _______ _____ _____    ______ ____
ROOT
ATOM      1  C   UNL     1       1.987  -7.602  -0.612  0.00  0.00    -0.069 C 
ATOM      2  C   UNL     1       1.448  -7.344   0.798  0.00  0.00    +0.003 C 
ATOM      3  C   UNL     1       0.967  -5.894   0.898  0.00  0.00    +0.103 C 
ATOM      4  N   UNL     1      -0.086  -5.657  -0.098  0.00  0.00    -0.330 N 
ATOM      5  C   UNL     1       0.421  -5.853  -1.463  0.00  0.00    +0.103 C 
ATOM      6  C   UNL     1       0.886  -7.301  -1.633  0.00  0.00    +0.003 C 
ENDROOT
BRANCH   4   7
ATOM      7  C   UNL     1      -0.637  -4.390   0.051  0.00  0.00    +0.030 A 
ATOM      8  C   UNL     1      -1.655  -3.970  -0.800  0.00  0.00    +0.024 A 
ATOM      9  C   UNL     1      -2.203  -2.716  -0.655  0.00  0.00    +0.015 A 
ATOM     10  C   UNL     1      -1.735  -1.863   0.349  0.00  0.00    +0.037 A 
ATOM     11  C   UNL     1      -0.709  -2.285   1.199  0.00  0.00    +0.015 A 
ATOM     12  C   UNL     1      -0.169  -3.542   1.052  0.00  0.00    +0.024 A 
BRANCH  10  13
ATOM     13  C   UNL     1      -2.320  -0.518   0.508  0.00  0.00    +0.247 C 
ATOM     14  O   UNL     1      -2.679   0.108  -0.470  0.00  0.00    -0.270 OA
ATOM     15  N   UNL     1      -2.458   0.016   1.738  0.00  0.00    -0.295 N 
ATOM     16  C   UNL     1      -2.147  -0.775   2.937  0.00  0.00    +0.108 C 
ATOM     17  C   UNL     1      -3.355  -0.745   3.878  0.00  0.00    +0.021 C 
ATOM     18  C   UNL     1      -3.739   0.710   4.162  0.00  0.00    +0.034 C 
ATOM     19  C   UNL     1      -4.123   1.406   2.855  0.00  0.00    +0.132 C 
ATOM     20  C   UNL     1      -2.921   1.400   1.905  0.00  0.00    +0.139 C 
BRANCH  19  21
ATOM     21  O   UNL     1      -4.508   2.755   3.128  0.00  0.00    -0.390 OA
ATOM     22  H   UNL     1      -4.763   3.258   2.343  0.00  0.00    +0.210 HD
ENDBRANCH  19  21
ENDBRANCH  10  13
ENDBRANCH   4   7
BRANCH   1  23
ATOM     23  N   UNL     1       2.392  -9.016  -0.725  0.00  0.00    +0.381 N 
ATOM     24  H   UNL     1       2.777  -9.331   0.173  0.00  0.00    -0.086 HD
ATOM     25  H   UNL     1       1.572  -9.585  -0.965  0.00  0.00    -0.086 HD
BRANCH  23  26
ATOM     26  C   UNL     1       3.417  -9.172  -1.775  0.00  0.00    -0.081 C 
BRANCH  26  27
ATOM     27  C   UNL     1       3.817 -10.646  -1.869  0.00  0.00    -0.006 C 
BRANCH  27  28
ATOM     28  C   UNL     1       4.881 -10.816  -2.956  0.00  0.00    +0.047 C 
BRANCH  28  32
ATOM     29  C   UNL     1       6.250 -14.863  -2.984  0.00  0.00    +0.000 A 
ATOM     30  C   UNL     1       4.897 -14.591  -3.052  0.00  0.00    +0.000 A 
ATOM     31  C   UNL     1       4.453 -13.281  -3.042  0.00  0.00    +0.004 A 
ATOM     32  C   UNL     1       5.364 -12.244  -2.966  0.00  0.00    -0.040 A 
ATOM     33  C   UNL     1       6.718 -12.516  -2.904  0.00  0.00    +0.004 A 
ATOM     34  C   UNL     1       7.161 -13.825  -2.908  0.00  0.00    +0.000 A 
ENDBRANCH  28  32
BRANCH  28  35
ATOM     35  C   UNL     1       4.285 -10.478  -4.298  0.00  0.00    -0.040 A 
ATOM     36  C   UNL     1       3.109 -11.081  -4.705  0.00  0.00    +0.004 A 
ATOM     37  C   UNL     1       2.561 -10.767  -5.934  0.00  0.00    +0.000 A 
ATOM     38  C   UNL     1       3.194  -9.858  -6.762  0.00  0.00    +0.000 A 
ATOM     39  C   UNL     1       4.373  -9.260  -6.358  0.00  0.00    +0.000 A 
ATOM     40  C   UNL     1       4.918  -9.570  -5.126  0.00  0.00    +0.004 A 
ENDBRANCH  28  35
ENDBRANCH  27  28
ENDBRANCH  26  27
ENDBRANCH  23  26
ENDBRANCH   1  23
TORSDOF 9
