REMARK  Name = ZINC06361446
REMARK  3 active torsions:
REMARK  status: ('A' for Active; 'I' for Inactive)
REMARK    1  A    between atoms: C_4  and  C_13
REMARK    2  A    between atoms: C_6  and  C_10
REMARK    3  A    between atoms: C_6  and  O_12
REMARK                            x       y       z     vdW  Elec       q    Type
REMARK                         _______ _______ _______ _____ _____    ______ ____
ROOT
ATOM      1  C   UNL     1       1.473   2.114   1.147  0.00  0.00    +0.102 C 
ATOM      2  C   UNL     1       0.089   1.577   1.413  0.00  0.00    +0.168 C 
ATOM      3  O   UNL     1       0.091   0.426   2.263  0.00  0.00    -0.361 OA
ATOM      4  C   UNL     1       1.094  -0.579   2.032  0.00  0.00    +0.274 C 
ATOM      5  C   UNL     1       1.315  -0.914   0.578  0.00  0.00    +0.210 C 
ATOM      6  C   UNL     1       2.463  -0.019   0.041  0.00  0.00    +0.124 C 
ATOM      7  C   UNL     1       2.016   1.360  -0.057  0.00  0.00    +0.139 C 
ATOM      8  O   UNL     1       2.081   1.924  -1.122  0.00  0.00    -0.297 OA
ENDROOT
BRANCH   5   9
ATOM      9  C   UNL     1       1.698  -2.365   0.443  0.00  0.00    +0.391 C 
ATOM     10  O   UNL     1       2.863  -2.682   0.401  0.00  0.00    -0.243 OA
ATOM     11  O   UNL     1       0.743  -3.307   0.370  0.00  0.00    -0.243 OA
ENDBRANCH   5   9
BRANCH   4  12
ATOM     12  C   UNL     1       0.686  -1.837   2.756  0.00  0.00    +0.388 C 
ATOM     13  O   UNL     1      -0.469  -2.007   3.068  0.00  0.00    -0.243 OA
ATOM     14  O   UNL     1       1.605  -2.768   3.053  0.00  0.00    -0.243 OA
ENDBRANCH   4  12
BRANCH   5  15
ATOM     15  O   UNL     1       0.119  -0.659  -0.162  0.00  0.00    -0.375 OA
ATOM     16  H   UNL     1       0.198  -0.838  -1.109  0.00  0.00    +0.211 HD
ENDBRANCH   5  15
TORSDOF 3
