REMARK  Name = ZINC04113166
REMARK  9 active torsions:
REMARK  status: ('A' for Active; 'I' for Inactive)
REMARK    1  A    between atoms: C_1  and  C_2
REMARK    2  A    between atoms: C_7  and  O_32
REMARK    3  A    between atoms: C_9  and  O_31
REMARK    4  A    between atoms: C_15  and  N_53
REMARK    5  A    between atoms: C_17  and  O_28
REMARK    6  A    between atoms: C_18  and  C_25
REMARK    7  A    between atoms: C_21  and  O_24
REMARK    8  A    between atoms: C_29  and  N_53
REMARK    9  A    between atoms: C_30  and  N_53
REMARK                            x       y       z     vdW  Elec       q    Type
REMARK                         _______ _______ _______ _____ _____    ______ ____
ROOT
ATOM      1  C   UNL     1       0.708   4.995  -0.505  0.00  0.00    +0.044 C 
ATOM      2  C   UNL     1      -0.680   4.428  -0.353  0.00  0.00    -0.039 A 
ATOM      3  C   UNL     1      -0.859   3.032  -0.284  0.00  0.00    -0.008 A 
ATOM      4  C   UNL     1       0.239   2.161  -0.350  0.00  0.00    +0.009 A 
ATOM      5  C   UNL     1       0.045   0.813  -0.289  0.00  0.00    +0.004 A 
ATOM      6  C   UNL     1      -1.231   0.276  -0.159  0.00  0.00    +0.046 A 
ATOM      7  C   UNL     1      -2.336   1.099  -0.093  0.00  0.00    +0.128 A 
ATOM      8  C   UNL     1      -2.163   2.496  -0.147  0.00  0.00    +0.066 A 
ATOM      9  C   UNL     1      -3.263   3.369  -0.072  0.00  0.00    +0.139 A 
ATOM     10  C   UNL     1      -3.048   4.749  -0.136  0.00  0.00    +0.066 A 
ATOM     11  C   UNL     1      -1.746   5.268  -0.285  0.00  0.00    -0.029 A 
ATOM     12  C   UNL     1      -1.504   6.750  -0.374  0.00  0.00    +0.042 C 
ATOM     13  C   UNL     1      -2.640   7.546   0.267  0.00  0.00    +0.034 C 
ATOM     14  C   UNL     1      -2.407   9.035   0.002  0.00  0.00    +0.005 C 
ATOM     15  C   UNL     1      -3.563   9.869   0.406  0.00  0.00    +0.097 C 
ATOM     16  C   UNL     1      -4.829   9.355   0.545  0.00  0.00    +0.118 C 
ATOM     17  C   UNL     1      -5.073   7.934   0.294  0.00  0.00    +0.210 C 
ATOM     18  O   UNL     1      -6.125   7.417   0.608  0.00  0.00    -0.288 OA
ATOM     19  C   UNL     1      -3.976   7.124  -0.370  0.00  0.00    +0.193 C 
ATOM     20  C   UNL     1      -4.194   5.661  -0.041  0.00  0.00    +0.206 C 
ATOM     21  O   UNL     1      -5.287   5.254   0.293  0.00  0.00    -0.288 OA
ENDROOT
BRANCH  16  22
ATOM     22  C   UNL     1      -5.939  10.233   0.947  0.00  0.00    +0.248 C 
ATOM     23  O   UNL     1      -6.426  10.128   2.057  0.00  0.00    -0.270 OA
ATOM     24  N   UNL     1      -6.418  11.152   0.086  0.00  0.00    -0.325 N 
ATOM     25  H   UNL     1      -6.074  11.193  -0.820  0.00  0.00    +0.145 HD
ATOM     26  H   UNL     1      -7.105  11.774   0.372  0.00  0.00    +0.145 HD
ENDBRANCH  16  22
BRANCH  14  29
ATOM     27  C   UNL     1      -2.763  10.514  -1.881  0.00  0.00    -0.096 C 
ATOM     28  C   UNL     1      -0.760   9.158  -1.769  0.00  0.00    -0.096 C 
ATOM     29  N   UNL     1      -2.203   9.216  -1.451  0.00  0.00    +0.383 N 
ATOM     30  H   UNL     1      -2.686   8.462  -1.952  0.00  0.00    -0.082 HD
ENDBRANCH  14  29
BRANCH  19  31
ATOM     31  O   UNL     1      -3.962   7.338  -1.783  0.00  0.00    -0.373 OA
ATOM     32  H   UNL     1      -4.784   7.086  -2.227  0.00  0.00    +0.211 HD
ENDBRANCH  19  31
BRANCH  15  33
ATOM     33  O   UNL     1      -3.364  11.171   0.658  0.00  0.00    -0.512 OA
ATOM     34  H   UNL     1      -4.231  11.597   0.917  0.00  0.00    +0.292 HD
ENDBRANCH  15  33
BRANCH   9  35
ATOM     35  O   UNL     1      -4.517   2.878   0.061  0.00  0.00    -0.505 OA
ATOM     36  H   UNL     1      -4.964   2.708  -0.779  0.00  0.00    +0.292 HD
ENDBRANCH   9  35
BRANCH   7  37
ATOM     37  O   UNL     1      -3.578   0.567   0.026  0.00  0.00    -0.506 OA
ATOM     38  H   UNL     1      -3.865   0.441   0.941  0.00  0.00    +0.292 HD
ENDBRANCH   7  37
TORSDOF 6
