REMARK  Name = ZINC13406928
REMARK  6 active torsions:
REMARK  status: ('A' for Active; 'I' for Inactive)
REMARK    1  A    between atoms: C_1  and  C_2
REMARK    2  A    between atoms: C_5  and  S_8
REMARK    3  A    between atoms: S_8  and  O_11
REMARK    4  A    between atoms: O_11  and  C_12
REMARK    5  A    between atoms: C_18  and  C_36
REMARK    6  A    between atoms: C_29  and  C_35
REMARK                            x       y       z     vdW  Elec       q    Type
REMARK                         _______ _______ _______ _____ _____    ______ ____
ROOT
ATOM      1  C   UNL     1       0.600  -1.956  -0.918  0.00  0.00    +0.156 C 
ATOM      2  C   UNL     1       1.926  -2.208  -1.678  0.00  0.00    +0.035 C 
ATOM      3  C   UNL     1       2.593  -0.819  -1.876  0.00  0.00    +0.007 C 
ATOM      4  C   UNL     1       1.914   0.040  -0.798  0.00  0.00    +0.001 C 
ATOM      5  C   UNL     1       0.444  -0.429  -0.911  0.00  0.00    -0.000 C 
ATOM      6  C   UNL     1      -0.338   0.153   0.242  0.00  0.00    +0.010 C 
ATOM      7  C   UNL     1      -0.239   1.675   0.245  0.00  0.00    +0.005 C 
ATOM      8  C   UNL     1       1.159   2.251   0.072  0.00  0.00    -0.001 C 
ATOM      9  C   UNL     1       1.982   1.532  -0.984  0.00  0.00    -0.004 C 
ATOM     10  C   UNL     1       3.425   2.021  -1.054  0.00  0.00    +0.004 C 
ATOM     11  C   UNL     1       4.061   2.008   0.335  0.00  0.00    +0.005 C 
ATOM     12  C   UNL     1       3.274   2.970   1.223  0.00  0.00    +0.002 C 
ATOM     13  C   UNL     1       1.846   2.462   1.417  0.00  0.00    -0.025 C 
ATOM     14  C   UNL     1       1.065   3.546   2.183  0.00  0.00    +0.015 C 
ATOM     15  C   UNL     1       1.666   3.770   3.568  0.00  0.00    +0.075 C 
ATOM     16  C   UNL     1       3.148   4.029   3.454  0.00  0.00    +0.134 C 
ATOM     17  O   UNL     1       3.665   4.938   4.062  0.00  0.00    -0.297 OA
ATOM     18  C   UNL     1       3.982   3.132   2.567  0.00  0.00    +0.078 C 
ATOM     19  C   UNL     1       1.850   1.186   2.255  0.00  0.00    +0.012 C 
ATOM     20  C   UNL     1      -0.189  -0.010  -2.238  0.00  0.00    +0.014 C 
ENDROOT
BRANCH   1  21
ATOM     21  O   UNL     1       0.690  -2.448   0.418  0.00  0.00    -0.230 OA
BRANCH  21  22
ATOM     22  S   UNL     1       0.033  -3.806   0.623  0.00  0.00    +0.112 S 
ATOM     23  O   UNL     1       0.029  -4.048   2.023  0.00  0.00    -0.142 OA
ATOM     24  O   UNL     1      -1.157  -3.802  -0.153  0.00  0.00    -0.142 OA
BRANCH  22  29
ATOM     25  C   UNL     1       3.679  -7.942  -1.829  0.00  0.00    +0.044 C 
ATOM     26  C   UNL     1       2.768  -6.909  -1.217  0.00  0.00    -0.050 A 
ATOM     27  C   UNL     1       2.921  -6.553   0.111  0.00  0.00    +0.005 A 
ATOM     28  C   UNL     1       2.086  -5.605   0.672  0.00  0.00    +0.030 A 
ATOM     29  C   UNL     1       1.098  -5.013  -0.093  0.00  0.00    +0.117 A 
ATOM     30  C   UNL     1       0.942  -5.373  -1.419  0.00  0.00    +0.030 A 
ATOM     31  C   UNL     1       1.781  -6.316  -1.982  0.00  0.00    +0.005 A 
ENDBRANCH  22  29
ENDBRANCH  21  22
ENDBRANCH   1  21
TORSDOF 3
