REMARK  Name = ZINC08983974
REMARK  12 active torsions:
REMARK  status: ('A' for Active; 'I' for Inactive)
REMARK    1  A    between atoms: C_1  and  C_2
REMARK    2  A    between atoms: C_3  and  C_37
REMARK    3  A    between atoms: N_6  and  C_16
REMARK    4  A    between atoms: C_7  and  N_80
REMARK    5  A    between atoms: C_9  and  C_10
REMARK    6  A    between atoms: C_9  and  N_80
REMARK    7  A    between atoms: C_16  and  C_17
REMARK    8  A    between atoms: C_17  and  C_36
REMARK    9  A    between atoms: C_21  and  C_35
REMARK   10  A    between atoms: C_30  and  C_32
REMARK   11  A    between atoms: C_32  and  C_33
REMARK   12  A    between atoms: C_32  and  C_34
REMARK                            x       y       z     vdW  Elec       q    Type
REMARK                         _______ _______ _______ _____ _____    ______ ____
ROOT
ATOM      1  C   UNL     1       2.192  -2.247  -6.668  0.00  0.00    -0.013 C 
ATOM      2  C   UNL     1       3.345  -1.445  -7.275  0.00  0.00    +0.008 C 
ATOM      3  C   UNL     1       4.465  -1.198  -6.274  0.00  0.00    +0.001 C 
ATOM      4  C   UNL     1       3.923  -0.469  -5.044  0.00  0.00    +0.011 C 
ATOM      5  C   UNL     1       2.863  -1.333  -4.366  0.00  0.00    -0.003 C 
ATOM      6  C   UNL     1       1.751  -1.670  -5.342  0.00  0.00    +0.007 C 
ATOM      7  C   UNL     1       0.692  -2.510  -4.633  0.00  0.00    +0.009 C 
ATOM      8  C   UNL     1      -0.033  -1.607  -3.632  0.00  0.00    +0.036 C 
ATOM      9  C   UNL     1       0.922  -0.723  -2.876  0.00  0.00    -0.043 A 
ATOM     10  C   UNL     1       2.254  -0.585  -3.198  0.00  0.00    -0.038 A 
ATOM     11  C   UNL     1       3.073   0.241  -2.446  0.00  0.00    +0.005 A 
ATOM     12  C   UNL     1       2.560   0.943  -1.372  0.00  0.00    +0.004 A 
ATOM     13  C   UNL     1       1.222   0.815  -1.048  0.00  0.00    -0.045 A 
ATOM     14  C   UNL     1       0.411  -0.014  -1.793  0.00  0.00    +0.007 A 
ATOM     15  C   UNL     1       3.533  -2.578  -3.790  0.00  0.00    +0.016 C 
ATOM     16  C   UNL     1       1.009  -2.142  -7.661  0.00  0.00    +0.013 C 
ENDROOT
BRANCH  13  17
ATOM     17  C   UNL     1       0.653   1.578   0.120  0.00  0.00    +0.013 C 
ATOM     18  C   UNL     1       0.834   3.079  -0.115  0.00  0.00    +0.012 C 
ATOM     19  C   UNL     1       1.384   1.171   1.401  0.00  0.00    +0.012 C 
ENDBRANCH  13  17
BRANCH   1  20
ATOM     20  C   UNL     1       2.573  -3.724  -6.571  0.00  0.00    +0.113 C 
BRANCH  20  26
ATOM     21  C   UNL     1       4.570  -5.335 -11.125  0.00  0.00    +0.039 C 
ATOM     22  C   UNL     1       3.626  -5.014  -9.995  0.00  0.00    -0.062 C 
ATOM     23  C   UNL     1       2.316  -5.236  -9.972  0.00  0.00    +0.010 C 
ATOM     24  C   UNL     1       1.758  -4.788  -8.692  0.00  0.00    +0.241 C 
ATOM     25  O   UNL     1       0.586  -4.865  -8.377  0.00  0.00    -0.270 OA
ATOM     26  N   UNL     1       2.734  -4.276  -7.919  0.00  0.00    -0.307 N 
ATOM     27  C   UNL     1       3.990  -4.380  -8.673  0.00  0.00    +0.046 C 
ATOM     28  C   UNL     1       1.523  -5.859 -11.092  0.00  0.00    +0.049 C 
BRANCH  27  29
ATOM     29  N   UNL     1       4.947  -5.237  -7.948  0.00  0.00    +0.395 N 
ATOM     30  H   UNL     1       5.391  -5.884  -8.611  0.00  0.00    -0.083 HD
ATOM     31  H   UNL     1       4.445  -5.773  -7.231  0.00  0.00    -0.083 HD
BRANCH  29  32
ATOM     32  C   UNL     1       5.986  -4.413  -7.302  0.00  0.00    -0.048 C 
BRANCH  32  33
ATOM     33  C   UNL     1       7.044  -5.331  -6.688  0.00  0.00    +0.101 C 
ATOM     34  C   UNL     1       8.078  -4.491  -5.908  0.00  0.00    +0.032 C 
ATOM     35  C   UNL     1       9.411  -5.211  -6.246  0.00  0.00    +0.030 C 
ATOM     36  C   UNL     1       9.137  -5.670  -7.700  0.00  0.00    +0.160 C 
ATOM     37  O   UNL     1       7.746  -6.026  -7.725  0.00  0.00    -0.378 OA
ENDBRANCH  32  33
ENDBRANCH  29  32
ENDBRANCH  27  29
ENDBRANCH  20  26
ENDBRANCH   1  20
TORSDOF 6
