REMARK  Name = ZINC39666466
REMARK  10 active torsions:
REMARK  status: ('A' for Active; 'I' for Inactive)
REMARK    1  A    between atoms: C_1  and  C_2
REMARK    2  A    between atoms: C_2  and  C_4
REMARK    3  A    between atoms: C_2  and  O_31
REMARK    4  A    between atoms: C_4  and  N_5
REMARK    5  A    between atoms: C_6  and  C_8
REMARK    6  A    between atoms: C_19  and  C_21
REMARK    7  A    between atoms: C_21  and  C_23
REMARK    8  A    between atoms: C_21  and  O_24
REMARK    9  A    between atoms: O_24  and  C_25
REMARK   10  A    between atoms: O_31  and  C_32
REMARK                            x       y       z     vdW  Elec       q    Type
REMARK                         _______ _______ _______ _____ _____    ______ ____
ROOT
ATOM      1  C   UNL     1       0.619  -4.229   1.992  0.00  0.00    +0.100 C 
ATOM      2  C   UNL     1      -0.912  -4.432   1.995  0.00  0.00    +0.121 C 
ATOM      3  N   UNL     1      -1.132  -5.607   2.870  0.00  0.00    -0.297 N 
ATOM      4  C   UNL     1      -0.163  -5.428   3.978  0.00  0.00    +0.115 C 
ATOM      5  C   UNL     1       1.107  -4.883   3.296  0.00  0.00    -0.004 C 
ATOM      6  C   UNL     1       1.780  -3.845   4.188  0.00  0.00    -0.010 C 
ATOM      7  C   UNL     1       2.308  -4.530   5.452  0.00  0.00    -0.082 C 
ATOM      8  N   UNL     1       3.265  -5.578   5.078  0.00  0.00    +0.379 N 
ATOM      9  C   UNL     1       2.588  -6.620   4.298  0.00  0.00    -0.082 C 
ATOM     10  C   UNL     1       2.071  -6.024   2.986  0.00  0.00    -0.010 C 
ATOM     11  C   UNL     1      -2.014  -6.612   2.698  0.00  0.00    +0.256 C 
ATOM     12  O   UNL     1      -2.681  -6.668   1.687  0.00  0.00    -0.272 OA
ATOM     13  H   UNL     1       4.006  -5.174   4.525  0.00  0.00    -0.086 HD
ATOM     14  H   UNL     1       3.658  -5.987   5.913  0.00  0.00    -0.086 HD
ENDROOT
BRANCH   1  16
ATOM     15  N   UNL     1       2.090  -2.329   1.404  0.00  0.00    -0.312 N 
ATOM     16  C   UNL     1       0.953  -2.759   1.986  0.00  0.00    +0.218 C 
ATOM     17  O   UNL     1       0.199  -1.964   2.504  0.00  0.00    -0.275 OA
ATOM     18  H   UNL     1       2.693  -2.965   0.989  0.00  0.00    +0.149 HD
BRANCH  15  19
ATOM     19  C   UNL     1       2.414  -0.900   1.398  0.00  0.00    +0.148 C 
BRANCH  19  21
ATOM     20  C   UNL     1       4.087   0.809   0.674  0.00  0.00    +0.053 C 
ATOM     21  C   UNL     1       3.748  -0.683   0.680  0.00  0.00    +0.187 C 
BRANCH  21  22
ATOM     22  O   UNL     1       4.778  -1.403   1.361  0.00  0.00    -0.486 OA
BRANCH  22  23
ATOM     23  C   UNL     1       5.824  -1.841   0.611  0.00  0.00    +0.139 A 
ATOM     24  C   UNL     1       5.907  -1.501  -0.731  0.00  0.00    +0.047 A 
ATOM     25  C   UNL     1       6.971  -1.947  -1.491  0.00  0.00    +0.004 A 
ATOM     26  C   UNL     1       7.952  -2.733  -0.915  0.00  0.00    +0.002 A 
ATOM     27  C   UNL     1       7.872  -3.075   0.422  0.00  0.00    +0.023 A 
ATOM     28  C   UNL     1       6.813  -2.626   1.189  0.00  0.00    +0.083 A 
ATOM     29 CL   UNL     1       6.716  -3.048   2.870  0.00  0.00    -0.080 Cl
ENDBRANCH  22  23
ENDBRANCH  21  22
ENDBRANCH  19  21
ENDBRANCH  15  19
ENDBRANCH   1  16
BRANCH  11  30
ATOM     30  C   UNL     1      -2.170  -7.668   3.762  0.00  0.00    +0.256 C 
ATOM     31  C   UNL     1      -2.795  -7.043   5.012  0.00  0.00    +0.062 C 
BRANCH  30  32
ATOM     32  O   UNL     1      -3.018  -8.711   3.277  0.00  0.00    -0.480 OA
BRANCH  32  33
ATOM     33  C   UNL     1      -2.865  -9.940   3.837  0.00  0.00    +0.122 A 
ATOM     34  C   UNL     1      -3.579 -11.022   3.343  0.00  0.00    +0.045 A 
ATOM     35  C   UNL     1      -3.422 -12.271   3.913  0.00  0.00    +0.004 A 
ATOM     36  C   UNL     1      -2.555 -12.442   4.977  0.00  0.00    +0.000 A 
ATOM     37  C   UNL     1      -1.843 -11.365   5.472  0.00  0.00    +0.004 A 
ATOM     38  C   UNL     1      -1.992 -10.116   4.901  0.00  0.00    +0.045 A 
ENDBRANCH  32  33
ENDBRANCH  30  32
ENDBRANCH  11  30
TORSDOF 8
