REMARK  Name = ZINC39461464
REMARK  11 active torsions:
REMARK  status: ('A' for Active; 'I' for Inactive)
REMARK    1  A    between atoms: C_1  and  C_2
REMARK    2  A    between atoms: C_2  and  C_4
REMARK    3  A    between atoms: C_2  and  N_16
REMARK    4  A    between atoms: C_7  and  C_10
REMARK    5  A    between atoms: N_16  and  C_17
REMARK    6  A    between atoms: N_16  and  C_18
REMARK    7  A    between atoms: C_18  and  C_19
REMARK    8  A    between atoms: N_27  and  C_30
REMARK    9  A    between atoms: C_30  and  C_31
REMARK   10  A    between atoms: C_35  and  O_37
REMARK   11  A    between atoms: O_37  and  C_38
REMARK                            x       y       z     vdW  Elec       q    Type
REMARK                         _______ _______ _______ _____ _____    ______ ____
ROOT
ATOM      1  C   UNL     1       1.824  -2.413  -2.183  0.00  0.00    +0.001 A 
ATOM      2  C   UNL     1       3.037  -2.818  -1.733  0.00  0.00    +0.017 A 
ATOM      3  C   UNL     1       4.024  -3.286  -2.708  0.00  0.00    -0.001 A 
ATOM      4  C   UNL     1       5.293  -3.717  -2.303  0.00  0.00    +0.013 A 
ATOM      5  C   UNL     1       6.191  -4.148  -3.236  0.00  0.00    +0.039 A 
ATOM      6  C   UNL     1       5.857  -4.163  -4.586  0.00  0.00    +0.125 A 
ATOM      7  C   UNL     1       4.611  -3.741  -5.007  0.00  0.00    +0.064 A 
ATOM      8  C   UNL     1       3.681  -3.299  -4.073  0.00  0.00    +0.055 A 
ATOM      9  N   UNL     1       2.429  -2.875  -4.465  0.00  0.00    -0.304 N 
ATOM     10  C   UNL     1       1.528  -2.452  -3.562  0.00  0.00    +0.253 A 
ATOM     11  O   UNL     1       0.429  -2.088  -3.944  0.00  0.00    -0.267 OA
ATOM     12  F   UNL     1       6.760  -4.593  -5.494  0.00  0.00    -0.205 F 
ENDROOT
BRANCH   1  13
ATOM     13  C   UNL     1       0.785  -1.926  -1.206  0.00  0.00    -0.037 C 
BRANCH  13  14
ATOM     14  N   UNL     1       0.845  -0.461  -1.117  0.00  0.00    +0.384 N 
ATOM     15  C   UNL     1       0.427   0.125  -2.398  0.00  0.00    -0.095 C 
ATOM     16  H   UNL     1       1.790  -0.175  -0.909  0.00  0.00    -0.081 HD
BRANCH  14  18
ATOM     17  C   UNL     1      -1.499  -0.329  -0.421  0.00  0.00    -0.011 C 
ATOM     18  C   UNL     1      -0.052   0.002  -0.051  0.00  0.00    -0.049 C 
BRANCH  18  19
ATOM     19  C   UNL     1       0.097   1.515   0.120  0.00  0.00    +0.081 C 
ATOM     20  C   UNL     1       1.521   1.871   0.592  0.00  0.00    +0.079 C 
ATOM     21  C   UNL     1       1.305   2.534   1.933  0.00  0.00    +0.068 C 
ATOM     22  N   UNL     1       0.045   2.566   2.200  0.00  0.00    -0.191 NA
ATOM     23  N   UNL     1      -0.763   2.001   1.211  0.00  0.00    -0.267 N 
ATOM     24  H   UNL     1      -1.731   1.937   1.238  0.00  0.00    +0.168 HD
BRANCH  21  25
ATOM     25  C   UNL     1       2.373   3.062   2.803  0.00  0.00    -0.002 A 
ATOM     26  C   UNL     1       3.709   2.975   2.405  0.00  0.00    +0.010 A 
ATOM     27  C   UNL     1       4.702   3.471   3.224  0.00  0.00    +0.001 A 
ATOM     28  C   UNL     1       4.378   4.054   4.436  0.00  0.00    +0.000 A 
ATOM     29  C   UNL     1       3.056   4.143   4.837  0.00  0.00    +0.001 A 
ATOM     30  C   UNL     1       2.052   3.656   4.026  0.00  0.00    +0.010 A 
ENDBRANCH  21  25
ENDBRANCH  18  19
ENDBRANCH  14  18
ENDBRANCH  13  14
ENDBRANCH   1  13
BRANCH   9  31
ATOM     31  C   UNL     1       2.074  -2.889  -5.887  0.00  0.00    +0.160 C 
BRANCH  31  32
ATOM     32  C   UNL     1       1.460  -4.220  -6.238  0.00  0.00    -0.024 A 
ATOM     33  C   UNL     1       2.265  -5.262  -6.660  0.00  0.00    +0.005 A 
ATOM     34  C   UNL     1       1.704  -6.484  -6.982  0.00  0.00    +0.004 A 
ATOM     35  C   UNL     1       0.338  -6.667  -6.884  0.00  0.00    +0.045 A 
ATOM     36  C   UNL     1      -0.471  -5.622  -6.461  0.00  0.00    +0.120 A 
ATOM     37  C   UNL     1       0.095  -4.399  -6.132  0.00  0.00    +0.051 A 
BRANCH  36  38
ATOM     38  O   UNL     1      -1.815  -5.799  -6.364  0.00  0.00    -0.495 OA
ATOM     39  C   UNL     1      -2.327  -7.087  -6.713  0.00  0.00    +0.277 C 
ENDBRANCH  36  38
ENDBRANCH  31  32
ENDBRANCH   9  31
TORSDOF 8
