REMARK  Name = ZINC32971315
REMARK  6 active torsions:
REMARK  status: ('A' for Active; 'I' for Inactive)
REMARK    1  A    between atoms: C_1  and  C_2
REMARK    2  A    between atoms: C_5  and  N_9
REMARK    3  A    between atoms: N_9  and  S_10
REMARK    4  A    between atoms: S_10  and  C_13
REMARK    5  A    between atoms: C_15  and  C_19
REMARK    6  A    between atoms: C_17  and  C_18
REMARK                            x       y       z     vdW  Elec       q    Type
REMARK                         _______ _______ _______ _____ _____    ______ ____
ROOT
ATOM      1  S   UNL     1       2.476  -0.261  -0.933  0.00  0.00    +0.076 S 
ATOM      2  O   UNL     1       3.762  -0.853  -0.818  0.00  0.00    -0.150 OA
ATOM      3  O   UNL     1       1.285  -0.950  -0.578  0.00  0.00    -0.150 OA
ENDROOT
BRANCH   1   4
ATOM      4  C   UNL     1       2.294   0.225  -2.617  0.00  0.00    +0.150 A 
ATOM      5  C   UNL     1       3.223   0.015  -3.653  0.00  0.00    +0.082 A 
ATOM      6  C   UNL     1       2.677   0.547  -4.783  0.00  0.00    +0.175 A 
ATOM      7  O   UNL     1       1.472   1.060  -4.464  0.00  0.00    -0.455 OA
ATOM      8  C   UNL     1       1.234   0.861  -3.158  0.00  0.00    +0.129 A 
ATOM      9  C   UNL     1      -0.008   1.284  -2.417  0.00  0.00    +0.088 C 
BRANCH   6  10
ATOM     10  C   UNL     1       3.294   0.560  -6.117  0.00  0.00    +0.202 A 
ATOM     11  C   UNL     1       2.762   1.084  -7.268  0.00  0.00    +0.075 A 
ATOM     12  C   UNL     1       3.750   0.837  -8.240  0.00  0.00    +0.157 A 
ATOM     13  N   UNL     1       4.724   0.218  -7.633  0.00  0.00    -0.086 NA
ATOM     14  O   UNL     1       4.494   0.054  -6.458  0.00  0.00    -0.352 OA
ENDBRANCH   6  10
ENDBRANCH   1   4
BRANCH   1  15
ATOM     15  N   UNL     1       2.510   1.124  -0.025  0.00  0.00    -0.215 N 
ATOM     16  H   UNL     1       1.679   1.355   0.657  0.00  0.00    +0.174 HD
BRANCH  15  21
ATOM     17  C   UNL     1       6.913   4.676  -0.437  0.00  0.00    +0.044 C 
ATOM     18  C   UNL     1       5.743   3.733  -0.327  0.00  0.00    -0.049 A 
ATOM     19  C   UNL     1       5.301   3.048  -1.445  0.00  0.00    +0.005 A 
ATOM     20  C   UNL     1       4.226   2.187  -1.349  0.00  0.00    +0.026 A 
ATOM     21  C   UNL     1       3.595   1.999  -0.127  0.00  0.00    +0.062 A 
ATOM     22  C   UNL     1       4.044   2.684   0.996  0.00  0.00    +0.040 A 
ATOM     23  C   UNL     1       5.117   3.549   0.892  0.00  0.00    +0.020 A 
ATOM     24 BR   UNL     1       3.188   2.434   2.663  0.00  0.00    -0.048 Br
ENDBRANCH  15  21
ENDBRANCH   1  15
TORSDOF 4
