REMARK  Name = ZINC14182133
REMARK  7 active torsions:
REMARK  status: ('A' for Active; 'I' for Inactive)
REMARK    1  A    between atoms: C_1  and  C_2
REMARK    2  A    between atoms: C_2  and  C_3
REMARK    3  A    between atoms: C_2  and  C_4
REMARK    4  A    between atoms: C_2  and  N_60
REMARK    5  A    between atoms: C_4  and  N_5
REMARK    6  A    between atoms: N_11  and  S_14
REMARK    7  A    between atoms: S_14  and  C_17
REMARK                            x       y       z     vdW  Elec       q    Type
REMARK                         _______ _______ _______ _____ _____    ______ ____
ROOT
ATOM      1  N   UNL     1      -1.659   1.290   3.320  0.00  0.00    -0.301 N 
ATOM      2  C   UNL     1      -1.142   0.908   2.135  0.00  0.00    +0.302 C 
ATOM      3  O   UNL     1      -1.097  -0.271   1.843  0.00  0.00    -0.253 OA
ATOM      4  N   UNL     1      -0.675   1.834   1.274  0.00  0.00    -0.283 N 
ATOM      5  C   UNL     1      -0.833   3.268   1.559  0.00  0.00    +0.126 C 
ATOM      6  C   UNL     1       0.548   3.935   1.514  0.00  0.00    +0.128 C 
ATOM      7  N   UNL     1       1.225   3.530   0.274  0.00  0.00    -0.173 NA
ATOM      8  C   UNL     1       1.386   2.097  -0.009  0.00  0.00    +0.128 C 
ATOM      9  C   UNL     1       0.006   1.430   0.036  0.00  0.00    +0.126 C 
ATOM     10  H   UNL     1      -1.768   2.232   3.521  0.00  0.00    +0.150 HD
ENDROOT
BRANCH   7  11
ATOM     11  S   UNL     1       1.796   4.668  -0.784  0.00  0.00    +0.066 S 
ATOM     12  O   UNL     1       1.864   4.040  -2.058  0.00  0.00    -0.153 OA
ATOM     13  O   UNL     1       1.039   5.849  -0.557  0.00  0.00    -0.153 OA
BRANCH  11  14
ATOM     14  C   UNL     1       3.454   5.033  -0.313  0.00  0.00    +0.175 A 
ATOM     15  C   UNL     1       3.709   6.051   0.590  0.00  0.00    +0.152 A 
ATOM     16  C   UNL     1       5.012   6.334   0.963  0.00  0.00    +0.040 A 
ATOM     17  C   UNL     1       6.058   5.607   0.427  0.00  0.00    +0.006 A 
ATOM     18  C   UNL     1       5.805   4.594  -0.478  0.00  0.00    +0.040 A 
ATOM     19  C   UNL     1       4.502   4.306  -0.849  0.00  0.00    +0.152 A 
ATOM     20  F   UNL     1       4.255   3.316  -1.735  0.00  0.00    -0.203 F 
ATOM     21  F   UNL     1       2.687   6.765   1.110  0.00  0.00    -0.203 F 
ENDBRANCH  11  14
ENDBRANCH   7  11
BRANCH   1  22
ATOM     22  C   UNL     1      -2.055   0.280   4.305  0.00  0.00    +0.093 C 
BRANCH  22  24
ATOM     23  C   UNL     1      -4.040   1.605   5.045  0.00  0.00    -0.008 C 
ATOM     24  C   UNL     1      -2.725   0.966   5.497  0.00  0.00    -0.055 C 
ATOM     25  C   UNL     1      -3.009  -0.069   6.587  0.00  0.00    -0.008 C 
BRANCH  24  31
ATOM     26  C   UNL     1      -0.515   1.449   6.359  0.00  0.00    -0.078 C 
ATOM     27  C   UNL     1       0.429   2.580   6.770  0.00  0.00    -0.019 C 
ATOM     28  C   UNL     1      -0.155   3.312   7.982  0.00  0.00    -0.004 C 
ATOM     29  C   UNL     1      -1.548   3.840   7.627  0.00  0.00    -0.019 C 
ATOM     30  C   UNL     1      -2.435   2.671   7.191  0.00  0.00    -0.078 C 
ATOM     31  N   UNL     1      -1.830   2.025   6.006  0.00  0.00    +0.384 N 
ATOM     32  H   UNL     1      -1.698   2.732   5.273  0.00  0.00    -0.081 HD
ENDBRANCH  24  31
ENDBRANCH  22  24
ENDBRANCH   1  22
TORSDOF 5
