REMARK  Name = ZINC36085192
REMARK  8 active torsions:
REMARK  status: ('A' for Active; 'I' for Inactive)
REMARK    1  A    between atoms: C_1  and  C_2
REMARK    2  A    between atoms: C_2  and  C_4
REMARK    3  A    between atoms: C_2  and  N_10
REMARK    4  A    between atoms: C_11  and  C_13
REMARK    5  A    between atoms: N_16  and  C_28
REMARK    6  A    between atoms: N_19  and  C_21
REMARK    7  A    between atoms: C_28  and  C_29
REMARK    8  A    between atoms: C_32  and  C_35
REMARK                            x       y       z     vdW  Elec       q    Type
REMARK                         _______ _______ _______ _____ _____    ______ ____
ROOT
ATOM      1  C   UNL     1       2.721  -1.062  -2.428  0.00  0.00    +0.210 A 
ATOM      2  C   UNL     1       4.190  -1.195  -2.455  0.00  0.00    +0.288 A 
ATOM      3  O   UNL     1       4.865  -0.916  -1.482  0.00  0.00    -0.265 OA
ATOM      4  N   UNL     1       4.760  -1.637  -3.600  0.00  0.00    -0.253 N 
ATOM      5  C   UNL     1       3.964  -1.932  -4.647  0.00  0.00    +0.353 A 
ATOM      6  O   UNL     1       4.463  -2.330  -5.682  0.00  0.00    -0.244 OA
ATOM      7  N   UNL     1       2.631  -1.794  -4.569  0.00  0.00    -0.178 N 
ATOM      8  N   UNL     1       2.039  -1.383  -3.507  0.00  0.00    -0.152 NA
ENDROOT
BRANCH   7   9
ATOM      9  C   UNL     1       1.856  -2.115  -5.689  0.00  0.00    +0.106 A 
ATOM     10  C   UNL     1       1.960  -3.372  -6.271  0.00  0.00    +0.031 A 
ATOM     11  C   UNL     1       1.194  -3.686  -7.376  0.00  0.00    +0.002 A 
ATOM     12  C   UNL     1       0.323  -2.751  -7.905  0.00  0.00    +0.003 A 
ATOM     13  C   UNL     1       0.215  -1.498  -7.330  0.00  0.00    +0.040 A 
ATOM     14  C   UNL     1       0.975  -1.178  -6.220  0.00  0.00    +0.149 A 
ATOM     15  F   UNL     1       0.866   0.044  -5.654  0.00  0.00    -0.203 F 
ENDBRANCH   7   9
BRANCH   1  17
ATOM     16  N   UNL     1       0.688  -0.476  -1.203  0.00  0.00    -0.303 N 
ATOM     17  C   UNL     1       2.031  -0.587  -1.215  0.00  0.00    +0.270 C 
ATOM     18  O   UNL     1       2.674  -0.294  -0.225  0.00  0.00    -0.268 OA
ATOM     19  H   UNL     1       0.175  -0.710  -1.993  0.00  0.00    +0.150 HD
BRANCH  16  21
ATOM     20  C   UNL     1      -0.019   1.526   0.010  0.00  0.00    +0.033 C 
ATOM     21  C   UNL     1       0.002  -0.004   0.002  0.00  0.00    +0.100 C 
BRANCH  21  22
ATOM     22  C   UNL     1      -1.412  -0.526   0.013  0.00  0.00    -0.027 A 
ATOM     23  C   UNL     1      -2.141  -0.569  -1.161  0.00  0.00    +0.005 A 
ATOM     24  C   UNL     1      -3.438  -1.047  -1.151  0.00  0.00    +0.000 A 
ATOM     25  C   UNL     1      -4.005  -1.483   0.032  0.00  0.00    +0.000 A 
ATOM     26  C   UNL     1      -3.275  -1.441   1.205  0.00  0.00    +0.000 A 
ATOM     27  C   UNL     1      -1.977  -0.966   1.195  0.00  0.00    +0.005 A 
ENDBRANCH  21  22
ENDBRANCH  16  21
ENDBRANCH   1  17
BRANCH   4  28
ATOM     28  C   UNL     1       6.214  -1.793  -3.699  0.00  0.00    +0.165 C 
BRANCH  28  29
ATOM     29  C   UNL     1       6.600  -3.185  -3.271  0.00  0.00    -0.027 A 
ATOM     30  C   UNL     1       6.890  -3.445  -1.945  0.00  0.00    +0.006 A 
ATOM     31  C   UNL     1       7.245  -4.722  -1.552  0.00  0.00    +0.013 A 
ATOM     32  C   UNL     1       7.309  -5.739  -2.486  0.00  0.00    +0.055 A 
ATOM     33  C   UNL     1       7.019  -5.479  -3.813  0.00  0.00    +0.013 A 
ATOM     34  C   UNL     1       6.660  -4.203  -4.204  0.00  0.00    +0.006 A 
BRANCH  32  35
ATOM     35  C   UNL     1       7.697  -7.131  -2.058  0.00  0.00    +0.417 C 
ATOM     36  F   UNL     1       6.548  -7.847  -1.704  0.00  0.00    -0.166 F 
ATOM     37  F   UNL     1       8.343  -7.781  -3.116  0.00  0.00    -0.166 F 
ATOM     38  F   UNL     1       8.559  -7.058  -0.959  0.00  0.00    -0.166 F 
ENDBRANCH  32  35
ENDBRANCH  28  29
ENDBRANCH   4  28
TORSDOF 7
