REMARK  Name = ZINC16671220
REMARK  8 active torsions:
REMARK  status: ('A' for Active; 'I' for Inactive)
REMARK    1  A    between atoms: C_1  and  C_2
REMARK    2  A    between atoms: C_5  and  N_8
REMARK    3  A    between atoms: N_8  and  C_9
REMARK    4  A    between atoms: C_9  and  C_10
REMARK    5  A    between atoms: N_12  and  N_13
REMARK    6  A    between atoms: C_14  and  C_15
REMARK    7  A    between atoms: C_18  and  O_23
REMARK    8  A    between atoms: C_20  and  O_21
REMARK                            x       y       z     vdW  Elec       q    Type
REMARK                         _______ _______ _______ _____ _____    ______ ____
ROOT
ATOM      1  C   UNL     1      -2.201  -2.857  -0.505  0.00  0.00    +0.249 C 
ATOM      2  O   UNL     1      -2.174  -4.070  -0.511  0.00  0.00    -0.272 OA
ATOM      3  N   UNL     1      -1.066  -2.158  -0.310  0.00  0.00    -0.206 N 
ATOM      4  H   UNL     1      -1.088  -1.188  -0.305  0.00  0.00    +0.177 HD
ENDROOT
BRANCH   3   5
ATOM      5  N   UNL     1       0.146  -2.832  -0.113  0.00  0.00    -0.188 NA
ATOM      6  C   UNL     1       1.220  -2.164   0.182  0.00  0.00    +0.142 C 
BRANCH   6   7
ATOM      7  C   UNL     1       1.123  -0.744   0.560  0.00  0.00    +0.038 A 
ATOM      8  C   UNL     1      -0.056  -0.246   1.122  0.00  0.00    +0.032 A 
ATOM      9  C   UNL     1      -0.142   1.084   1.474  0.00  0.00    +0.061 A 
ATOM     10  C   UNL     1       0.941   1.933   1.274  0.00  0.00    +0.148 A 
ATOM     11  C   UNL     1       2.116   1.448   0.717  0.00  0.00    +0.102 A 
ATOM     12  C   UNL     1       2.214   0.114   0.359  0.00  0.00    +0.143 A 
ATOM     13 BR   UNL     1       3.586   2.607   0.455  0.00  0.00    -0.043 Br
ATOM     14 BR   UNL     1      -1.738   1.755   2.234  0.00  0.00    -0.046 Br
BRANCH  12  15
ATOM     15  O   UNL     1       3.364  -0.362  -0.186  0.00  0.00    -0.505 OA
ATOM     16  H   UNL     1       4.029  -0.625   0.466  0.00  0.00    +0.292 HD
ENDBRANCH  12  15
BRANCH  10  17
ATOM     17  O   UNL     1       0.848   3.242   1.625  0.00  0.00    -0.504 OA
ATOM     18  H   UNL     1       0.520   3.816   0.919  0.00  0.00    +0.292 HD
ENDBRANCH  10  17
ENDBRANCH   6   7
ENDBRANCH   3   5
BRANCH   1  19
ATOM     19  C   UNL     1      -3.506  -2.132  -0.717  0.00  0.00    +0.199 C 
BRANCH  19  20
ATOM     20  N   UNL     1      -4.582  -3.107  -0.905  0.00  0.00    -0.335 N 
ATOM     21  H   UNL     1      -4.386  -4.057  -0.880  0.00  0.00    +0.147 HD
BRANCH  20  26
ATOM     22  C   UNL     1      -9.897  -1.333  -1.778  0.00  0.00    +0.044 C 
ATOM     23  C   UNL     1      -8.484  -1.804  -1.546  0.00  0.00    -0.050 A 
ATOM     24  C   UNL     1      -8.206  -3.159  -1.511  0.00  0.00    +0.005 A 
ATOM     25  C   UNL     1      -6.913  -3.594  -1.299  0.00  0.00    +0.023 A 
ATOM     26  C   UNL     1      -5.891  -2.670  -1.120  0.00  0.00    +0.028 A 
ATOM     27  C   UNL     1      -6.175  -1.311  -1.151  0.00  0.00    +0.023 A 
ATOM     28  C   UNL     1      -7.470  -0.882  -1.368  0.00  0.00    +0.005 A 
ENDBRANCH  20  26
ENDBRANCH  19  20
ENDBRANCH   1  19
TORSDOF 7
