REMARK  Name = ZINC45799677
REMARK  9 active torsions:
REMARK  status: ('A' for Active; 'I' for Inactive)
REMARK    1  A    between atoms: C_1  and  C_2
REMARK    2  A    between atoms: C_7  and  C_8
REMARK    3  A    between atoms: C_8  and  C_9
REMARK    4  A    between atoms: C_8  and  C_10
REMARK    5  A    between atoms: C_11  and  C_14
REMARK    6  A    between atoms: C_14  and  C_15
REMARK    7  A    between atoms: N_17  and  C_18
REMARK    8  A    between atoms: C_21  and  N_24
REMARK    9  A    between atoms: N_27  and  C_28
REMARK                            x       y       z     vdW  Elec       q    Type
REMARK                         _______ _______ _______ _____ _____    ______ ____
ROOT
ATOM      1  C   UNL     1      -1.126  -5.486   1.387  0.00  0.00    +0.222 C 
ATOM      2  O   UNL     1      -2.085  -4.774   1.173  0.00  0.00    -0.275 OA
ATOM      3  N   UNL     1      -1.247  -6.553   2.201  0.00  0.00    -0.285 N 
ATOM      4  H   UNL     1      -0.465  -7.078   2.432  0.00  0.00    +0.155 HD
ENDROOT
BRANCH   3   5
ATOM      5  C   UNL     1      -2.503  -6.905   2.712  0.00  0.00    +0.034 A 
ATOM      6  C   UNL     1      -2.605  -7.473   3.975  0.00  0.00    +0.025 A 
ATOM      7  C   UNL     1      -3.843  -7.820   4.478  0.00  0.00    +0.025 A 
ATOM      8  C   UNL     1      -4.986  -7.602   3.721  0.00  0.00    +0.035 A 
ATOM      9  C   UNL     1      -4.885  -7.035   2.458  0.00  0.00    +0.025 A 
ATOM     10  C   UNL     1      -3.647  -6.682   1.957  0.00  0.00    +0.025 A 
BRANCH   8  11
ATOM     11  N   UNL     1      -6.242  -7.955   4.232  0.00  0.00    -0.269 N 
ATOM     12  C   UNL     1      -7.210  -8.388   3.400  0.00  0.00    +0.304 C 
ATOM     13  O   UNL     1      -6.966  -8.563   2.222  0.00  0.00    -0.253 OA
ATOM     14  N   UNL     1      -8.449  -8.627   3.875  0.00  0.00    -0.302 N 
ATOM     15  C   UNL     1      -9.502  -9.097   2.971  0.00  0.00    +0.129 C 
ATOM     16  H   UNL     1      -6.415  -7.888   5.184  0.00  0.00    +0.156 HD
ATOM     17  H   UNL     1      -8.644  -8.487   4.815  0.00  0.00    +0.150 HD
ENDBRANCH   8  11
ENDBRANCH   3   5
BRANCH   1  18
ATOM     18  C   UNL     1       0.201  -5.175   0.744  0.00  0.00    +0.135 C 
BRANCH  18  26
ATOM     19  C   UNL     1       0.321   1.716   0.591  0.00  0.00    +0.044 C 
ATOM     20  C   UNL     1       0.271   0.213   0.494  0.00  0.00    -0.044 A 
ATOM     21  C   UNL     1       0.031  -0.384  -0.725  0.00  0.00    +0.050 A 
ATOM     22  C   UNL     1      -0.016  -1.769  -0.822  0.00  0.00    +0.135 A 
ATOM     23  C   UNL     1       0.181  -2.546   0.332  0.00  0.00    +0.024 A 
ATOM     24  C   UNL     1       0.422  -1.930   1.559  0.00  0.00    +0.016 A 
ATOM     25  C   UNL     1       0.470  -0.555   1.631  0.00  0.00    -0.041 A 
ATOM     26  C   UNL     1       0.069  -3.941  -0.111  0.00  0.00    +0.007 A 
ATOM     27  C   UNL     1      -0.175  -3.897  -1.427  0.00  0.00    +0.200 A 
ATOM     28  O   UNL     1      -0.225  -2.620  -1.847  0.00  0.00    -0.463 OA
BRANCH  25  29
ATOM     29  C   UNL     1       0.737   0.117   2.954  0.00  0.00    +0.013 C 
ATOM     30  C   UNL     1      -0.297  -0.349   3.980  0.00  0.00    +0.012 C 
ATOM     31  C   UNL     1       2.140  -0.250   3.440  0.00  0.00    +0.012 C 
ENDBRANCH  25  29
ENDBRANCH  18  26
ENDBRANCH   1  18
TORSDOF 5
