REMARK  Name = ZINC63491666
REMARK  5 active torsions:
REMARK  status: ('A' for Active; 'I' for Inactive)
REMARK    1  A    between atoms: C_1  and  O_2
REMARK    2  A    between atoms: O_2  and  C_3
REMARK    3  A    between atoms: C_3  and  C_5
REMARK    4  A    between atoms: C_6  and  N_10
REMARK    5  A    between atoms: C_26  and  C_28
REMARK                            x       y       z     vdW  Elec       q    Type
REMARK                         _______ _______ _______ _____ _____    ______ ____
ROOT
ATOM      1  N   UNL     1       2.130  -1.939   3.259  0.00  0.00    -0.268 N 
ATOM      2  C   UNL     1       2.454  -2.882   4.165  0.00  0.00    +0.307 C 
ATOM      3  O   UNL     1       2.231  -4.054   3.929  0.00  0.00    -0.252 OA
ATOM      4  N   UNL     1       3.026  -2.527   5.332  0.00  0.00    -0.276 N 
ATOM      5  C   UNL     1       3.178  -1.106   5.663  0.00  0.00    +0.114 C 
ATOM      6  C   UNL     1       4.665  -0.794   5.912  0.00  0.00    +0.052 C 
ATOM      7  C   UNL     1       5.196  -1.893   6.798  0.00  0.00    -0.035 C 
ATOM      8  C   UNL     1       5.865  -1.852   7.943  0.00  0.00    -0.001 A 
ATOM      9  C   UNL     1       6.427  -0.728   8.709  0.00  0.00    +0.010 A 
ATOM     10  C   UNL     1       7.046  -1.048   9.876  0.00  0.00    +0.001 A 
ATOM     11  C   UNL     1       7.162  -2.357  10.352  0.00  0.00    +0.002 A 
ATOM     12  C   UNL     1       6.683  -3.452   9.709  0.00  0.00    +0.026 A 
ATOM     13  C   UNL     1       6.017  -3.244   8.466  0.00  0.00    +0.043 A 
ATOM     14  N   UNL     1       5.490  -4.099   7.640  0.00  0.00    -0.375 N 
ATOM     15  C   UNL     1       4.997  -3.369   6.472  0.00  0.00    +0.131 C 
ATOM     16  C   UNL     1       3.487  -3.569   6.263  0.00  0.00    +0.134 C 
ATOM     17  H   UNL     1       2.376  -1.013   3.413  0.00  0.00    +0.156 HD
ATOM     18  H   UNL     1       5.433  -5.058   7.776  0.00  0.00    +0.160 HD
ENDROOT
BRANCH  16  19
ATOM     19  C   UNL     1       2.764  -3.433   7.579  0.00  0.00    -0.025 A 
ATOM     20  C   UNL     1       2.049  -4.502   8.087  0.00  0.00    +0.008 A 
ATOM     21  C   UNL     1       1.387  -4.378   9.294  0.00  0.00    +0.038 A 
ATOM     22  C   UNL     1       1.438  -3.185   9.993  0.00  0.00    +0.123 A 
ATOM     23  C   UNL     1       2.155  -2.115   9.483  0.00  0.00    +0.038 A 
ATOM     24  C   UNL     1       2.821  -2.242   8.279  0.00  0.00    +0.008 A 
ATOM     25  F   UNL     1       0.790  -3.063  11.172  0.00  0.00    -0.205 F 
ENDBRANCH  16  19
BRANCH   1  27
ATOM     26  C   UNL     1       0.948  -1.342   1.204  0.00  0.00    +0.117 A 
ATOM     27  C   UNL     1       1.440  -2.293   2.099  0.00  0.00    +0.056 A 
ATOM     28  C   UNL     1       1.196  -3.609   1.758  0.00  0.00    +0.032 A 
ATOM     29  C   UNL     1       0.520  -3.879   0.617  0.00  0.00    +0.048 A 
ATOM     30  S   UNL     1       0.181  -2.369  -0.035  0.00  0.00    -0.088 S 
BRANCH  26  31
ATOM     31  C   UNL     1       1.032   0.068   1.266  0.00  0.00    +0.347 C 
ATOM     32  O   UNL     1       1.602   0.603   2.199  0.00  0.00    -0.244 OA
BRANCH  31  34
ATOM     33  C   UNL     1       0.603   2.239   0.418  0.00  0.00    +0.280 C 
ATOM     34  O   UNL     1       0.480   0.821   0.291  0.00  0.00    -0.464 OA
ENDBRANCH  31  34
ENDBRANCH  26  31
ENDBRANCH   1  27
TORSDOF 4
