REMARK  Name = ZINC67294293
REMARK  5 active torsions:
REMARK  status: ('A' for Active; 'I' for Inactive)
REMARK    1  A    between atoms: C_1  and  C_2
REMARK    2  A    between atoms: C_9  and  C_11
REMARK    3  A    between atoms: C_16  and  O_31
REMARK    4  A    between atoms: N_21  and  C_22
REMARK    5  A    between atoms: C_25  and  C_28
REMARK                            x       y       z     vdW  Elec       q    Type
REMARK                         _______ _______ _______ _____ _____    ______ ____
ROOT
ATOM      1  C   UNL     1      -0.178  -6.280  -0.943  0.00  0.00    +0.098 A 
ATOM      2  C   UNL     1      -0.163  -7.035  -2.109  0.00  0.00    +0.030 A 
ATOM      3  C   UNL     1      -0.233  -8.446  -1.993  0.00  0.00    +0.018 A 
ATOM      4  C   UNL     1      -0.020  -9.262  -3.115  0.00  0.00    +0.015 A 
ATOM      5  C   UNL     1      -0.047 -10.619  -2.983  0.00  0.00    +0.046 A 
ATOM      6  C   UNL     1      -0.294 -11.204  -1.742  0.00  0.00    +0.120 A 
ATOM      7  C   UNL     1      -0.526 -10.414  -0.626  0.00  0.00    +0.092 A 
ATOM      8  C   UNL     1      -0.509  -9.035  -0.743  0.00  0.00    +0.141 A 
ATOM      9  O   UNL     1      -0.777  -8.253   0.332  0.00  0.00    -0.438 OA
ATOM     10  C   UNL     1      -0.226  -7.010   0.337  0.00  0.00    +0.212 A 
ATOM     11  N   UNL     1       0.244  -6.474   1.446  0.00  0.00    -0.325 N 
ATOM     12  H   UNL     1       0.727  -5.634   1.412  0.00  0.00    +0.169 HD
ENDROOT
BRANCH   1  21
ATOM     13  C   UNL     1      -0.484   1.518   0.044  0.00  0.00    +0.045 C 
ATOM     14  C   UNL     1      -0.417   0.012   0.039  0.00  0.00    -0.032 A 
ATOM     15  C   UNL     1       0.159  -0.661  -1.030  0.00  0.00    +0.008 A 
ATOM     16  C   UNL     1       0.199  -2.043  -0.995  0.00  0.00    +0.044 A 
ATOM     17  C   UNL     1      -0.335  -2.708   0.103  0.00  0.00    +0.125 A 
ATOM     18  N   UNL     1      -0.876  -2.031   1.103  0.00  0.00    -0.240 NA
ATOM     19  C   UNL     1      -0.923  -0.712   1.100  0.00  0.00    +0.116 A 
ATOM     20  N   UNL     1      -0.300  -4.100   0.151  0.00  0.00    -0.266 N 
ATOM     21  C   UNL     1      -0.142  -4.810  -0.984  0.00  0.00    +0.254 C 
ATOM     22  O   UNL     1       0.031  -4.235  -2.042  0.00  0.00    -0.270 OA
ATOM     23  H   UNL     1      -0.390  -4.558   1.001  0.00  0.00    +0.157 HD
ENDBRANCH   1  21
BRANCH  11  24
ATOM     24  C   UNL     1       0.052  -7.101   2.640  0.00  0.00    +0.042 A 
ATOM     25  C   UNL     1      -1.204  -7.632   2.959  0.00  0.00    +0.026 A 
ATOM     26  C   UNL     1      -1.395  -8.260   4.155  0.00  0.00    +0.015 A 
ATOM     27  C   UNL     1      -0.337  -8.373   5.063  0.00  0.00    +0.037 A 
ATOM     28  C   UNL     1       0.918  -7.843   4.745  0.00  0.00    +0.015 A 
ATOM     29  C   UNL     1       1.113  -7.220   3.547  0.00  0.00    +0.026 A 
BRANCH  27  30
ATOM     30  C   UNL     1      -0.544  -9.051   6.355  0.00  0.00    +0.242 C 
ATOM     31  O   UNL     1      -1.635  -9.512   6.631  0.00  0.00    -0.270 OA
ATOM     32  N   UNL     1       0.475  -9.161   7.230  0.00  0.00    -0.325 N 
ATOM     33  H   UNL     1       1.345  -8.793   7.009  0.00  0.00    +0.145 HD
ATOM     34  H   UNL     1       0.338  -9.607   8.080  0.00  0.00    +0.145 HD
ENDBRANCH  27  30
ENDBRANCH  11  24
BRANCH   6  35
ATOM     35  O   UNL     1      -0.306 -12.556  -1.625  0.00  0.00    -0.507 OA
ATOM     36  H   UNL     1       0.556 -12.941  -1.416  0.00  0.00    +0.292 HD
ENDBRANCH   6  35
TORSDOF 4
