REMARK  Name = ZINC15675162
REMARK  12 active torsions:
REMARK  status: ('A' for Active; 'I' for Inactive)
REMARK    1  A    between atoms: C_1  and  N_56
REMARK    2  A    between atoms: C_2  and  N_56
REMARK    3  A    between atoms: C_3  and  C_4
REMARK    4  A    between atoms: C_3  and  N_56
REMARK    5  A    between atoms: C_4  and  N_5
REMARK    6  A    between atoms: C_6  and  C_8
REMARK    7  A    between atoms: C_8  and  C_9
REMARK    8  A    between atoms: C_11  and  O_32
REMARK    9  A    between atoms: C_13  and  O_31
REMARK   10  A    between atoms: C_15  and  C_18
REMARK   11  A    between atoms: C_18  and  N_19
REMARK   12  A    between atoms: C_20  and  C_22
REMARK                            x       y       z     vdW  Elec       q    Type
REMARK                         _______ _______ _______ _____ _____    ______ ____
ROOT
ATOM      1  C   UNL     1       3.140  -4.309  -1.435  0.00  0.00    +0.158 C 
ATOM      2  C   UNL     1       4.443  -4.630  -0.677  0.00  0.00    +0.175 C 
ATOM      3  C   UNL     1       4.858  -3.279  -0.046  0.00  0.00    +0.176 C 
ATOM      4  C   UNL     1       3.519  -2.497  -0.043  0.00  0.00    +0.167 C 
ATOM      5  O   UNL     1       2.890  -2.902  -1.278  0.00  0.00    -0.366 OA
ENDROOT
BRANCH   3   6
ATOM      6  O   UNL     1       5.342  -3.466   1.286  0.00  0.00    -0.387 OA
ATOM      7  H   UNL     1       6.178  -3.950   1.336  0.00  0.00    +0.210 HD
ENDBRANCH   3   6
BRANCH   2   8
ATOM      8  O   UNL     1       4.203  -5.605   0.340  0.00  0.00    -0.387 OA
ATOM      9  H   UNL     1       4.989  -5.845   0.848  0.00  0.00    +0.210 HD
ENDBRANCH   2   8
BRANCH   1  10
ATOM     10  C   UNL     1       3.304  -4.646  -2.918  0.00  0.00    +0.130 C 
BRANCH  10  12
ATOM     11  N   UNL     1       1.899  -4.662  -4.954  0.00  0.00    -0.317 N 
ATOM     12  C   UNL     1       1.994  -4.427  -3.630  0.00  0.00    +0.216 C 
ATOM     13  O   UNL     1       1.024  -4.041  -3.012  0.00  0.00    -0.276 OA
ATOM     14  H   UNL     1       2.674  -4.972  -5.449  0.00  0.00    +0.149 HD
BRANCH  11  15
ATOM     15  C   UNL     1       0.626  -4.450  -5.647  0.00  0.00    +0.085 C 
BRANCH  15  16
ATOM     16  C   UNL     1       0.789  -4.787  -7.130  0.00  0.00    -0.061 C 
BRANCH  16  19
ATOM     17  C   UNL     1      -0.855  -3.152  -7.827  0.00  0.00    -0.097 C 
ATOM     18  C   UNL     1      -0.439  -5.109  -9.192  0.00  0.00    -0.097 C 
ATOM     19  N   UNL     1      -0.508  -4.589  -7.810  0.00  0.00    +0.377 N 
ATOM     20  H   UNL     1      -1.235  -5.101  -7.297  0.00  0.00    -0.083 HD
ENDBRANCH  16  19
ENDBRANCH  15  16
ENDBRANCH  11  15
ENDBRANCH  10  12
ENDBRANCH   1  10
BRANCH   4  21
ATOM     21  C   UNL     1       3.776  -0.989  -0.038  0.00  0.00    +0.138 C 
BRANCH  21  22
ATOM     22  N   UNL     1       2.497  -0.276  -0.022  0.00  0.00    -0.309 N 
ATOM     23  C   UNL     1       2.477   1.072  -0.015  0.00  0.00    +0.244 C 
ATOM     24  O   UNL     1       3.521   1.696  -0.022  0.00  0.00    -0.270 OA
ATOM     25  H   UNL     1       1.664  -0.773  -0.017  0.00  0.00    +0.149 HD
BRANCH  23  26
ATOM     26  C   UNL     1       1.188   1.791   0.000  0.00  0.00    +0.040 A 
ATOM     27  C   UNL     1      -0.013   1.076   0.008  0.00  0.00    +0.017 A 
ATOM     28  C   UNL     1      -1.215   1.748   0.017  0.00  0.00    +0.050 A 
ATOM     29  C   UNL     1      -1.239   3.137   0.031  0.00  0.00    +0.166 A 
ATOM     30  C   UNL     1      -0.044   3.857   0.023  0.00  0.00    +0.167 A 
ATOM     31  C   UNL     1       1.165   3.188   0.008  0.00  0.00    +0.062 A 
ATOM     32  O   UNL     1      -0.338   5.190   0.032  0.00  0.00    -0.453 OA
ATOM     33  C   UNL     1      -1.719   5.280  -0.367  0.00  0.00    +0.466 C 
ATOM     34  O   UNL     1      -2.278   4.019   0.045  0.00  0.00    -0.453 OA
ENDBRANCH  23  26
ENDBRANCH  21  22
ENDBRANCH   4  21
TORSDOF 10
