REMARK  Name = ZINC39465819
REMARK  7 active torsions:
REMARK  status: ('A' for Active; 'I' for Inactive)
REMARK    1  A    between atoms: C_1  and  C_2
REMARK    2  A    between atoms: C_2  and  O_3
REMARK    3  A    between atoms: O_3  and  C_4
REMARK    4  A    between atoms: C_9  and  C_10
REMARK    5  A    between atoms: C_15  and  O_16
REMARK    6  A    between atoms: P_24  and  S_27
REMARK    7  A    between atoms: S_27  and  C_30
REMARK                            x       y       z     vdW  Elec       q    Type
REMARK                         _______ _______ _______ _____ _____    ______ ____
ROOT
ATOM      1  C   UNL     1       0.802  -1.824   1.306  0.00  0.00    +0.129 A 
ATOM      2  C   UNL     1       0.262  -2.672   0.356  0.00  0.00    +0.051 A 
ATOM      3  C   UNL     1       0.368  -4.049   0.498  0.00  0.00    -0.020 A 
ATOM      4  C   UNL     1       1.018  -4.578   1.594  0.00  0.00    -0.041 A 
ATOM      5  C   UNL     1       1.562  -3.740   2.552  0.00  0.00    +0.016 A 
ATOM      6  C   UNL     1       1.465  -2.359   2.414  0.00  0.00    +0.028 A 
ATOM      7  C   UNL     1       1.156  -6.068   1.782  0.00  0.00    +0.052 C 
ATOM      8  C   UNL     1       0.128  -6.793   0.914  0.00  0.00    +0.108 C 
ATOM      9  N   UNL     1       0.240  -6.298  -0.466  0.00  0.00    -0.224 NA
ATOM     10  C   UNL     1      -0.242  -4.921  -0.568  0.00  0.00    +0.130 C 
ATOM     11  C   UNL     1       0.078  -4.327  -1.943  0.00  0.00    +0.195 C 
ATOM     12  O   UNL     1      -0.607  -5.098  -2.950  0.00  0.00    -0.298 OA
ATOM     13  P   UNL     1      -0.453  -6.716  -2.918  0.00  0.00    +0.424 P 
ATOM     14  O   UNL     1       0.821  -7.121  -3.554  0.00  0.00    -0.246 OA
ATOM     15  N   UNL     1      -0.450  -7.132  -1.318  0.00  0.00    -0.161 NA
ATOM     16  H   UNL     1      -0.911  -7.922  -0.995  0.00  0.00    +0.152 HD
ENDROOT
BRANCH   6  17
ATOM     17  C   UNL     1       2.055  -1.463   3.437  0.00  0.00    +0.027 A 
ATOM     18  C   UNL     1       3.435  -1.426   3.623  0.00  0.00    +0.012 A 
ATOM     19  C   UNL     1       3.979  -0.589   4.576  0.00  0.00    +0.001 A 
ATOM     20  C   UNL     1       3.159   0.214   5.349  0.00  0.00    +0.004 A 
ATOM     21  C   UNL     1       1.788   0.185   5.173  0.00  0.00    +0.046 A 
ATOM     22  C   UNL     1       1.229  -0.646   4.215  0.00  0.00    +0.125 A 
BRANCH  22  23
ATOM     23  O   UNL     1      -0.118  -0.672   4.038  0.00  0.00    -0.506 OA
ATOM     24  H   UNL     1      -0.575  -1.322   4.589  0.00  0.00    +0.292 HD
ENDBRANCH  22  23
ENDBRANCH   6  17
BRANCH  13  25
ATOM     25  S   UNL     1      -2.088  -7.628  -3.913  0.00  0.00    +0.085 S 
ATOM     26  O   UNL     1      -1.806  -9.019  -3.966  0.00  0.00    -0.159 OA
ATOM     27  O   UNL     1      -3.268  -7.112  -3.311  0.00  0.00    -0.159 OA
BRANCH  25  28
ATOM     28  C   UNL     1      -2.075  -7.047  -5.576  0.00  0.00    +0.099 A 
ATOM     29  C   UNL     1      -2.768  -5.899  -5.913  0.00  0.00    +0.027 A 
ATOM     30  C   UNL     1      -2.758  -5.443  -7.218  0.00  0.00    +0.002 A 
ATOM     31  C   UNL     1      -2.055  -6.135  -8.186  0.00  0.00    +0.000 A 
ATOM     32  C   UNL     1      -1.362  -7.282  -7.849  0.00  0.00    +0.002 A 
ATOM     33  C   UNL     1      -1.368  -7.736  -6.544  0.00  0.00    +0.027 A 
ENDBRANCH  25  28
ENDBRANCH  13  25
BRANCH   1  34
ATOM     34  O   UNL     1       0.693  -0.477   1.160  0.00  0.00    -0.492 OA
BRANCH  34  36
ATOM     35  C   UNL     1      -0.019   1.526   0.010  0.00  0.00    +0.048 C 
ATOM     36  C   UNL     1       0.002  -0.004   0.002  0.00  0.00    +0.226 C 
ENDBRANCH  34  36
ENDBRANCH   1  34
TORSDOF 6
