REMARK  Name = ZINC63069030
REMARK  10 active torsions:
REMARK  status: ('A' for Active; 'I' for Inactive)
REMARK    1  A    between atoms: C_1  and  C_2
REMARK    2  A    between atoms: C_3  and  C_9
REMARK    3  A    between atoms: C_4  and  C_8
REMARK    4  A    between atoms: N_5  and  C_7
REMARK    5  A    between atoms: C_9  and  C_10
REMARK    6  A    between atoms: C_9  and  N_11
REMARK    7  A    between atoms: N_14  and  C_15
REMARK    8  A    between atoms: N_14  and  C_16
REMARK    9  A    between atoms: C_16  and  C_17
REMARK   10  A    between atoms: C_16  and  C_18
REMARK                            x       y       z     vdW  Elec       q    Type
REMARK                         _______ _______ _______ _____ _____    ______ ____
ROOT
ATOM      1  N   UNL     1      -0.606   1.183  -2.595  0.00  0.00    -0.293 N 
ATOM      2  C   UNL     1      -1.148   1.298  -3.823  0.00  0.00    +0.303 C 
ATOM      3  O   UNL     1      -0.918   0.457  -4.671  0.00  0.00    -0.253 OA
ATOM      4  N   UNL     1      -1.945   2.345  -4.113  0.00  0.00    -0.282 N 
ATOM      5  C   UNL     1      -2.223   3.359  -3.092  0.00  0.00    +0.134 C 
ATOM      6  H   UNL     1      -0.790   1.854  -1.919  0.00  0.00    +0.151 HD
ENDROOT
BRANCH   1   7
ATOM      7  C   UNL     1       0.260   0.044  -2.280  0.00  0.00    +0.105 C 
ATOM      8  C   UNL     1       1.704   0.383  -2.655  0.00  0.00    +0.033 C 
BRANCH   7  11
ATOM      9  C   UNL     1      -0.117  -2.820  -0.977  0.00  0.00    +0.068 C 
ATOM     10  C   UNL     1       0.016  -1.518  -0.229  0.00  0.00    +0.065 A 
ATOM     11  C   UNL     1       0.181  -0.254  -0.805  0.00  0.00    +0.016 A 
ATOM     12  C   UNL     1       0.260   0.653   0.196  0.00  0.00    +0.041 A 
ATOM     13  N   UNL     1       0.147  -0.013   1.364  0.00  0.00    -0.271 N 
ATOM     14  N   UNL     1      -0.010  -1.374   1.071  0.00  0.00    -0.176 NA
ATOM     15  C   UNL     1       0.179   0.582   2.703  0.00  0.00    +0.172 C 
ATOM     16  C   UNL     1       0.440   2.140   0.035  0.00  0.00    +0.065 C 
ENDBRANCH   7  11
ENDBRANCH   1   7
BRANCH   4  17
ATOM     17  C   UNL     1      -2.534   2.470  -5.449  0.00  0.00    +0.106 C 
ATOM     18  C   UNL     1      -1.967   3.710  -6.142  0.00  0.00    +0.033 C 
BRANCH  17  19
ATOM     19  C   UNL     1      -4.031   2.603  -5.327  0.00  0.00    -0.009 A 
ATOM     20  C   UNL     1      -4.631   3.837  -5.495  0.00  0.00    +0.008 A 
ATOM     21  C   UNL     1      -6.003   3.960  -5.384  0.00  0.00    +0.020 A 
ATOM     22  C   UNL     1      -6.777   2.848  -5.105  0.00  0.00    +0.042 A 
ATOM     23  C   UNL     1      -6.177   1.612  -4.938  0.00  0.00    +0.040 A 
ATOM     24  C   UNL     1      -4.804   1.489  -5.054  0.00  0.00    +0.047 A 
ATOM     25 CL   UNL     1      -4.051  -0.062  -4.850  0.00  0.00    -0.083 Cl
ATOM     26 CL   UNL     1      -8.500   3.002  -4.965  0.00  0.00    -0.083 Cl
ENDBRANCH  17  19
ENDBRANCH   4  17
TORSDOF 4
