REMARK  Name = ZINC12031939
REMARK  7 active torsions:
REMARK  status: ('A' for Active; 'I' for Inactive)
REMARK    1  A    between atoms: C_1  and  O_2
REMARK    2  A    between atoms: O_2  and  C_3
REMARK    3  A    between atoms: C_5  and  N_30
REMARK    4  A    between atoms: C_18  and  C_19
REMARK    5  A    between atoms: C_18  and  N_66
REMARK    6  A    between atoms: N_23  and  C_24
REMARK    7  A    between atoms: C_31  and  C_33
REMARK                            x       y       z     vdW  Elec       q    Type
REMARK                         _______ _______ _______ _____ _____    ______ ____
ROOT
ATOM      1  C   UNL     1       1.199   3.876   2.337  0.00  0.00    +0.153 C 
ATOM      2  C   UNL     1       0.856   5.152   3.136  0.00  0.00    +0.133 C 
ATOM      3  C   UNL     1       0.595   6.216   2.092  0.00  0.00    -0.021 A 
ATOM      4  C   UNL     1       0.552   7.595   2.207  0.00  0.00    +0.006 A 
ATOM      5  C   UNL     1       0.290   8.379   1.100  0.00  0.00    +0.000 A 
ATOM      6  C   UNL     1       0.070   7.784  -0.129  0.00  0.00    +0.000 A 
ATOM      7  C   UNL     1       0.112   6.409  -0.246  0.00  0.00    +0.004 A 
ATOM      8  C   UNL     1       0.374   5.621   0.863  0.00  0.00    -0.034 A 
ATOM      9  C   UNL     1       0.474   4.121   1.002  0.00  0.00    +0.021 C 
ATOM     10  C   UNL     1       1.286   3.533  -0.149  0.00  0.00    -0.005 C 
ATOM     11  C   UNL     1       1.346   2.010   0.000  0.00  0.00    -0.077 C 
ATOM     12  C   UNL     1      -0.787   1.974   1.152  0.00  0.00    -0.077 C 
ATOM     13  C   UNL     1      -0.918   3.496   1.041  0.00  0.00    -0.005 C 
ATOM     14  N   UNL     1      -0.032   1.473  -0.016  0.00  0.00    +0.383 N 
ATOM     15  H   UNL     1      -0.501   1.785  -0.874  0.00  0.00    -0.081 HD
ENDROOT
BRANCH   2  16
ATOM     16  N   UNL     1      -0.342   4.935   3.952  0.00  0.00    -0.302 N 
ATOM     17  C   UNL     1      -0.541   5.668   5.065  0.00  0.00    +0.251 C 
ATOM     18  O   UNL     1       0.274   6.510   5.393  0.00  0.00    -0.270 OA
ATOM     19  H   UNL     1      -0.992   4.264   3.690  0.00  0.00    +0.150 HD
BRANCH  17  20
ATOM     20  C   UNL     1      -1.739   5.451   5.881  0.00  0.00    +0.074 A 
ATOM     21  C   UNL     1      -2.129   6.089   7.048  0.00  0.00    +0.021 A 
ATOM     22  C   UNL     1      -3.313   5.686   7.614  0.00  0.00    +0.008 A 
ATOM     23  C   UNL     1      -4.034   4.701   7.017  0.00  0.00    +0.046 A 
ATOM     24  S   UNL     1      -3.080   4.301   5.626  0.00  0.00    -0.092 S 
ENDBRANCH  17  20
ENDBRANCH   2  16
BRANCH   1  26
ATOM     25  C   UNL     1       3.263   2.911   3.082  0.00  0.00    +0.194 C 
ATOM     26  O   UNL     1       2.609   3.760   2.137  0.00  0.00    -0.377 OA
ENDBRANCH   1  26
BRANCH  14  27
ATOM     27  C   UNL     1       0.002  -0.004   0.002  0.00  0.00    -0.024 C 
BRANCH  27  28
ATOM     28  C   UNL     1      -1.388  -0.527   0.259  0.00  0.00    +0.007 A 
ATOM     29  C   UNL     1      -2.286  -0.882  -0.682  0.00  0.00    +0.021 A 
ATOM     30  C   UNL     1      -3.449  -1.316  -0.015  0.00  0.00    +0.020 A 
ATOM     31  C   UNL     1      -3.222  -1.202   1.310  0.00  0.00    +0.091 A 
ATOM     32  N   UNL     1      -1.957  -0.717   1.486  0.00  0.00    -0.320 N 
BRANCH  32  33
ATOM     33  C   UNL     1      -1.345  -0.459   2.720  0.00  0.00    +0.064 A 
ATOM     34  C   UNL     1      -2.001   0.296   3.689  0.00  0.00    +0.029 A 
ATOM     35  C   UNL     1      -1.356   0.524   4.894  0.00  0.00    +0.022 A 
ATOM     36  C   UNL     1      -0.093  -0.000   5.093  0.00  0.00    +0.111 A 
ATOM     37  N   UNL     1       0.501  -0.711   4.155  0.00  0.00    -0.261 NA
ATOM     38  C   UNL     1      -0.080  -0.956   2.997  0.00  0.00    +0.136 A 
ENDBRANCH  32  33
ENDBRANCH  27  28
ENDBRANCH  14  27
TORSDOF 6
