REMARK  Name = ZINC05163899
REMARK  7 active torsions:
REMARK  status: ('A' for Active; 'I' for Inactive)
REMARK    1  A    between atoms: C_1  and  C_2
REMARK    2  A    between atoms: C_2  and  O_3
REMARK    3  A    between atoms: O_3  and  C_4
REMARK    4  A    between atoms: C_7  and  C_10
REMARK    5  A    between atoms: C_17  and  N_30
REMARK    6  A    between atoms: C_18  and  C_28
REMARK    7  A    between atoms: C_19  and  C_21
REMARK                            x       y       z     vdW  Elec       q    Type
REMARK                         _______ _______ _______ _____ _____    ______ ____
ROOT
ATOM      1  C   UNL     1       1.104  -5.970   1.762  0.00  0.00    +0.074 A 
ATOM      2  C   UNL     1       0.998  -6.695   2.902  0.00  0.00    +0.054 A 
ATOM      3  C   UNL     1       1.193  -8.052   2.576  0.00  0.00    +0.245 A 
ATOM      4  N   UNL     1       1.409  -8.139   1.294  0.00  0.00    -0.135 NA
ATOM      5  N   UNL     1       1.354  -6.848   0.746  0.00  0.00    -0.273 N 
ATOM      6  H   UNL     1       1.475  -6.620  -0.189  0.00  0.00    +0.189 HD
ATOM      7  O   UNL     1       1.143  -9.033   3.518  0.00  0.00    -0.421 OA
ATOM      8  C   UNL     1       0.634  -8.711   4.723  0.00  0.00    +0.201 C 
ATOM      9  C   UNL     1       0.416  -7.450   5.149  0.00  0.00    +0.098 C 
ATOM     10  C   UNL     1       0.724  -6.235   4.311  0.00  0.00    +0.102 C 
ENDROOT
BRANCH  10  11
ATOM     11  C   UNL     1       1.938  -5.532   4.861  0.00  0.00    -0.034 A 
ATOM     12  C   UNL     1       3.158  -6.182   4.893  0.00  0.00    +0.007 A 
ATOM     13  C   UNL     1       4.272  -5.538   5.397  0.00  0.00    +0.038 A 
ATOM     14  C   UNL     1       4.166  -4.241   5.870  0.00  0.00    +0.123 A 
ATOM     15  C   UNL     1       2.944  -3.591   5.837  0.00  0.00    +0.038 A 
ATOM     16  C   UNL     1       1.832  -4.235   5.328  0.00  0.00    +0.007 A 
ATOM     17  F   UNL     1       5.254  -3.611   6.363  0.00  0.00    -0.205 F 
ENDBRANCH  10  11
BRANCH   1  21
ATOM     18  C   UNL     1       0.712  -1.752   1.411  0.00  0.00    +0.121 A 
ATOM     19  C   UNL     1       1.775  -2.403   0.797  0.00  0.00    +0.046 A 
ATOM     20  C   UNL     1       1.905  -3.771   0.909  0.00  0.00    +0.013 A 
ATOM     21  C   UNL     1       0.968  -4.502   1.640  0.00  0.00    +0.000 A 
ATOM     22  C   UNL     1      -0.098  -3.845   2.256  0.00  0.00    +0.013 A 
ATOM     23  C   UNL     1      -0.219  -2.476   2.143  0.00  0.00    +0.046 A 
BRANCH  18  24
ATOM     24  O   UNL     1       0.587  -0.404   1.298  0.00  0.00    -0.492 OA
BRANCH  24  26
ATOM     25  C   UNL     1       1.275   1.777   0.517  0.00  0.00    +0.048 C 
ATOM     26  C   UNL     1       1.581   0.278   0.530  0.00  0.00    +0.225 C 
ENDBRANCH  24  26
ENDBRANCH  18  24
ENDBRANCH   1  21
BRANCH   8  27
ATOM     27  N   UNL     1       0.318  -9.738   5.578  0.00  0.00    -0.328 N 
ATOM     28  H   UNL     1       0.462 -10.658   5.305  0.00  0.00    +0.145 HD
ATOM     29  H   UNL     1      -0.050  -9.544   6.454  0.00  0.00    +0.145 HD
ENDBRANCH   8  27
BRANCH   9  30
ATOM     30  C   UNL     1      -0.135  -7.255   6.457  0.00  0.00    +0.101 C 
ATOM     31  N   UNL     1      -0.572  -7.101   7.494  0.00  0.00    -0.191 NA
ENDBRANCH   9  30
TORSDOF 6
