REMARK  Name = ZINC02441911
REMARK  4 active torsions:
REMARK  status: ('A' for Active; 'I' for Inactive)
REMARK    1  A    between atoms: C_3  and  N_32
REMARK    2  A    between atoms: C_6  and  C_7
REMARK    3  A    between atoms: C_7  and  C_9
REMARK    4  A    between atoms: C_9  and  C_10
REMARK                            x       y       z     vdW  Elec       q    Type
REMARK                         _______ _______ _______ _____ _____    ______ ____
ROOT
ATOM      1  C   UNL     1       4.615  -3.336   7.549  0.00  0.00    +0.066 A 
ATOM      2  C   UNL     1       4.136  -2.731   6.407  0.00  0.00    +0.062 A 
ATOM      3  C   UNL     1       4.973  -1.936   5.605  0.00  0.00    +0.091 A 
ATOM      4  C   UNL     1       4.345  -1.345   4.410  0.00  0.00    +0.035 A 
ATOM      5  C   UNL     1       4.960  -0.511   3.439  0.00  0.00    -0.029 A 
ATOM      6  C   UNL     1       4.229  -0.059   2.390  0.00  0.00    -0.005 A 
ATOM      7  C   UNL     1       2.874  -0.404   2.285  0.00  0.00    +0.103 A 
ATOM      8  C   UNL     1       2.987  -1.645   4.216  0.00  0.00    +0.089 A 
ATOM      9  S   UNL     1       2.564  -2.688   5.590  0.00  0.00    -0.067 S 
ATOM     10  N   UNL     1       2.125   0.070   1.217  0.00  0.00    -0.312 N 
ATOM     11  C   UNL     1       1.629  -1.039   0.389  0.00  0.00    +0.134 C 
ATOM     12  C   UNL     1       0.861  -0.471  -0.807  0.00  0.00    +0.178 C 
ATOM     13  O   UNL     1      -0.197   0.367  -0.334  0.00  0.00    -0.377 OA
ATOM     14  C   UNL     1       0.251   1.458   0.476  0.00  0.00    +0.178 C 
ATOM     15  C   UNL     1       1.012   0.909   1.685  0.00  0.00    +0.134 C 
ATOM     16  C   UNL     1       4.812   0.823   1.316  0.00  0.00    +0.039 C 
ATOM     17  C   UNL     1       6.119   1.455   1.790  0.00  0.00    +0.005 C 
ATOM     18  C   UNL     1       7.024   0.345   2.337  0.00  0.00    +0.005 C 
ATOM     19  C   UNL     1       6.413  -0.175   3.637  0.00  0.00    +0.036 C 
ATOM     20  N   UNL     1       6.249  -1.810   6.024  0.00  0.00    -0.234 NA
ATOM     21  C   UNL     1       6.665  -2.401   7.117  0.00  0.00    +0.222 A 
ATOM     22  N   UNL     1       5.887  -3.150   7.876  0.00  0.00    -0.239 NA
ATOM     23  N   UNL     1       2.231  -1.199   3.184  0.00  0.00    -0.337 N 
ATOM     24  H   UNL     1       1.239  -1.444   3.086  0.00  0.00    +0.168 HD
ENDROOT
BRANCH   1  25
ATOM     25  C   UNL     1       3.715  -4.188   8.406  0.00  0.00    +0.136 C 
BRANCH  25  26
ATOM     26  C   UNL     1       3.052  -3.327   9.450  0.00  0.00    +0.169 C 
ATOM     27  O   UNL     1       3.287  -2.138   9.494  0.00  0.00    -0.292 OA
BRANCH  26  33
ATOM     28  C   UNL     1       1.840  -5.298  10.365  0.00  0.00    +0.013 A 
ATOM     29  C   UNL     1       0.969  -5.854  11.277  0.00  0.00    +0.033 A 
ATOM     30  C   UNL     1       0.362  -5.060  12.234  0.00  0.00    +0.126 A 
ATOM     31  C   UNL     1       0.629  -3.703  12.288  0.00  0.00    +0.033 A 
ATOM     32  C   UNL     1       1.502  -3.132  11.386  0.00  0.00    +0.013 A 
ATOM     33  C   UNL     1       2.119  -3.928  10.416  0.00  0.00    +0.018 A 
BRANCH  30  34
ATOM     34  N   UNL     1      -0.577  -5.665  13.205  0.00  0.00    +0.056 N 
ATOM     35  O   UNL     1      -1.113  -4.968  14.049  0.00  0.00    -0.126 OA
ATOM     36  O   UNL     1      -0.814  -6.859  13.161  0.00  0.00    -0.126 OA
ENDBRANCH  30  34
ENDBRANCH  26  33
ENDBRANCH  25  26
ENDBRANCH   1  25
TORSDOF 4
