REMARK  Name = ZINC28058007
REMARK  4 active torsions:
REMARK  status: ('A' for Active; 'I' for Inactive)
REMARK    1  A    between atoms: C_1  and  O_2
REMARK    2  A    between atoms: O_2  and  C_3
REMARK    3  A    between atoms: C_8  and  C_9
REMARK    4  A    between atoms: C_20  and  C_22
REMARK                            x       y       z     vdW  Elec       q    Type
REMARK                         _______ _______ _______ _____ _____    ______ ____
ROOT
ATOM      1  C   UNL     1      -1.235  -0.347   0.068  0.00  0.00    +0.177 C 
ATOM      2  C   UNL     1       0.157   0.228  -0.014  0.00  0.00    +0.026 C 
ATOM      3  C   UNL     1       0.383   1.541  -0.089  0.00  0.00    +0.050 C 
ATOM      4  C   UNL     1       1.787   2.012  -0.170  0.00  0.00    +0.038 A 
ATOM      5  C   UNL     1       2.128   3.332   0.096  0.00  0.00    +0.013 A 
ATOM      6  C   UNL     1       3.450   3.725   0.005  0.00  0.00    +0.001 A 
ATOM      7  C   UNL     1       4.428   2.812  -0.349  0.00  0.00    +0.004 A 
ATOM      8  C   UNL     1       4.096   1.495  -0.614  0.00  0.00    +0.046 A 
ATOM      9  C   UNL     1       2.778   1.088  -0.525  0.00  0.00    +0.131 A 
ATOM     10  O   UNL     1       2.412  -0.195  -0.775  0.00  0.00    -0.479 OA
ATOM     11  C   UNL     1       1.332  -0.723  -0.005  0.00  0.00    +0.234 C 
ATOM     12  N   UNL     1      -0.655   2.480  -0.101  0.00  0.00    -0.282 N 
ATOM     13  C   UNL     1      -1.938   2.004  -0.316  0.00  0.00    +0.240 A 
ATOM     14  N   UNL     1      -2.221   0.677  -0.247  0.00  0.00    -0.201 N 
ATOM     15  N   UNL     1      -3.582   0.571  -0.531  0.00  0.00    -0.042 NA
ATOM     16  N   UNL     1      -4.010   1.775  -0.735  0.00  0.00    -0.021 NA
ATOM     17  N   UNL     1      -3.046   2.622  -0.608  0.00  0.00    -0.092 NA
ATOM     18  H   UNL     1      -0.435   3.546   0.057  0.00  0.00    +0.155 HD
ENDROOT
BRANCH  11  19
ATOM     19  C   UNL     1       1.791  -0.933   1.415  0.00  0.00    -0.002 A 
ATOM     20  C   UNL     1       1.521  -2.126   2.059  0.00  0.00    +0.009 A 
ATOM     21  C   UNL     1       1.941  -2.320   3.361  0.00  0.00    +0.022 A 
ATOM     22  C   UNL     1       2.633  -1.320   4.021  0.00  0.00    +0.059 A 
ATOM     23  C   UNL     1       2.904  -0.125   3.376  0.00  0.00    +0.060 A 
ATOM     24  C   UNL     1       2.487   0.065   2.070  0.00  0.00    +0.029 A 
ATOM     25 CL   UNL     1       3.772   1.131   4.202  0.00  0.00    -0.082 Cl
ATOM     26 CL   UNL     1       3.161  -1.563   5.657  0.00  0.00    -0.082 Cl
ENDBRANCH  11  19
BRANCH   1  32
ATOM     27  C   UNL     1      -1.784  -2.203   1.663  0.00  0.00    +0.126 A 
ATOM     28  C   UNL     1      -2.005  -2.677   2.949  0.00  0.00    +0.046 A 
ATOM     29  C   UNL     1      -1.933  -1.812   4.024  0.00  0.00    +0.004 A 
ATOM     30  C   UNL     1      -1.636  -0.477   3.821  0.00  0.00    +0.001 A 
ATOM     31  C   UNL     1      -1.410  -0.004   2.541  0.00  0.00    +0.009 A 
ATOM     32  C   UNL     1      -1.481  -0.864   1.463  0.00  0.00    +0.023 A 
BRANCH  27  34
ATOM     33  C   UNL     1      -2.176  -4.415   0.885  0.00  0.00    +0.277 C 
ATOM     34  O   UNL     1      -1.860  -3.050   0.603  0.00  0.00    -0.495 OA
ENDBRANCH  27  34
ENDBRANCH   1  32
TORSDOF 3
