REMARK  Name = ZINC37457978
REMARK  5 active torsions:
REMARK  status: ('A' for Active; 'I' for Inactive)
REMARK    1  A    between atoms: C_1  and  C_2
REMARK    2  A    between atoms: C_2  and  C_4
REMARK    3  A    between atoms: C_2  and  N_8
REMARK    4  A    between atoms: C_4  and  C_5
REMARK    5  A    between atoms: C_9  and  C_11
REMARK                            x       y       z     vdW  Elec       q    Type
REMARK                         _______ _______ _______ _____ _____    ______ ____
ROOT
ATOM      1  N   UNL     1       0.711  -0.489   1.189  0.00  0.00    -0.308 N 
ATOM      2  C   UNL     1       0.051  -0.633   2.355  0.00  0.00    +0.245 C 
ATOM      3  O   UNL     1      -1.131  -0.361   2.423  0.00  0.00    -0.270 OA
ATOM      4  H   UNL     1       1.654  -0.707   1.135  0.00  0.00    +0.149 HD
ENDROOT
BRANCH   2   5
ATOM      5  C   UNL     1       0.770  -1.125   3.559  0.00  0.00    +0.047 A 
ATOM      6  C   UNL     1       2.128  -1.442   3.494  0.00  0.00    +0.083 A 
ATOM      7  C   UNL     1       2.778  -1.900   4.632  0.00  0.00    +0.252 A 
ATOM      8  N   UNL     1       2.105  -2.041   5.796  0.00  0.00    -0.290 N 
ATOM      9  C   UNL     1       0.790  -1.741   5.884  0.00  0.00    +0.252 A 
ATOM     10  C   UNL     1       0.099  -1.273   4.774  0.00  0.00    +0.083 A 
ATOM     11  O   UNL     1       0.150  -1.890   7.050  0.00  0.00    -0.268 OA
ATOM     12  O   UNL     1       4.080  -2.205   4.575  0.00  0.00    -0.268 OA
ATOM     13  H   UNL     1       2.574  -2.363   6.582  0.00  0.00    +0.172 HD
ENDBRANCH   2   5
BRANCH   1  15
ATOM     14  C   UNL     1      -0.019   1.526   0.010  0.00  0.00    +0.028 C 
ATOM     15  C   UNL     1       0.002  -0.004   0.002  0.00  0.00    +0.081 C 
BRANCH  15  16
ATOM     16  C   UNL     1       0.718  -0.497  -1.257  0.00  0.00    +0.147 C 
BRANCH  16  17
ATOM     17  C   UNL     1       0.632  -2.000  -1.327  0.00  0.00    +0.358 C 
ATOM     18  O   UNL     1       0.051  -2.619  -0.452  0.00  0.00    -0.246 OA
ATOM     19  O   UNL     1       1.142  -2.597  -2.260  0.00  0.00    -0.246 OA
ENDBRANCH  16  17
ENDBRANCH  15  16
ENDBRANCH   1  15
TORSDOF 4
