REMARK  Name = ZINC39729622
REMARK  7 active torsions:
REMARK  status: ('A' for Active; 'I' for Inactive)
REMARK    1  A    between atoms: C_1  and  C_2
REMARK    2  A    between atoms: C_2  and  C_3
REMARK    3  A    between atoms: C_3  and  C_4
REMARK    4  A    between atoms: C_6  and  C_12
REMARK    5  A    between atoms: C_7  and  O_11
REMARK    6  A    between atoms: C_9  and  O_10
REMARK    7  A    between atoms: C_14  and  C_18
REMARK                            x       y       z     vdW  Elec       q    Type
REMARK                         _______ _______ _______ _____ _____    ______ ____
ROOT
ATOM      1  C   UNL     1      -1.798  -4.881   2.461  0.00  0.00    +0.164 C 
ATOM      2  C   UNL     1      -3.243  -5.330   2.590  0.00  0.00    +0.008 C 
ATOM      3  C   UNL     1      -3.674  -4.701   3.710  0.00  0.00    +0.139 C 
ATOM      4  N   UNL     1      -2.693  -3.961   4.240  0.00  0.00    -0.185 NA
ATOM      5  N   UNL     1      -1.620  -3.997   3.625  0.00  0.00    -0.297 N 
ATOM      6  H   UNL     1      -0.806  -3.526   3.865  0.00  0.00    +0.183 HD
ENDROOT
BRANCH   2   7
ATOM      7  C   UNL     1      -3.997  -6.234   1.708  0.00  0.00    -0.014 A 
ATOM      8  C   UNL     1      -3.626  -7.579   1.600  0.00  0.00    +0.012 A 
ATOM      9  C   UNL     1      -4.333  -8.426   0.773  0.00  0.00    +0.050 A 
ATOM     10  C   UNL     1      -5.414  -7.943   0.049  0.00  0.00    +0.162 A 
ATOM     11  C   UNL     1      -5.788  -6.608   0.150  0.00  0.00    +0.162 A 
ATOM     12  C   UNL     1      -5.091  -5.752   0.979  0.00  0.00    +0.057 A 
ATOM     13  O   UNL     1      -6.854  -6.150  -0.569  0.00  0.00    -0.488 OA
ATOM     14  C   UNL     1      -6.678  -6.101  -1.986  0.00  0.00    +0.232 C 
ATOM     15  C   UNL     1      -6.978  -7.454  -2.614  0.00  0.00    +0.082 C 
ATOM     16  C   UNL     1      -5.997  -8.527  -2.171  0.00  0.00    +0.232 C 
ATOM     17  O   UNL     1      -6.117  -8.778  -0.769  0.00  0.00    -0.488 OA
ENDBRANCH   2   7
BRANCH   1  20
ATOM     18  C   UNL     1      -1.413  -2.041   0.005  0.00  0.00    -0.005 A 
ATOM     19  C   UNL     1      -1.606  -2.740   1.181  0.00  0.00    +0.016 A 
ATOM     20  C   UNL     1      -1.588  -4.122   1.176  0.00  0.00    +0.023 A 
ATOM     21  C   UNL     1      -1.375  -4.810  -0.010  0.00  0.00    +0.126 A 
ATOM     22  C   UNL     1      -1.182  -4.111  -1.191  0.00  0.00    +0.091 A 
ATOM     23  C   UNL     1      -1.206  -2.724  -1.185  0.00  0.00    +0.123 A 
BRANCH  23  24
ATOM     24  O   UNL     1      -1.022  -2.036  -2.342  0.00  0.00    -0.506 OA
ATOM     25  H   UNL     1      -0.098  -1.825  -2.532  0.00  0.00    +0.292 HD
ENDBRANCH  23  24
BRANCH  21  26
ATOM     26  O   UNL     1      -1.357  -6.169  -0.013  0.00  0.00    -0.506 OA
ATOM     27  H   UNL     1      -2.223  -6.574  -0.164  0.00  0.00    +0.292 HD
ENDBRANCH  21  26
BRANCH  18  28
ATOM     28  C   UNL     1      -1.433  -0.534   0.013  0.00  0.00    +0.038 C 
BRANCH  28  30
ATOM     29  C   UNL     1      -0.019   1.526   0.010  0.00  0.00    +0.004 C 
ATOM     30  C   UNL     1       0.002  -0.004   0.002  0.00  0.00    +0.001 C 
ENDBRANCH  28  30
ENDBRANCH  18  28
ENDBRANCH   1  20
TORSDOF 6
