REMARK  Name = ZINC39665499
REMARK  9 active torsions:
REMARK  status: ('A' for Active; 'I' for Inactive)
REMARK    1  A    between atoms: C_1  and  C_2
REMARK    2  A    between atoms: C_2  and  C_4
REMARK    3  A    between atoms: C_2  and  O_29
REMARK    4  A    between atoms: C_4  and  N_5
REMARK    5  A    between atoms: C_6  and  C_8
REMARK    6  A    between atoms: C_19  and  C_21
REMARK    7  A    between atoms: O_29  and  C_30
REMARK    8  A    between atoms: C_33  and  O_36
REMARK    9  A    between atoms: O_36  and  C_37
REMARK                            x       y       z     vdW  Elec       q    Type
REMARK                         _______ _______ _______ _____ _____    ______ ____
ROOT
ATOM      1  C   UNL     1       1.430  -4.581  -1.915  0.00  0.00    +0.100 C 
ATOM      2  C   UNL     1       2.374  -4.835  -0.718  0.00  0.00    +0.121 C 
ATOM      3  N   UNL     1       3.233  -5.963  -1.151  0.00  0.00    -0.296 N 
ATOM      4  C   UNL     1       3.511  -5.686  -2.581  0.00  0.00    +0.115 C 
ATOM      5  C   UNL     1       2.180  -5.141  -3.135  0.00  0.00    -0.004 C 
ATOM      6  C   UNL     1       1.377  -6.266  -3.780  0.00  0.00    -0.010 C 
ATOM      7  C   UNL     1       2.116  -6.767  -5.024  0.00  0.00    -0.082 C 
ATOM      8  N   UNL     1       2.291  -5.659  -5.971  0.00  0.00    +0.379 N 
ATOM      9  C   UNL     1       3.143  -4.622  -5.376  0.00  0.00    -0.082 C 
ATOM     10  C   UNL     1       2.447  -4.030  -4.147  0.00  0.00    -0.010 C 
ATOM     11  C   UNL     1       3.663  -7.005  -0.412  0.00  0.00    +0.248 C 
ATOM     12  O   UNL     1       3.277  -7.138   0.733  0.00  0.00    -0.270 OA
ATOM     13  H   UNL     1       2.724  -6.005  -6.814  0.00  0.00    -0.086 HD
ATOM     14  H   UNL     1       1.390  -5.265  -6.195  0.00  0.00    -0.086 HD
ENDROOT
BRANCH  11  15
ATOM     15  C   UNL     1       4.604  -7.984  -0.994  0.00  0.00    +0.055 A 
ATOM     16  C   UNL     1       5.601  -7.561  -1.875  0.00  0.00    +0.016 A 
ATOM     17  C   UNL     1       6.475  -8.479  -2.415  0.00  0.00    +0.021 A 
ATOM     18  C   UNL     1       6.368  -9.821  -2.085  0.00  0.00    +0.042 A 
ATOM     19  C   UNL     1       5.382 -10.248  -1.212  0.00  0.00    +0.040 A 
ATOM     20  C   UNL     1       4.503  -9.337  -0.659  0.00  0.00    +0.054 A 
ATOM     21 CL   UNL     1       3.272  -9.873   0.441  0.00  0.00    -0.083 Cl
ATOM     22 CL   UNL     1       7.473 -10.970  -2.769  0.00  0.00    -0.083 Cl
ENDBRANCH  11  15
BRANCH   1  24
ATOM     23  N   UNL     1       0.021  -2.673  -2.615  0.00  0.00    -0.312 N 
ATOM     24  C   UNL     1       1.182  -3.104  -2.083  0.00  0.00    +0.218 C 
ATOM     25  O   UNL     1       2.026  -2.305  -1.740  0.00  0.00    -0.275 OA
ATOM     26  H   UNL     1      -0.654  -3.313  -2.890  0.00  0.00    +0.149 HD
BRANCH  23  27
ATOM     27  C   UNL     1      -0.221  -1.237  -2.779  0.00  0.00    +0.148 C 
BRANCH  27  29
ATOM     28  C   UNL     1      -1.854   0.480  -3.571  0.00  0.00    +0.053 C 
ATOM     29  C   UNL     1      -1.602  -1.020  -3.400  0.00  0.00    +0.187 C 
BRANCH  29  30
ATOM     30  O   UNL     1      -1.656  -1.660  -4.677  0.00  0.00    -0.488 OA
BRANCH  30  31
ATOM     31  C   UNL     1      -2.884  -2.025  -5.133  0.00  0.00    +0.121 A 
ATOM     32  C   UNL     1      -2.999  -2.758  -6.305  0.00  0.00    +0.049 A 
ATOM     33  C   UNL     1      -4.246  -3.128  -6.768  0.00  0.00    +0.049 A 
ATOM     34  C   UNL     1      -5.384  -2.767  -6.062  0.00  0.00    +0.120 A 
ATOM     35  C   UNL     1      -5.269  -2.034  -4.889  0.00  0.00    +0.049 A 
ATOM     36  C   UNL     1      -4.021  -1.668  -4.423  0.00  0.00    +0.049 A 
BRANCH  34  37
ATOM     37  O   UNL     1      -6.612  -3.130  -6.519  0.00  0.00    -0.495 OA
ATOM     38  C   UNL     1      -7.740  -2.724  -5.740  0.00  0.00    +0.277 C 
ENDBRANCH  34  37
ENDBRANCH  30  31
ENDBRANCH  29  30
ENDBRANCH  27  29
ENDBRANCH  23  27
ENDBRANCH   1  24
TORSDOF 7
