REMARK  Name = ZINC11879584
REMARK  10 active torsions:
REMARK  status: ('A' for Active; 'I' for Inactive)
REMARK    1  A    between atoms: C_1  and  C_2
REMARK    2  A    between atoms: C_2  and  N_3
REMARK    3  A    between atoms: C_5  and  C_9
REMARK    4  A    between atoms: C_6  and  C_8
REMARK    5  A    between atoms: C_9  and  N_62
REMARK    6  A    between atoms: C_22  and  C_24
REMARK    7  A    between atoms: C_28  and  O_32
REMARK    8  A    between atoms: C_29  and  O_30
REMARK    9  A    between atoms: O_30  and  C_31
REMARK   10  A    between atoms: O_32  and  C_33
REMARK                            x       y       z     vdW  Elec       q    Type
REMARK                         _______ _______ _______ _____ _____    ______ ____
ROOT
ATOM      1  C   UNL     1      -0.958  -1.015   4.455  0.00  0.00    -0.072 C 
ATOM      2  C   UNL     1      -1.894   0.188   4.637  0.00  0.00    +0.019 C 
ATOM      3  C   UNL     1      -1.923   0.956   3.339  0.00  0.00    -0.022 A 
ATOM      4  C   UNL     1      -2.390   2.299   3.079  0.00  0.00    +0.003 A 
ATOM      5  C   UNL     1      -2.946   3.288   3.897  0.00  0.00    +0.010 A 
ATOM      6  C   UNL     1      -3.283   4.475   3.295  0.00  0.00    +0.001 A 
ATOM      7  C   UNL     1      -3.085   4.697   1.942  0.00  0.00    +0.002 A 
ATOM      8  C   UNL     1      -2.537   3.736   1.109  0.00  0.00    +0.026 A 
ATOM      9  C   UNL     1      -2.186   2.521   1.692  0.00  0.00    +0.047 A 
ATOM     10  N   UNL     1      -1.636   1.383   1.174  0.00  0.00    -0.359 N 
ATOM     11  H   UNL     1      -1.390   1.255   0.244  0.00  0.00    +0.166 HD
ATOM     12  C   UNL     1      -1.479   0.453   2.161  0.00  0.00    +0.011 A 
ATOM     13  C   UNL     1      -0.917  -0.943   2.027  0.00  0.00    +0.014 C 
ATOM     14  N   UNL     1      -1.335  -1.727   3.214  0.00  0.00    +0.391 N 
ATOM     15  H   UNL     1      -2.355  -1.843   3.193  0.00  0.00    -0.080 HD
ENDROOT
BRANCH  13  16
ATOM     16  C   UNL     1      -1.474  -1.596   0.789  0.00  0.00    -0.010 A 
ATOM     17  C   UNL     1      -2.764  -2.094   0.790  0.00  0.00    +0.006 A 
ATOM     18  C   UNL     1      -3.276  -2.699  -0.342  0.00  0.00    +0.004 A 
ATOM     19  C   UNL     1      -2.502  -2.805  -1.483  0.00  0.00    +0.049 A 
ATOM     20  C   UNL     1      -1.210  -2.304  -1.493  0.00  0.00    +0.162 A 
ATOM     21  C   UNL     1      -0.695  -1.694  -0.353  0.00  0.00    +0.163 A 
BRANCH  21  22
ATOM     22  O   UNL     1       0.572  -1.200  -0.358  0.00  0.00    -0.491 OA
ATOM     23  C   UNL     1       0.752   0.118  -0.878  0.00  0.00    +0.277 C 
ENDBRANCH  21  22
BRANCH  20  24
ATOM     24  O   UNL     1      -0.448  -2.407  -2.614  0.00  0.00    -0.491 OA
ATOM     25  C   UNL     1      -1.042  -3.045  -3.747  0.00  0.00    +0.277 C 
ENDBRANCH  20  24
ENDBRANCH  13  16
BRANCH  14  26
ATOM     26  C   UNL     1      -0.700  -3.061   3.185  0.00  0.00    -0.038 C 
BRANCH  26  29
ATOM     27  N   UNL     1      -1.286  -4.932   6.260  0.00  0.00    -0.271 N 
ATOM     28  C   UNL     1      -0.476  -4.229   5.440  0.00  0.00    +0.110 A 
ATOM     29  C   UNL     1      -1.201  -3.863   4.358  0.00  0.00    -0.024 A 
ATOM     30  C   UNL     1      -2.496  -4.367   4.517  0.00  0.00    +0.061 A 
ATOM     31  N   UNL     1      -2.548  -5.008   5.656  0.00  0.00    -0.176 NA
ATOM     32  C   UNL     1      -3.635  -4.201   3.544  0.00  0.00    +0.068 C 
BRANCH  27  34
ATOM     33  C   UNL     1      -1.868  -5.019   8.633  0.00  0.00    +0.029 C 
ATOM     34  C   UNL     1      -0.910  -5.517   7.549  0.00  0.00    +0.140 C 
ENDBRANCH  27  34
ENDBRANCH  26  29
ENDBRANCH  14  26
TORSDOF 6
