REMARK  Name = ZINC13023265
REMARK  8 active torsions:
REMARK  status: ('A' for Active; 'I' for Inactive)
REMARK    1  A    between atoms: C_1  and  C_2
REMARK    2  A    between atoms: C_2  and  C_3
REMARK    3  A    between atoms: C_10  and  C_15
REMARK    4  A    between atoms: C_15  and  C_17
REMARK    5  A    between atoms: C_15  and  N_66
REMARK    6  A    between atoms: N_21  and  C_22
REMARK    7  A    between atoms: C_22  and  C_23
REMARK    8  A    between atoms: N_30  and  C_33
REMARK                            x       y       z     vdW  Elec       q    Type
REMARK                         _______ _______ _______ _____ _____    ______ ____
ROOT
ATOM      1  C   UNL     1       1.133   7.465   0.030  0.00  0.00    +0.039 C 
ENDROOT
BRANCH   1   9
ATOM      2  C   UNL     1      -1.668   1.968  -0.433  0.00  0.00    -0.047 A 
ATOM      3  C   UNL     1      -0.509   1.202  -0.433  0.00  0.00    +0.005 A 
ATOM      4  C   UNL     1       0.729   1.801  -0.347  0.00  0.00    +0.026 A 
ATOM      5  C   UNL     1       0.822   3.186  -0.255  0.00  0.00    +0.049 A 
ATOM      6  C   UNL     1      -0.355   3.958  -0.250  0.00  0.00    -0.001 A 
ATOM      7  C   UNL     1      -1.601   3.329  -0.338  0.00  0.00    +0.013 A 
ATOM      8  C   UNL     1      -0.247   5.415  -0.152  0.00  0.00    +0.017 A 
ATOM      9  C   UNL     1       0.987   5.969  -0.071  0.00  0.00    +0.011 A 
ATOM     10  C   UNL     1       2.136   5.149  -0.080  0.00  0.00    +0.251 A 
ATOM     11  O   UNL     1       3.237   5.668  -0.006  0.00  0.00    -0.268 OA
ATOM     12  N   UNL     1       2.047   3.811  -0.169  0.00  0.00    -0.322 N 
ATOM     13  H   UNL     1       2.857   3.277  -0.173  0.00  0.00    +0.169 HD
BRANCH   2  15
ATOM     14  C   UNL     1      -3.526   0.969   0.870  0.00  0.00    +0.009 C 
ATOM     15  C   UNL     1      -3.010   1.291  -0.534  0.00  0.00    +0.032 C 
ENDBRANCH   2  15
ENDBRANCH   1   9
BRANCH   1  21
ATOM     16  C   UNL     1       2.239   9.393  -0.931  0.00  0.00    -0.058 C 
ATOM     17  C   UNL     1       3.230   9.838  -2.010  0.00  0.00    +0.086 C 
ATOM     18  N   UNL     1       2.701   9.483  -3.334  0.00  0.00    -0.333 N 
ATOM     19  C   UNL     1       2.483   8.034  -3.440  0.00  0.00    +0.086 C 
ATOM     20  C   UNL     1       1.493   7.589  -2.361  0.00  0.00    -0.058 C 
ATOM     21  N   UNL     1       2.047   7.931  -1.035  0.00  0.00    +0.391 N 
ATOM     22  H   UNL     1       2.955   7.466  -0.922  0.00  0.00    -0.080 HD
BRANCH  18  23
ATOM     23  C   UNL     1       3.546   9.938  -4.350  0.00  0.00    +0.030 A 
ATOM     24  C   UNL     1       4.060   9.044  -5.280  0.00  0.00    +0.026 A 
ATOM     25  C   UNL     1       4.891   9.497  -6.286  0.00  0.00    +0.040 A 
ATOM     26  C   UNL     1       5.221  10.840  -6.361  0.00  0.00    +0.124 A 
ATOM     27  C   UNL     1       4.714  11.732  -5.432  0.00  0.00    +0.040 A 
ATOM     28  C   UNL     1       3.878  11.285  -4.427  0.00  0.00    +0.026 A 
ATOM     29  F   UNL     1       6.038  11.280  -7.343  0.00  0.00    -0.205 F 
ENDBRANCH  18  23
ENDBRANCH   1  21
BRANCH   1  30
ATOM     30  C   UNL     1       1.721   7.823   1.371  0.00  0.00    +0.143 A 
ATOM     31  N   UNL     1       2.969   7.675   1.743  0.00  0.00    -0.115 NA
ATOM     32  N   UNL     1       3.076   8.098   2.955  0.00  0.00    -0.023 NA
ATOM     33  N   UNL     1       1.927   8.505   3.369  0.00  0.00    -0.044 NA
ATOM     34  N   UNL     1       1.065   8.351   2.421  0.00  0.00    -0.223 N 
BRANCH  34  35
ATOM     35  C   UNL     1      -0.359   8.690   2.477  0.00  0.00    +0.221 C 
BRANCH  35  36
ATOM     36  C   UNL     1      -1.139   7.498   2.971  0.00  0.00    +0.126 A 
ATOM     37  C   UNL     1      -1.419   7.221   4.257  0.00  0.00    +0.046 A 
ATOM     38  C   UNL     1      -2.167   6.021   4.263  0.00  0.00    +0.041 A 
ATOM     39  C   UNL     1      -2.292   5.633   2.981  0.00  0.00    +0.195 A 
ATOM     40  O   UNL     1      -1.667   6.532   2.203  0.00  0.00    -0.466 OA
ENDBRANCH  35  36
ENDBRANCH  34  35
ENDBRANCH   1  30
TORSDOF 7
