REMARK  Name = ZINC35072060
REMARK  12 active torsions:
REMARK  status: ('A' for Active; 'I' for Inactive)
REMARK    1  A    between atoms: C_1  and  C_2
REMARK    2  A    between atoms: C_5  and  C_37
REMARK    3  A    between atoms: C_6  and  N_8
REMARK    4  A    between atoms: C_18  and  C_19
REMARK    5  A    between atoms: C_19  and  C_21
REMARK    6  A    between atoms: C_19  and  N_22
REMARK    7  A    between atoms: N_22  and  C_23
REMARK    8  A    between atoms: C_23  and  C_24
REMARK    9  A    between atoms: C_24  and  C_25
REMARK   10  A    between atoms: C_24  and  C_26
REMARK   11  A    between atoms: N_29  and  C_30
REMARK   12  A    between atoms: C_30  and  C_31
REMARK                            x       y       z     vdW  Elec       q    Type
REMARK                         _______ _______ _______ _____ _____    ______ ____
ROOT
ATOM      1  N   UNL     1       0.065  -2.703   3.328  0.00  0.00    -0.263 N 
ATOM      2  C   UNL     1       1.111  -3.091   4.095  0.00  0.00    +0.266 A 
ATOM      3  O   UNL     1       2.153  -2.462   4.108  0.00  0.00    -0.267 OA
ATOM      4  C   UNL     1       0.940  -4.302   4.910  0.00  0.00    +0.065 A 
ATOM      5  C   UNL     1       1.955  -4.785   5.734  0.00  0.00    +0.015 A 
ATOM      6  C   UNL     1       1.741  -5.925   6.477  0.00  0.00    +0.001 A 
ATOM      7  C   UNL     1       0.525  -6.593   6.412  0.00  0.00    +0.002 A 
ATOM      8  C   UNL     1      -0.490  -6.132   5.605  0.00  0.00    +0.028 A 
ATOM      9  C   UNL     1      -0.298  -4.979   4.842  0.00  0.00    +0.078 A 
ATOM     10  N   UNL     1      -1.272  -4.489   4.034  0.00  0.00    -0.231 NA
ATOM     11  C   UNL     1      -1.095  -3.414   3.328  0.00  0.00    +0.138 A 
ENDROOT
BRANCH   1  17
ATOM     12  C   UNL     1      -0.605   2.135   2.760  0.00  0.00    +0.044 C 
ATOM     13  C   UNL     1      -0.142   0.802   2.232  0.00  0.00    -0.048 A 
ATOM     14  C   UNL     1       0.393   0.711   0.960  0.00  0.00    +0.004 A 
ATOM     15  C   UNL     1       0.820  -0.511   0.472  0.00  0.00    +0.005 A 
ATOM     16  C   UNL     1       0.713  -1.644   1.255  0.00  0.00    -0.026 A 
ATOM     17  C   UNL     1       0.176  -1.556   2.533  0.00  0.00    +0.054 A 
ATOM     18  C   UNL     1      -0.246  -0.326   3.022  0.00  0.00    +0.030 A 
ATOM     19  C   UNL     1       1.177  -2.975   0.723  0.00  0.00    +0.046 C 
ENDBRANCH   1  17
BRANCH  11  20
ATOM     20  C   UNL     1      -2.229  -2.933   2.460  0.00  0.00    +0.141 C 
ATOM     21  C   UNL     1      -2.178  -3.652   1.111  0.00  0.00    +0.036 C 
BRANCH  20  22
ATOM     22  N   UNL     1      -3.505  -3.221   3.120  0.00  0.00    -0.276 N 
ATOM     23  C   UNL     1      -4.289  -2.210   3.541  0.00  0.00    +0.303 C 
ATOM     24  O   UNL     1      -3.938  -1.058   3.374  0.00  0.00    -0.253 OA
ATOM     25  N   UNL     1      -5.463  -2.475   4.148  0.00  0.00    -0.295 N 
ATOM     26  H   UNL     1      -5.743  -3.394   4.282  0.00  0.00    +0.151 HD
BRANCH  22  27
ATOM     27  C   UNL     1      -3.928  -4.609   3.322  0.00  0.00    +0.113 C 
BRANCH  27  28
ATOM     28  C   UNL     1      -4.747  -5.073   2.115  0.00  0.00    +0.000 C 
ATOM     29  C   UNL     1      -5.065  -6.563   2.257  0.00  0.00    +0.009 C 
ATOM     30  C   UNL     1      -6.051  -4.277   2.048  0.00  0.00    +0.009 C 
ENDBRANCH  27  28
ENDBRANCH  22  27
BRANCH  25  31
ATOM     31  C   UNL     1      -6.316  -1.375   4.606  0.00  0.00    +0.141 C 
BRANCH  31  32
ATOM     32  C   UNL     1      -7.559  -1.937   5.245  0.00  0.00    -0.030 A 
ATOM     33  C   UNL     1      -8.680  -2.185   4.475  0.00  0.00    +0.005 A 
ATOM     34  C   UNL     1      -9.821  -2.700   5.061  0.00  0.00    +0.000 A 
ATOM     35  C   UNL     1      -9.841  -2.967   6.418  0.00  0.00    +0.000 A 
ATOM     36  C   UNL     1      -8.720  -2.719   7.188  0.00  0.00    +0.000 A 
ATOM     37  C   UNL     1      -7.578  -2.208   6.600  0.00  0.00    +0.005 A 
ENDBRANCH  31  32
ENDBRANCH  25  31
ENDBRANCH  20  22
ENDBRANCH  11  20
TORSDOF 7
