REMARK  Name = ZINC15221553
REMARK  6 active torsions:
REMARK  status: ('A' for Active; 'I' for Inactive)
REMARK    1  A    between atoms: C_1  and  C_2
REMARK    2  A    between atoms: C_9  and  C_13
REMARK    3  A    between atoms: N_14  and  N_15
REMARK    4  A    between atoms: C_16  and  C_30
REMARK    5  A    between atoms: C_20  and  C_21
REMARK    6  A    between atoms: C_24  and  O_27
REMARK                            x       y       z     vdW  Elec       q    Type
REMARK                         _______ _______ _______ _____ _____    ______ ____
ROOT
ATOM      1  N   UNL     1      -2.598   3.552   0.346  0.00  0.00    -0.161 N 
ATOM      2  C   UNL     1      -3.388   2.320   0.410  0.00  0.00    +0.236 C 
ATOM      3  N   UNL     1      -2.446   1.202   0.277  0.00  0.00    -0.217 NA
ATOM      4  C   UNL     1      -1.170   1.763   0.151  0.00  0.00    +0.114 C 
ATOM      5  C   UNL     1      -0.013   1.076   0.008  0.00  0.00    +0.038 C 
ATOM      6  C   UNL     1      -1.303   3.223   0.195  0.00  0.00    +0.283 C 
ATOM      7  O   UNL     1      -0.382   4.014   0.108  0.00  0.00    -0.267 OA
ENDROOT
BRANCH   5   8
ATOM      8  C   UNL     1       1.232   1.791  -0.310  0.00  0.00    -0.023 A 
ATOM      9  C   UNL     1       1.224   2.831  -1.246  0.00  0.00    +0.011 A 
ATOM     10  C   UNL     1       2.392   3.501  -1.537  0.00  0.00    +0.046 A 
ATOM     11  C   UNL     1       3.578   3.138  -0.911  0.00  0.00    +0.117 A 
ATOM     12  C   UNL     1       3.593   2.102   0.015  0.00  0.00    +0.046 A 
ATOM     13  C   UNL     1       2.429   1.429   0.317  0.00  0.00    +0.011 A 
BRANCH  11  14
ATOM     14  O   UNL     1       4.728   3.799  -1.205  0.00  0.00    -0.507 OA
ATOM     15  H   UNL     1       5.668   3.513  -0.711  0.00  0.00    +0.292 HD
ENDBRANCH  11  14
ENDBRANCH   5   8
BRANCH   2  16
ATOM     16  C   UNL     1      -4.383   2.287  -0.721  0.00  0.00    -0.006 A 
ATOM     17  C   UNL     1      -4.901   3.467  -1.221  0.00  0.00    +0.007 A 
ATOM     18  C   UNL     1      -5.809   3.438  -2.262  0.00  0.00    +0.000 A 
ATOM     19  C   UNL     1      -6.210   2.227  -2.796  0.00  0.00    +0.000 A 
ATOM     20  C   UNL     1      -5.696   1.046  -2.292  0.00  0.00    +0.000 A 
ATOM     21  C   UNL     1      -4.783   1.076  -1.255  0.00  0.00    +0.007 A 
ENDBRANCH   2  16
BRANCH   1  23
ATOM     22  C   UNL     1      -2.301   5.872   0.360  0.00  0.00    +0.141 C 
ATOM     23  N   UNL     1      -3.106   4.855   0.429  0.00  0.00    -0.182 NA
BRANCH  22  32
ATOM     24  C   UNL     1      -1.451  13.235   0.414  0.00  0.00    +0.044 C 
ATOM     25  C   UNL     1      -2.313  12.001   0.485  0.00  0.00    -0.050 A 
ATOM     26  C   UNL     1      -3.692  12.133   0.641  0.00  0.00    +0.005 A 
ATOM     27  C   UNL     1      -4.500  11.040   0.709  0.00  0.00    +0.028 A 
ATOM     28  C   UNL     1      -3.942   9.753   0.620  0.00  0.00    +0.073 A 
ATOM     29  C   UNL     1      -2.539   9.620   0.461  0.00  0.00    +0.001 A 
ATOM     30  C   UNL     1      -1.736  10.772   0.395  0.00  0.00    +0.013 A 
ATOM     31  C   UNL     1      -1.978   8.335   0.379  0.00  0.00    +0.022 A 
ATOM     32  C   UNL     1      -2.835   7.242   0.447  0.00  0.00    +0.032 A 
ATOM     33  C   UNL     1      -4.218   7.457   0.605  0.00  0.00    +0.139 A 
ATOM     34  N   UNL     1      -4.718   8.665   0.685  0.00  0.00    -0.235 NA
ATOM     35 CL   UNL     1      -5.284   6.090   0.697  0.00  0.00    -0.061 Cl
ENDBRANCH  22  32
ENDBRANCH   1  23
TORSDOF 5
