REMARK  Name = ZINC15015830
REMARK  3 active torsions:
REMARK  status: ('A' for Active; 'I' for Inactive)
REMARK    1  A    between atoms: C_3  and  N_8
REMARK    2  A    between atoms: C_14  and  C_15
REMARK    3  A    between atoms: C_18  and  O_22
REMARK                            x       y       z     vdW  Elec       q    Type
REMARK                         _______ _______ _______ _____ _____    ______ ____
ROOT
ATOM      1  N   UNL     1       4.153   1.162  -0.889  0.00  0.00    -0.226 NA
ATOM      2  C   UNL     1       5.004   1.012   0.102  0.00  0.00    +0.166 C 
ATOM      3  N   UNL     1       6.231   1.614   0.275  0.00  0.00    -0.260 N 
ATOM      4  C   UNL     1       6.968   1.349   1.341  0.00  0.00    +0.256 C 
ATOM      5  O   UNL     1       8.054   1.872   1.509  0.00  0.00    -0.269 OA
ATOM      6  C   UNL     1       6.412   0.392   2.316  0.00  0.00    +0.078 C 
ATOM      7  C   UNL     1       6.944  -0.056   3.482  0.00  0.00    +0.028 C 
ATOM      8  S   UNL     1       4.848  -0.013   1.554  0.00  0.00    -0.049 S 
ATOM      9  H   UNL     1       6.559   2.238  -0.392  0.00  0.00    +0.157 HD
ENDROOT
BRANCH   1  12
ATOM     10  C   UNL     1       0.588   0.434  -1.200  0.00  0.00    +0.003 A 
ATOM     11  C   UNL     1       1.778   1.131  -1.208  0.00  0.00    +0.028 A 
ATOM     12  C   UNL     1       2.969   0.477  -0.882  0.00  0.00    +0.068 A 
ATOM     13  C   UNL     1       2.945  -0.880  -0.551  0.00  0.00    +0.047 A 
ATOM     14  C   UNL     1       1.746  -1.565  -0.547  0.00  0.00    +0.043 A 
ATOM     15  C   UNL     1       0.570  -0.909  -0.871  0.00  0.00    +0.020 A 
ATOM     16 CL   UNL     1       1.714  -3.251  -0.136  0.00  0.00    -0.083 Cl
ENDBRANCH   1  12
BRANCH   7  17
ATOM     17  C   UNL     1       6.286  -1.141   4.221  0.00  0.00    -0.022 A 
ATOM     18  C   UNL     1       5.335  -1.948   3.584  0.00  0.00    +0.011 A 
ATOM     19  C   UNL     1       4.720  -2.964   4.281  0.00  0.00    +0.047 A 
ATOM     20  C   UNL     1       5.041  -3.189   5.614  0.00  0.00    +0.135 A 
ATOM     21  C   UNL     1       5.985  -2.391   6.252  0.00  0.00    +0.083 A 
ATOM     22  C   UNL     1       6.611  -1.376   5.562  0.00  0.00    +0.031 A 
ATOM     23 CL   UNL     1       6.380  -2.679   7.918  0.00  0.00    -0.080 Cl
BRANCH  20  24
ATOM     24  O   UNL     1       4.432  -4.192   6.297  0.00  0.00    -0.505 OA
ATOM     25  H   UNL     1       4.894  -5.040   6.246  0.00  0.00    +0.292 HD
ENDBRANCH  20  24
ENDBRANCH   7  17
TORSDOF 3
