REMARK  Name = ZINC38898827
REMARK  6 active torsions:
REMARK  status: ('A' for Active; 'I' for Inactive)
REMARK    1  A    between atoms: C_6  and  C_11
REMARK    2  A    between atoms: C_11  and  C_13
REMARK    3  A    between atoms: C_14  and  N_15
REMARK    4  A    between atoms: N_15  and  C_16
REMARK    5  A    between atoms: C_19  and  S_22
REMARK    6  A    between atoms: S_22  and  N_25
REMARK                            x       y       z     vdW  Elec       q    Type
REMARK                         _______ _______ _______ _____ _____    ______ ____
ROOT
ATOM      1  C   UNL     1       8.561  -4.747  -0.417  0.00  0.00    +0.031 A 
ATOM      2  C   UNL     1       8.570  -6.118  -0.638  0.00  0.00    +0.025 A 
ATOM      3  C   UNL     1       9.766  -6.772  -0.861  0.00  0.00    +0.031 A 
ATOM      4  C   UNL     1      10.954  -6.063  -0.862  0.00  0.00    +0.113 A 
ATOM      5  C   UNL     1      10.948  -4.698  -0.642  0.00  0.00    +0.031 A 
ATOM      6  C   UNL     1       9.755  -4.037  -0.425  0.00  0.00    +0.025 A 
ENDROOT
BRANCH   4   7
ATOM      7  S   UNL     1      12.477  -6.902  -1.145  0.00  0.00    +0.100 S 
ATOM      8  O   UNL     1      13.495  -6.105  -0.555  0.00  0.00    -0.146 OA
ATOM      9  O   UNL     1      12.267  -8.260  -0.782  0.00  0.00    -0.146 OA
BRANCH   7  10
ATOM     10  N   UNL     1      12.749  -6.886  -2.778  0.00  0.00    -0.112 NA
ATOM     11  C   UNL     1      13.819  -7.444  -3.265  0.00  0.00    +0.170 C 
ATOM     12  C   UNL     1      14.817  -8.116  -2.350  0.00  0.00    +0.191 C 
ATOM     13  N   UNL     1      16.006  -8.730  -2.963  0.00  0.00    -0.376 N 
ATOM     14  C   UNL     1      16.141  -8.665  -4.258  0.00  0.00    +0.061 A 
ATOM     15  C   UNL     1      17.311  -9.262  -4.920  0.00  0.00    +0.027 A 
ATOM     16  C   UNL     1      17.417  -9.175  -6.264  0.00  0.00    +0.002 A 
ATOM     17  C   UNL     1      16.440  -8.530  -7.041  0.00  0.00    +0.002 A 
ATOM     18  C   UNL     1      15.340  -7.959  -6.505  0.00  0.00    +0.030 A 
ATOM     19  C   UNL     1      15.126  -7.990  -5.104  0.00  0.00    +0.089 A 
ATOM     20  N   UNL     1      14.049  -7.436  -4.587  0.00  0.00    -0.227 NA
ATOM     21  H   UNL     1      16.673  -9.172  -2.416  0.00  0.00    +0.160 HD
ENDBRANCH   7  10
ENDBRANCH   4   7
BRANCH   1  22
ATOM     22  N   UNL     1       7.353  -4.082  -0.192  0.00  0.00    -0.320 N 
ATOM     23  H   UNL     1       7.347  -3.123  -0.041  0.00  0.00    +0.152 HD
BRANCH  22  25
ATOM     24  C   UNL     1       5.024  -4.160   0.147  0.00  0.00    +0.066 C 
ATOM     25  C   UNL     1       6.179  -4.781  -0.184  0.00  0.00    +0.076 C 
BRANCH  24  26
ATOM     26  C   UNL     1       5.051  -2.841   0.651  0.00  0.00    +0.187 C 
ATOM     27  O   UNL     1       6.117  -2.304   0.895  0.00  0.00    -0.287 OA
BRANCH  26  33
ATOM     28  C   UNL     1       0.209   1.185   2.015  0.00  0.00    +0.001 A 
ATOM     29  C   UNL     1       1.418   1.816   2.300  0.00  0.00    +0.001 A 
ATOM     30  C   UNL     1       2.604   1.179   2.099  0.00  0.00    +0.008 A 
ATOM     31  C   UNL     1       2.612  -0.135   1.597  0.00  0.00    -0.017 A 
ATOM     32  C   UNL     1       3.817  -0.820   1.379  0.00  0.00    +0.020 A 
ATOM     33  C   UNL     1       3.785  -2.113   0.884  0.00  0.00    +0.022 A 
ATOM     34  C   UNL     1       2.558  -2.738   0.601  0.00  0.00    +0.012 A 
ATOM     35  C   UNL     1       1.383  -2.091   0.805  0.00  0.00    +0.009 A 
ATOM     36  C   UNL     1       1.382  -0.776   1.308  0.00  0.00    -0.018 A 
ATOM     37  C   UNL     1       0.178  -0.086   1.528  0.00  0.00    +0.008 A 
ENDBRANCH  26  33
ENDBRANCH  24  26
ENDBRANCH  22  25
ENDBRANCH   1  22
TORSDOF 6
