REMARK  Name = ZINC67549974
REMARK  7 active torsions:
REMARK  status: ('A' for Active; 'I' for Inactive)
REMARK    1  A    between atoms: C_1  and  C_2
REMARK    2  A    between atoms: C_2  and  C_29
REMARK    3  A    between atoms: C_7  and  N_11
REMARK    4  A    between atoms: N_14  and  C_15
REMARK    5  A    between atoms: C_15  and  C_16
REMARK    6  A    between atoms: C_16  and  C_18
REMARK    7  A    between atoms: C_16  and  O_28
REMARK                            x       y       z     vdW  Elec       q    Type
REMARK                         _______ _______ _______ _____ _____    ______ ____
ROOT
ATOM      1  N   UNL     1      -0.079  -4.878   3.289  0.00  0.00    -0.269 N 
ATOM      2  C   UNL     1      -0.952  -5.874   3.535  0.00  0.00    +0.304 C 
ATOM      3  O   UNL     1      -2.033  -5.888   2.978  0.00  0.00    -0.253 OA
ATOM      4  N   UNL     1      -0.627  -6.856   4.399  0.00  0.00    -0.296 N 
ATOM      5  H   UNL     1       0.811  -4.907   3.673  0.00  0.00    +0.156 HD
ATOM      6  H   UNL     1       0.234  -6.846   4.844  0.00  0.00    +0.150 HD
ENDROOT
BRANCH   1  13
ATOM      7  C   UNL     1       0.315   0.720  -1.213  0.00  0.00    +0.104 C 
ATOM      8  C   UNL     1      -0.157  -0.684  -0.831  0.00  0.00    +0.248 C 
ATOM      9  O   UNL     1      -1.323  -0.614   0.011  0.00  0.00    -0.448 OA
ATOM     10  C   UNL     1      -1.212  -1.665   0.876  0.00  0.00    +0.167 A 
ATOM     11  C   UNL     1      -2.146  -2.289   1.687  0.00  0.00    +0.051 A 
ATOM     12  C   UNL     1      -1.772  -3.353   2.485  0.00  0.00    +0.027 A 
ATOM     13  C   UNL     1      -0.457  -3.799   2.478  0.00  0.00    +0.038 A 
ATOM     14  C   UNL     1       0.482  -3.177   1.668  0.00  0.00    +0.073 A 
ATOM     15  C   UNL     1       0.108  -2.111   0.867  0.00  0.00    +0.169 A 
ATOM     16  O   UNL     1       0.823  -1.340  -0.004  0.00  0.00    -0.448 OA
ATOM     17  C   UNL     1      -0.444  -1.513  -2.084  0.00  0.00    +0.104 C 
ENDBRANCH   1  13
BRANCH   4  18
ATOM     18  C   UNL     1      -1.577  -7.940   4.667  0.00  0.00    +0.141 C 
BRANCH  18  19
ATOM     19  C   UNL     1      -0.966  -8.914   5.676  0.00  0.00    +0.162 C 
BRANCH  19  20
ATOM     20  C   UNL     1      -1.889 -10.091   5.859  0.00  0.00    -0.017 A 
ATOM     21  C   UNL     1      -3.003  -9.969   6.689  0.00  0.00    +0.007 A 
ATOM     22  C   UNL     1      -3.856 -11.012   6.876  0.00  0.00    +0.009 A 
ATOM     23  C   UNL     1      -3.614 -12.233   6.224  0.00  0.00    -0.018 A 
ATOM     24  C   UNL     1      -4.473 -13.333   6.392  0.00  0.00    +0.008 A 
ATOM     25  C   UNL     1      -4.207 -14.500   5.744  0.00  0.00    +0.001 A 
ATOM     26  C   UNL     1      -3.094 -14.623   4.914  0.00  0.00    +0.001 A 
ATOM     27  C   UNL     1      -2.241 -13.579   4.727  0.00  0.00    +0.008 A 
ATOM     28  C   UNL     1      -2.482 -12.358   5.380  0.00  0.00    -0.018 A 
ATOM     29  C   UNL     1      -1.627 -11.257   5.207  0.00  0.00    +0.014 A 
ENDBRANCH  19  20
BRANCH  19  30
ATOM     30  O   UNL     1      -0.786  -8.252   6.929  0.00  0.00    -0.386 OA
ATOM     31  H   UNL     1      -1.605  -7.915   7.318  0.00  0.00    +0.210 HD
ENDBRANCH  19  30
ENDBRANCH  18  19
ENDBRANCH   4  18
TORSDOF 5
