REMARK  Name = ZINC06342524
REMARK  3 active torsions:
REMARK  status: ('A' for Active; 'I' for Inactive)
REMARK    1  A    between atoms: C_6  and  O_7
REMARK    2  A    between atoms: O_7  and  C_8
REMARK    3  A    between atoms: C_8  and  C_9
REMARK                            x       y       z     vdW  Elec       q    Type
REMARK                         _______ _______ _______ _____ _____    ______ ____
ROOT
ATOM      1  O   UNL     1       3.598   5.953   0.004  0.00  0.00    -0.483 OA
ENDROOT
BRANCH   1   7
ATOM      2  C   UNL     1       1.220   6.013   0.024  0.00  0.00    +0.046 A 
ATOM      3  C   UNL     1       0.019   5.363   0.030  0.00  0.00    +0.015 A 
ATOM      4  C   UNL     1      -0.014   3.964   0.023  0.00  0.00    +0.021 A 
ATOM      5  C   UNL     1       1.188   3.231   0.009  0.00  0.00    +0.143 A 
ATOM      6  C   UNL     1       2.398   3.907   0.002  0.00  0.00    +0.092 A 
ATOM      7  C   UNL     1       2.412   5.292   0.010  0.00  0.00    +0.125 A 
ATOM      8  O   UNL     1       1.149   1.881   0.001  0.00  0.00    -0.422 OA
ATOM      9  C   UNL     1      -0.014   1.214   0.009  0.00  0.00    +0.341 A 
ATOM     10  O   UNL     1       0.002  -0.004   0.002  0.00  0.00    -0.245 OA
ATOM     11  C   UNL     1      -1.259   1.884   0.018  0.00  0.00    +0.041 A 
ATOM     12  C   UNL     1      -1.287   3.240   0.032  0.00  0.00    -0.027 A 
ATOM     13  C   UNL     1      -2.714   3.736   0.048  0.00  0.00    +0.036 C 
ATOM     14  C   UNL     1      -3.557   2.518   0.485  0.00  0.00    +0.010 C 
ATOM     15  C   UNL     1      -2.670   1.336   0.035  0.00  0.00    +0.043 C 
ENDBRANCH   1   7
BRANCH   1  16
ATOM     16  C   UNL     1       3.545   7.381   0.013  0.00  0.00    +0.324 C 
BRANCH  16  17
ATOM     17  C   UNL     1       4.946   7.936   0.005  0.00  0.00    +0.256 C 
ATOM     18  O   UNL     1       5.896   7.183  -0.007  0.00  0.00    -0.272 OA
ATOM     19  N   UNL     1       5.143   9.270   0.011  0.00  0.00    -0.262 N 
ATOM     20  C   UNL     1       6.435   9.781   0.004  0.00  0.00    +0.165 A 
ATOM     21  N   UNL     1       7.582   9.134  -0.004  0.00  0.00    -0.229 NA
ATOM     22  C   UNL     1       8.753   9.766  -0.015  0.00  0.00    +0.054 A 
ATOM     23  C   UNL     1       8.697  11.123  -0.006  0.00  0.00    +0.014 A 
ATOM     24  S   UNL     1       6.953  11.441   0.009  0.00  0.00    -0.057 S 
ATOM     25  C   UNL     1       9.835  12.086  -0.009  0.00  0.00    +0.044 C 
ATOM     26  C   UNL     1      11.117  11.316   0.345  0.00  0.00    +0.006 C 
ATOM     27  C   UNL     1      11.172  10.038  -0.498  0.00  0.00    +0.006 C 
ATOM     28  C   UNL     1      10.100   9.053  -0.031  0.00  0.00    +0.056 C 
ATOM     29  H   UNL     1       4.382   9.872   0.021  0.00  0.00    +0.157 HD
ENDBRANCH  16  17
ENDBRANCH   1  16
TORSDOF 3
