REMARK  Name = ZINC21539525
REMARK  6 active torsions:
REMARK  status: ('A' for Active; 'I' for Inactive)
REMARK    1  A    between atoms: C_1  and  C_2
REMARK    2  A    between atoms: C_5  and  C_8
REMARK    3  A    between atoms: C_8  and  N_9
REMARK    4  A    between atoms: C_24  and  C_26
REMARK    5  A    between atoms: C_29  and  O_32
REMARK    6  A    between atoms: O_32  and  C_33
REMARK                            x       y       z     vdW  Elec       q    Type
REMARK                         _______ _______ _______ _____ _____    ______ ____
ROOT
ATOM      1  N   UNL     1      -1.801  -0.619   1.545  0.00  0.00    -0.295 N 
ATOM      2  C   UNL     1      -0.848  -1.070   0.706  0.00  0.00    +0.304 C 
ATOM      3  O   UNL     1      -0.718  -2.264   0.519  0.00  0.00    -0.253 OA
ATOM      4  N   UNL     1      -0.038  -0.197   0.075  0.00  0.00    -0.269 N 
ATOM      5  C   UNL     1      -0.164   1.258   0.276  0.00  0.00    +0.148 C 
ATOM      6  C   UNL     1       1.177   1.955   0.351  0.00  0.00    +0.005 A 
ATOM      7  C   UNL     1       1.677   2.530   1.538  0.00  0.00    -0.030 A 
ATOM      8  C   UNL     1       2.877   3.163   1.474  0.00  0.00    -0.005 A 
ATOM      9  S   UNL     1       3.369   2.975  -0.221  0.00  0.00    -0.075 S 
ATOM     10  C   UNL     1       1.959   2.054  -0.757  0.00  0.00    +0.090 A 
ATOM     11  N   UNL     1       1.633   1.512  -1.993  0.00  0.00    -0.312 N 
ATOM     12  C   UNL     1       1.668   2.035  -3.240  0.00  0.00    +0.092 A 
ATOM     13  C   UNL     1       1.146   1.124  -4.092  0.00  0.00    +0.020 A 
ATOM     14  C   UNL     1       0.796  -0.015  -3.334  0.00  0.00    +0.025 A 
ATOM     15  C   UNL     1       1.130   0.233  -2.059  0.00  0.00    +0.049 A 
ATOM     16  C   UNL     1       1.022  -0.654  -0.855  0.00  0.00    +0.155 C 
ATOM     17  C   UNL     1       3.605   3.853   2.582  0.00  0.00    +0.043 C 
ATOM     18  C   UNL     1       2.627   4.054   3.749  0.00  0.00    +0.005 C 
ATOM     19  C   UNL     1       1.890   2.736   4.004  0.00  0.00    +0.005 C 
ATOM     20  C   UNL     1       0.916   2.452   2.858  0.00  0.00    +0.036 C 
ATOM     21  H   UNL     1      -1.919   0.462   1.715  0.00  0.00    +0.151 HD
ENDROOT
BRANCH  16  22
ATOM     22  C   UNL     1       2.343  -0.656  -0.130  0.00  0.00    -0.021 A 
ATOM     23  C   UNL     1       3.525  -0.612  -0.847  0.00  0.00    +0.009 A 
ATOM     24  C   UNL     1       4.737  -0.608  -0.184  0.00  0.00    +0.046 A 
ATOM     25  C   UNL     1       4.768  -0.660   1.202  0.00  0.00    +0.120 A 
ATOM     26  C   UNL     1       3.582  -0.710   1.919  0.00  0.00    +0.046 A 
ATOM     27  C   UNL     1       2.372  -0.707   1.252  0.00  0.00    +0.009 A 
BRANCH  25  28
ATOM     28  O   UNL     1       5.960  -0.663   1.856  0.00  0.00    -0.495 OA
ATOM     29  C   UNL     1       7.141  -0.610   1.053  0.00  0.00    +0.277 C 
ENDBRANCH  25  28
ENDBRANCH  16  22
BRANCH   1  30
ATOM     30  C   UNL     1      -2.682  -1.567   2.232  0.00  0.00    +0.141 C 
BRANCH  30  35
ATOM     31  C   UNL     1      -6.400   1.326   5.577  0.00  0.00    +0.044 C 
ATOM     32  C   UNL     1      -5.430   0.572   4.705  0.00  0.00    -0.050 A 
ATOM     33  C   UNL     1      -5.759   0.285   3.393  0.00  0.00    +0.003 A 
ATOM     34  C   UNL     1      -4.870  -0.407   2.593  0.00  0.00    +0.005 A 
ATOM     35  C   UNL     1      -3.651  -0.813   3.104  0.00  0.00    -0.030 A 
ATOM     36  C   UNL     1      -3.324  -0.530   4.417  0.00  0.00    +0.005 A 
ATOM     37  C   UNL     1      -4.212   0.166   5.216  0.00  0.00    +0.003 A 
ENDBRANCH  30  35
ENDBRANCH   1  30
TORSDOF 4
