REMARK  Name = ZINC06290170
REMARK  6 active torsions:
REMARK  status: ('A' for Active; 'I' for Inactive)
REMARK    1  A    between atoms: C_1  and  C_2
REMARK    2  A    between atoms: C_6  and  C_14
REMARK    3  A    between atoms: C_12  and  C_13
REMARK    4  A    between atoms: C_14  and  O_15
REMARK    5  A    between atoms: O_15  and  C_16
REMARK    6  A    between atoms: C_19  and  C_22
REMARK                            x       y       z     vdW  Elec       q    Type
REMARK                         _______ _______ _______ _____ _____    ______ ____
ROOT
ATOM      1  C   UNL     1       6.821  -7.738  -0.105  0.00  0.00    +0.044 C 
ATOM      2  C   UNL     1       5.639  -6.803  -0.088  0.00  0.00    -0.044 A 
ATOM      3  C   UNL     1       5.848  -5.432  -0.083  0.00  0.00    +0.004 A 
ATOM      4  C   UNL     1       4.788  -4.569  -0.068  0.00  0.00    +0.012 A 
ATOM      5  C   UNL     1       3.484  -5.072  -0.058  0.00  0.00    +0.024 A 
ATOM      6  C   UNL     1       2.326  -4.173  -0.043  0.00  0.00    +0.007 A 
ATOM      7  C   UNL     1       1.087  -4.724  -0.028  0.00  0.00    +0.099 A 
ATOM      8  C   UNL     1       0.944  -6.129  -0.038  0.00  0.00    +0.338 A 
ATOM      9  O   UNL     1      -0.174  -6.612  -0.029  0.00  0.00    -0.245 OA
ATOM     10  O   UNL     1       2.008  -6.946  -0.053  0.00  0.00    -0.422 OA
ATOM     11  C   UNL     1       3.268  -6.461  -0.063  0.00  0.00    +0.143 A 
ATOM     12  C   UNL     1       4.360  -7.320  -0.078  0.00  0.00    -0.005 A 
ATOM     13  C   UNL     1       4.148  -8.812  -0.083  0.00  0.00    +0.048 C 
ENDROOT
BRANCH   6  14
ATOM     14  C   UNL     1       2.508  -2.677  -0.036  0.00  0.00    +0.265 C 
BRANCH  14  15
ATOM     15  O   UNL     1       1.228  -2.042  -0.021  0.00  0.00    -0.487 OA
BRANCH  15  16
ATOM     16  C   UNL     1       1.214  -0.684  -0.013  0.00  0.00    +0.121 A 
ATOM     17  C   UNL     1       0.002  -0.004   0.002  0.00  0.00    +0.046 A 
ATOM     18  C   UNL     1      -0.017   1.373   0.010  0.00  0.00    +0.016 A 
ATOM     19  C   UNL     1       1.185   2.086   0.002  0.00  0.00    +0.037 A 
ATOM     20  C   UNL     1       2.401   1.398  -0.013  0.00  0.00    +0.016 A 
ATOM     21  C   UNL     1       2.412   0.021  -0.021  0.00  0.00    +0.046 A 
BRANCH  19  22
ATOM     22  C   UNL     1       1.169   3.562   0.009  0.00  0.00    +0.242 C 
ATOM     23  O   UNL     1       0.110   4.159   0.022  0.00  0.00    -0.270 OA
ATOM     24  N   UNL     1       2.330   4.248   0.002  0.00  0.00    -0.325 N 
ATOM     25  H   UNL     1       3.175   3.772  -0.008  0.00  0.00    +0.145 HD
ATOM     26  H   UNL     1       2.319   5.218   0.007  0.00  0.00    +0.145 HD
ENDBRANCH  19  22
ENDBRANCH  15  16
ENDBRANCH  14  15
ENDBRANCH   6  14
TORSDOF 4
