REMARK  Name = ZINC58848631
REMARK  11 active torsions:
REMARK  status: ('A' for Active; 'I' for Inactive)
REMARK    1  A    between atoms: C_1  and  C_2
REMARK    2  A    between atoms: C_2  and  O_3
REMARK    3  A    between atoms: O_3  and  C_4
REMARK    4  A    between atoms: C_7  and  N_10
REMARK    5  A    between atoms: N_10  and  S_11
REMARK    6  A    between atoms: S_11  and  C_14
REMARK    7  A    between atoms: C_27  and  C_30
REMARK    8  A    between atoms: C_33  and  O_38
REMARK    9  A    between atoms: C_34  and  O_36
REMARK   10  A    between atoms: O_36  and  C_37
REMARK   11  A    between atoms: O_38  and  C_39
REMARK                            x       y       z     vdW  Elec       q    Type
REMARK                         _______ _______ _______ _____ _____    ______ ____
ROOT
ATOM      1  C   UNL     1       2.824  -5.951   3.926  0.00  0.00    +0.109 A 
ATOM      2  C   UNL     1       3.349  -4.691   4.149  0.00  0.00    +0.030 A 
ATOM      3  C   UNL     1       3.532  -4.244   5.442  0.00  0.00    +0.025 A 
ATOM      4  C   UNL     1       3.186  -5.056   6.517  0.00  0.00    +0.031 A 
ATOM      5  C   UNL     1       2.647  -6.314   6.296  0.00  0.00    -0.018 A 
ATOM      6  C   UNL     1       2.471  -6.754   4.992  0.00  0.00    +0.034 A 
ATOM      7  C   UNL     1       2.227  -7.197   7.422  0.00  0.00    +0.049 C 
ATOM      8  C   UNL     1       3.212  -8.311   7.667  0.00  0.00    -0.023 C 
ATOM      9  C   UNL     1       3.302  -8.562   8.950  0.00  0.00    -0.030 C 
ATOM     10  C   UNL     1       2.395  -7.647   9.744  0.00  0.00    +0.033 C 
ATOM     11  C   UNL     1       2.093  -6.487   8.767  0.00  0.00    +0.029 C 
ATOM     12  C   UNL     1       3.125  -5.401   8.990  0.00  0.00    +0.105 C 
ATOM     13  N   UNL     1       3.393  -4.600   7.814  0.00  0.00    -0.336 N 
ATOM     14  H   UNL     1       3.756  -3.708   7.936  0.00  0.00    +0.147 HD
ENDROOT
BRANCH  12  15
ATOM     15  C   UNL     1       4.402  -6.045   9.466  0.00  0.00    -0.023 A 
ATOM     16  C   UNL     1       5.259  -6.634   8.555  0.00  0.00    +0.009 A 
ATOM     17  C   UNL     1       6.431  -7.226   8.987  0.00  0.00    +0.050 A 
ATOM     18  C   UNL     1       6.750  -7.228  10.335  0.00  0.00    +0.162 A 
ATOM     19  C   UNL     1       5.888  -6.634  11.252  0.00  0.00    +0.162 A 
ATOM     20  C   UNL     1       4.717  -6.039  10.812  0.00  0.00    +0.055 A 
BRANCH  19  21
ATOM     21  O   UNL     1       6.197  -6.634  12.577  0.00  0.00    -0.491 OA
ATOM     22  C   UNL     1       5.265  -6.006  13.460  0.00  0.00    +0.277 C 
ENDBRANCH  19  21
BRANCH  18  23
ATOM     23  O   UNL     1       7.903  -7.810  10.762  0.00  0.00    -0.491 OA
ATOM     24  C   UNL     1       8.739  -8.400   9.765  0.00  0.00    +0.277 C 
ENDBRANCH  18  23
ENDBRANCH  12  15
BRANCH   1  25
ATOM     25  S   UNL     1       2.598  -6.529   2.277  0.00  0.00    +0.072 S 
ATOM     26  O   UNL     1       2.472  -7.943   2.356  0.00  0.00    -0.150 OA
ATOM     27  O   UNL     1       3.593  -5.896   1.485  0.00  0.00    -0.150 OA
BRANCH  25  28
ATOM     28  N   UNL     1       1.137  -5.953   1.752  0.00  0.00    -0.216 N 
ATOM     29  H   UNL     1       1.097  -5.356   0.989  0.00  0.00    +0.174 HD
BRANCH  28  33
ATOM     30  C   UNL     1      -2.370  -7.066   3.711  0.00  0.00    +0.121 A 
ATOM     31  C   UNL     1      -2.151  -5.736   3.385  0.00  0.00    +0.047 A 
ATOM     32  C   UNL     1      -0.989  -5.366   2.736  0.00  0.00    +0.028 A 
ATOM     33  C   UNL     1      -0.040  -6.326   2.410  0.00  0.00    +0.048 A 
ATOM     34  C   UNL     1      -0.261  -7.658   2.737  0.00  0.00    +0.028 A 
ATOM     35  C   UNL     1      -1.420  -8.025   3.391  0.00  0.00    +0.047 A 
BRANCH  30  36
ATOM     36  O   UNL     1      -3.514  -7.429   4.350  0.00  0.00    -0.492 OA
BRANCH  36  38
ATOM     37  C   UNL     1      -5.663  -6.985   5.362  0.00  0.00    +0.048 C 
ATOM     38  C   UNL     1      -4.448  -6.389   4.649  0.00  0.00    +0.225 C 
ENDBRANCH  36  38
ENDBRANCH  30  36
ENDBRANCH  28  33
ENDBRANCH  25  28
ENDBRANCH   1  25
TORSDOF 8
