REMARK  Name = ZINC45914670
REMARK  10 active torsions:
REMARK  status: ('A' for Active; 'I' for Inactive)
REMARK    1  A    between atoms: C_1  and  C_2
REMARK    2  A    between atoms: C_3  and  C_15
REMARK    3  A    between atoms: C_4  and  S_13
REMARK    4  A    between atoms: C_6  and  C_8
REMARK    5  A    between atoms: S_13  and  C_14
REMARK    6  A    between atoms: C_15  and  O_17
REMARK    7  A    between atoms: O_17  and  C_18
REMARK    8  A    between atoms: C_18  and  C_19
REMARK    9  A    between atoms: N_21  and  C_22
REMARK   10  A    between atoms: C_27  and  N_28
REMARK                            x       y       z     vdW  Elec       q    Type
REMARK                         _______ _______ _______ _____ _____    ______ ____
ROOT
ATOM      1  C   UNL     1       0.003   0.056  -2.486  0.00  0.00    +0.344 C 
ATOM      2  O   UNL     1       1.047   0.380  -3.019  0.00  0.00    -0.245 OA
ENDROOT
BRANCH   1   5
ATOM      3  C   UNL     1      -0.035   1.553   0.020  0.00  0.00    +0.066 C 
ATOM      4  C   UNL     1       0.006   0.046   0.011  0.00  0.00    +0.057 A 
ATOM      5  C   UNL     1       0.024  -0.656  -1.200  0.00  0.00    +0.112 A 
ATOM      6  C   UNL     1       0.063  -2.068  -1.153  0.00  0.00    +0.115 A 
ATOM      7  N   UNL     1       0.081  -2.669   0.030  0.00  0.00    -0.220 NA
ATOM      8  C   UNL     1       0.062  -1.959   1.153  0.00  0.00    +0.168 A 
ATOM      9  N   UNL     1       0.031  -0.628   1.145  0.00  0.00    -0.231 NA
BRANCH   8  10
ATOM     10  C   UNL     1       0.082  -2.665   2.445  0.00  0.00    +0.056 A 
ATOM     11  C   UNL     1       0.125  -4.025   2.695  0.00  0.00    +0.019 A 
ATOM     12  C   UNL     1       0.134  -4.389   4.023  0.00  0.00    +0.008 A 
ATOM     13  C   UNL     1       0.102  -3.423   4.970  0.00  0.00    +0.046 A 
ATOM     14  S   UNL     1       0.066  -1.989   4.095  0.00  0.00    -0.094 S 
ENDBRANCH   8  10
BRANCH   6  15
ATOM     15  S   UNL     1       0.087  -3.015  -2.640  0.00  0.00    -0.108 S 
ATOM     16  C   UNL     1       0.135  -4.734  -2.064  0.00  0.00    +0.091 C 
ENDBRANCH   6  15
ENDBRANCH   1   5
BRANCH   1  17
ATOM     17  O   UNL     1      -1.174   0.350  -3.074  0.00  0.00    -0.452 OA
BRANCH  17  18
ATOM     18  C   UNL     1      -1.119   1.044  -4.322  0.00  0.00    +0.328 C 
BRANCH  18  19
ATOM     19  C   UNL     1      -2.520   1.284  -4.825  0.00  0.00    +0.255 C 
ATOM     20  O   UNL     1      -3.470   0.899  -4.178  0.00  0.00    -0.272 OA
ATOM     21  N   UNL     1      -2.715   1.927  -5.993  0.00  0.00    -0.281 N 
ATOM     22  H   UNL     1      -1.959   2.292  -6.479  0.00  0.00    +0.155 HD
BRANCH  21  23
ATOM     23  C   UNL     1      -4.010   2.067  -6.506  0.00  0.00    +0.064 A 
ATOM     24  C   UNL     1      -5.083   2.254  -5.644  0.00  0.00    +0.025 A 
ATOM     25  C   UNL     1      -6.359   2.393  -6.154  0.00  0.00    +0.002 A 
ATOM     26  C   UNL     1      -6.569   2.346  -7.520  0.00  0.00    +0.002 A 
ATOM     27  C   UNL     1      -5.503   2.160  -8.380  0.00  0.00    +0.034 A 
ATOM     28  C   UNL     1      -4.223   2.027  -7.878  0.00  0.00    +0.147 A 
BRANCH  28  29
ATOM     29  N   UNL     1      -3.081   1.835  -8.800  0.00  0.00    +0.058 N 
ATOM     30  O   UNL     1      -3.252   1.896  -9.995  0.00  0.00    -0.126 OA
ATOM     31  O   UNL     1      -1.977   1.616  -8.357  0.00  0.00    -0.126 OA
ENDBRANCH  28  29
ENDBRANCH  21  23
ENDBRANCH  18  19
ENDBRANCH  17  18
ENDBRANCH   1  17
TORSDOF 8
