REMARK  Name = ZINC36052839
REMARK  13 active torsions:
REMARK  status: ('A' for Active; 'I' for Inactive)
REMARK    1  A    between atoms: C_1  and  C_2
REMARK    2  A    between atoms: C_2  and  C_3
REMARK    3  A    between atoms: C_4  and  C_35
REMARK    4  A    between atoms: C_5  and  C_28
REMARK    5  A    between atoms: C_8  and  C_13
REMARK    6  A    between atoms: C_14  and  N_16
REMARK    7  A    between atoms: C_20  and  C_23
REMARK    8  A    between atoms: C_23  and  O_25
REMARK    9  A    between atoms: O_25  and  C_26
REMARK   10  A    between atoms: C_26  and  C_27
REMARK   11  A    between atoms: C_32  and  C_34
REMARK   12  A    between atoms: C_35  and  O_37
REMARK   13  A    between atoms: O_37  and  C_38
REMARK                            x       y       z     vdW  Elec       q    Type
REMARK                         _______ _______ _______ _____ _____    ______ ____
ROOT
ATOM      1  C   UNL     1       1.505  -1.215  -0.866  0.00  0.00    +0.056 C 
ATOM      2  C   UNL     1       2.845  -1.269  -1.196  0.00  0.00    +0.083 C 
ATOM      3  C   UNL     1       3.213  -1.223  -2.662  0.00  0.00    +0.150 C 
ATOM      4  N   UNL     1       2.095  -1.123  -3.638  0.00  0.00    -0.267 N 
ATOM      5  C   UNL     1       2.195  -1.068  -5.014  0.00  0.00    +0.048 C 
ATOM      6  C   UNL     1       1.048  -0.979  -5.722  0.00  0.00    +0.072 C 
ATOM      7  S   UNL     1      -0.183  -0.973  -4.433  0.00  0.00    -0.060 S 
ATOM      8  C   UNL     1       0.837  -1.082  -3.105  0.00  0.00    +0.166 C 
ATOM      9  N   UNL     1       0.584  -1.131  -1.813  0.00  0.00    -0.229 NA
ENDROOT
BRANCH   3  10
ATOM     10  C   UNL     1       4.121  -0.040  -2.876  0.00  0.00    -0.022 A 
ATOM     11  C   UNL     1       3.611   1.244  -2.815  0.00  0.00    +0.006 A 
ATOM     12  C   UNL     1       4.444   2.329  -3.011  0.00  0.00    +0.001 A 
ATOM     13  C   UNL     1       5.788   2.131  -3.268  0.00  0.00    +0.003 A 
ATOM     14  C   UNL     1       6.298   0.848  -3.329  0.00  0.00    -0.050 A 
ATOM     15  C   UNL     1       5.466  -0.237  -3.128  0.00  0.00    +0.009 A 
ATOM     16  C   UNL     1       7.763   0.633  -3.610  0.00  0.00    +0.044 C 
ENDBRANCH   3  10
BRANCH   5  17
ATOM     17  C   UNL     1       3.502  -1.105  -5.684  0.00  0.00    +0.091 C 
ATOM     18  C   UNL     1       3.569  -1.231  -7.023  0.00  0.00    +0.241 C 
ATOM     19  O   UNL     1       2.437  -1.183  -7.766  0.00  0.00    -0.271 OA
BRANCH  18  20
ATOM     20  N   UNL     1       4.795  -1.409  -7.642  0.00  0.00    -0.297 N 
ATOM     21  C   UNL     1       5.899  -2.075  -6.937  0.00  0.00    +0.108 C 
ATOM     22  C   UNL     1       6.414  -3.227  -7.805  0.00  0.00    +0.020 C 
ATOM     23  C   UNL     1       6.785  -2.692  -9.190  0.00  0.00    +0.018 C 
ATOM     24  C   UNL     1       5.542  -2.100  -9.859  0.00  0.00    +0.115 C 
ATOM     25  C   UNL     1       5.015  -0.941  -9.017  0.00  0.00    +0.122 C 
BRANCH  24  26
ATOM     26  C   UNL     1       5.901  -1.603 -11.236  0.00  0.00    +0.312 C 
ATOM     27  O   UNL     1       7.040  -1.687 -11.631  0.00  0.00    -0.250 OA
BRANCH  26  28
ATOM     28  O   UNL     1       4.955  -1.067 -12.023  0.00  0.00    -0.465 OA
BRANCH  28  29
ATOM     29  C   UNL     1       5.366  -0.616 -13.316  0.00  0.00    +0.229 C 
ATOM     30  C   UNL     1       4.161  -0.040 -14.062  0.00  0.00    +0.048 C 
ENDBRANCH  28  29
ENDBRANCH  26  28
ENDBRANCH  24  26
ENDBRANCH  18  20
ENDBRANCH   5  17
BRANCH   1  32
ATOM     31  C   UNL     1       1.136   0.155   1.168  0.00  0.00    +0.010 C 
ATOM     32  C   UNL     1       1.088  -1.258   0.581  0.00  0.00    +0.053 C 
ENDBRANCH   1  32
BRANCH   2  33
ATOM     33  C   UNL     1       3.831  -1.362  -0.206  0.00  0.00    +0.339 C 
ATOM     34  O   UNL     1       3.522  -1.282   0.971  0.00  0.00    -0.245 OA
BRANCH  33  35
ATOM     35  O   UNL     1       5.124  -1.541  -0.554  0.00  0.00    -0.465 OA
ATOM     36  C   UNL     1       6.076  -1.627   0.508  0.00  0.00    +0.280 C 
ENDBRANCH  33  35
ENDBRANCH   2  33
TORSDOF 9
