REMARK  Name = ZINC35646217
REMARK  12 active torsions:
REMARK  status: ('A' for Active; 'I' for Inactive)
REMARK    1  A    between atoms: C_1  and  C_2
REMARK    2  A    between atoms: C_2  and  O_3
REMARK    3  A    between atoms: O_3  and  C_4
REMARK    4  A    between atoms: C_4  and  C_6
REMARK    5  A    between atoms: C_7  and  C_23
REMARK    6  A    between atoms: N_8  and  C_22
REMARK    7  A    between atoms: C_12  and  C_14
REMARK    8  A    between atoms: C_23  and  N_24
REMARK    9  A    between atoms: C_28  and  C_31
REMARK   10  A    between atoms: C_32  and  C_34
REMARK   11  A    between atoms: C_34  and  O_35
REMARK   12  A    between atoms: O_35  and  C_36
REMARK                            x       y       z     vdW  Elec       q    Type
REMARK                         _______ _______ _______ _____ _____    ______ ____
ROOT
ATOM      1  C   UNL     1      -3.127  -2.430  -0.161  0.00  0.00    +0.080 C 
ATOM      2  C   UNL     1      -3.567  -3.707  -0.179  0.00  0.00    +0.041 C 
ATOM      3  N   UNL     1      -4.896  -3.996  -0.066  0.00  0.00    -0.260 N 
ATOM      4  C   UNL     1      -5.850  -3.066   0.068  0.00  0.00    +0.307 C 
ATOM      5  O   UNL     1      -7.009  -3.421   0.162  0.00  0.00    -0.252 OA
ATOM      6  N   UNL     1      -5.567  -1.748   0.103  0.00  0.00    -0.288 N 
ATOM      7  C   UNL     1      -4.159  -1.331  -0.005  0.00  0.00    +0.145 C 
ATOM      8  C   UNL     1      -5.303  -5.403  -0.092  0.00  0.00    +0.139 C 
ATOM      9  H   UNL     1      -6.274  -1.091   0.200  0.00  0.00    +0.151 HD
ENDROOT
BRANCH   7  10
ATOM     10  C   UNL     1      -4.042  -0.412  -1.194  0.00  0.00    -0.004 A 
ATOM     11  C   UNL     1      -4.814  -0.635  -2.319  0.00  0.00    +0.008 A 
ATOM     12  C   UNL     1      -4.707   0.207  -3.409  0.00  0.00    +0.020 A 
ATOM     13  C   UNL     1      -3.827   1.274  -3.376  0.00  0.00    +0.042 A 
ATOM     14  C   UNL     1      -3.054   1.498  -2.251  0.00  0.00    +0.040 A 
ATOM     15  C   UNL     1      -3.165   0.657  -1.158  0.00  0.00    +0.048 A 
ATOM     16 CL   UNL     1      -2.200   0.941   0.257  0.00  0.00    -0.083 Cl
ATOM     17 CL   UNL     1      -3.692   2.331  -4.747  0.00  0.00    -0.083 Cl
ENDBRANCH   7  10
BRANCH   1  18
ATOM     18  C   UNL     1      -1.750  -2.129  -0.277  0.00  0.00    +0.339 C 
ATOM     19  O   UNL     1      -1.107  -1.827   0.711  0.00  0.00    -0.245 OA
BRANCH  18  20
ATOM     20  O   UNL     1      -1.149  -2.177  -1.484  0.00  0.00    -0.462 OA
BRANCH  20  22
ATOM     21  C   UNL     1       0.746  -1.939  -2.966  0.00  0.00    +0.048 C 
ATOM     22  C   UNL     1       0.265  -1.971  -1.514  0.00  0.00    +0.229 C 
ENDBRANCH  20  22
ENDBRANCH  18  20
ENDBRANCH   1  18
BRANCH   2  23
ATOM     23  C   UNL     1      -2.573  -4.831  -0.326  0.00  0.00    +0.136 C 
BRANCH  23  24
ATOM     24  N   UNL     1      -2.578  -5.651   0.892  0.00  0.00    -0.294 NA
ATOM     25  C   UNL     1      -2.083  -4.886   2.044  0.00  0.00    +0.104 C 
ATOM     26  C   UNL     1      -2.272  -5.712   3.321  0.00  0.00    +0.123 C 
ATOM     27  N   UNL     1      -1.638  -7.025   3.127  0.00  0.00    -0.294 N 
ATOM     28  C   UNL     1      -1.983  -7.792   1.921  0.00  0.00    +0.087 C 
ATOM     29  C   UNL     1      -1.804  -6.885   0.699  0.00  0.00    +0.107 C 
ATOM     30  C   UNL     1      -1.059  -9.007   1.804  0.00  0.00    +0.029 C 
ATOM     31  C   UNL     1      -0.765  -7.511   4.031  0.00  0.00    +0.242 C 
ATOM     32  O   UNL     1      -0.187  -8.556   3.815  0.00  0.00    -0.273 OA
BRANCH  31  33
ATOM     33  C   UNL     1      -0.507  -6.758   5.311  0.00  0.00    +0.255 C 
BRANCH  33  34
ATOM     34  O   UNL     1       0.449  -7.471   6.098  0.00  0.00    -0.374 OA
ATOM     35  C   UNL     1       0.766  -6.839   7.340  0.00  0.00    +0.194 C 
ENDBRANCH  33  34
ENDBRANCH  31  33
ENDBRANCH  23  24
ENDBRANCH   2  23
TORSDOF 8
