REMARK  Name = ZINC08956517
REMARK  11 active torsions:
REMARK  status: ('A' for Active; 'I' for Inactive)
REMARK    1  A    between atoms: C_1  and  C_2
REMARK    2  A    between atoms: C_2  and  N_3
REMARK    3  A    between atoms: C_5  and  O_33
REMARK    4  A    between atoms: C_8  and  C_32
REMARK    5  A    between atoms: N_12  and  C_13
REMARK    6  A    between atoms: C_13  and  C_15
REMARK    7  A    between atoms: C_20  and  N_21
REMARK    8  A    between atoms: N_21  and  S_22
REMARK    9  A    between atoms: S_22  and  C_25
REMARK   10  A    between atoms: C_28  and  C_31
REMARK   11  A    between atoms: O_33  and  C_34
REMARK                            x       y       z     vdW  Elec       q    Type
REMARK                         _______ _______ _______ _____ _____    ______ ____
ROOT
ATOM      1  C   UNL     1      -0.563   0.537   0.322  0.00  0.00    +0.061 A 
ATOM      2  C   UNL     1       0.634  -0.149   0.110  0.00  0.00    +0.015 A 
ATOM      3  C   UNL     1       0.623  -1.517  -0.055  0.00  0.00    +0.001 A 
ATOM      4  C   UNL     1      -0.573  -2.216  -0.022  0.00  0.00    +0.002 A 
ATOM      5  C   UNL     1      -1.765  -1.551   0.181  0.00  0.00    +0.025 A 
ATOM      6  C   UNL     1      -1.772  -0.173   0.355  0.00  0.00    +0.060 A 
ENDROOT
BRANCH   1   7
ATOM      7  C   UNL     1      -0.557   2.004   0.505  0.00  0.00    +0.271 C 
ATOM      8  O   UNL     1      -1.606   2.600   0.679  0.00  0.00    -0.268 OA
BRANCH   7  18
ATOM      9  N   UNL     1       1.664   4.850   0.643  0.00  0.00    -0.318 N 
ATOM     10  C   UNL     1       1.465   6.208   0.827  0.00  0.00    +0.100 A 
ATOM     11  C   UNL     1       2.442   7.224   0.855  0.00  0.00    +0.145 A 
ATOM     12  C   UNL     1       2.087   8.541   1.054  0.00  0.00    +0.048 A 
ATOM     13  C   UNL     1       0.763   8.907   1.233  0.00  0.00    +0.008 A 
ATOM     14  C   UNL     1      -0.216   7.930   1.210  0.00  0.00    -0.034 A 
ATOM     15  C   UNL     1       0.137   6.615   1.011  0.00  0.00    +0.045 A 
ATOM     16  S   UNL     1      -0.776   5.094   0.913  0.00  0.00    -0.052 S 
ATOM     17  C   UNL     1       0.604   3.995   0.637  0.00  0.00    +0.167 A 
ATOM     18  N   UNL     1       0.599   2.677   0.473  0.00  0.00    -0.152 NA
ATOM     19  C   UNL     1      -1.663   8.304   1.403  0.00  0.00    +0.045 C 
BRANCH   9  21
ATOM     20  C   UNL     1       3.141   2.958   1.112  0.00  0.00    +0.027 C 
ATOM     21  C   UNL     1       3.021   4.332   0.450  0.00  0.00    +0.121 C 
ENDBRANCH   9  21
BRANCH  11  22
ATOM     22  O   UNL     1       3.752   6.901   0.682  0.00  0.00    -0.493 OA
ATOM     23  C   UNL     1       4.695   7.974   0.720  0.00  0.00    +0.277 C 
ENDBRANCH  11  22
ENDBRANCH   7  18
ENDBRANCH   1   7
BRANCH   6  24
ATOM     24  N   UNL     1      -2.971   0.500   0.559  0.00  0.00    -0.216 N 
ATOM     25  H   UNL     1      -3.100   1.386   0.186  0.00  0.00    +0.174 HD
BRANCH  24  26
ATOM     26  S   UNL     1      -4.180  -0.212   1.439  0.00  0.00    +0.072 S 
ATOM     27  O   UNL     1      -5.213   0.755   1.567  0.00  0.00    -0.150 OA
ATOM     28  O   UNL     1      -4.402  -1.492   0.863  0.00  0.00    -0.150 OA
BRANCH  26  29
ATOM     29  C   UNL     1      -3.549  -0.492   3.060  0.00  0.00    +0.109 A 
ATOM     30  C   UNL     1      -2.916  -1.684   3.359  0.00  0.00    +0.029 A 
ATOM     31  C   UNL     1      -2.416  -1.902   4.629  0.00  0.00    +0.005 A 
ATOM     32  C   UNL     1      -2.558  -0.932   5.604  0.00  0.00    -0.050 A 
ATOM     33  C   UNL     1      -3.196   0.259   5.306  0.00  0.00    +0.005 A 
ATOM     34  C   UNL     1      -3.691   0.478   4.034  0.00  0.00    +0.029 A 
ATOM     35  C   UNL     1      -2.019  -1.171   6.990  0.00  0.00    +0.044 C 
ENDBRANCH  26  29
ENDBRANCH  24  26
ENDBRANCH   6  24
TORSDOF 7
