REMARK  Name = ZINC40043982
REMARK  14 active torsions:
REMARK  status: ('A' for Active; 'I' for Inactive)
REMARK    1  A    between atoms: C_1  and  C_2
REMARK    2  A    between atoms: C_2  and  C_3
REMARK    3  A    between atoms: N_16  and  C_33
REMARK    4  A    between atoms: C_17  and  C_19
REMARK    5  A    between atoms: C_22  and  O_27
REMARK    6  A    between atoms: C_23  and  O_25
REMARK    7  A    between atoms: O_25  and  C_26
REMARK    8  A    between atoms: O_27  and  C_28
REMARK    9  A    between atoms: C_28  and  C_29
REMARK   10  A    between atoms: C_29  and  C_30
REMARK   11  A    between atoms: C_30  and  C_31
REMARK   12  A    between atoms: C_30  and  C_32
REMARK   13  A    between atoms: C_33  and  C_34
REMARK   14  A    between atoms: C_34  and  C_35
REMARK                            x       y       z     vdW  Elec       q    Type
REMARK                         _______ _______ _______ _____ _____    ______ ____
ROOT
ATOM      1  C   UNL     1       0.731  -0.503   1.223  0.00  0.00    -0.047 A 
ATOM      2  C   UNL     1       2.103  -0.710   1.173  0.00  0.00    +0.007 A 
ATOM      3  C   UNL     1       2.787  -1.168   2.276  0.00  0.00    +0.047 A 
ATOM      4  C   UNL     1       2.104  -1.430   3.464  0.00  0.00    +0.139 A 
ATOM      5  C   UNL     1       0.717  -1.212   3.504  0.00  0.00    +0.065 A 
ATOM      6  C   UNL     1       0.040  -0.746   2.377  0.00  0.00    +0.019 A 
ATOM      7  C   UNL     1      -0.017  -1.473   4.768  0.00  0.00    +0.199 A 
ATOM      8  O   UNL     1      -1.232  -1.474   4.846  0.00  0.00    -0.287 OA
ATOM      9  C   UNL     1       0.862  -1.732   5.914  0.00  0.00    +0.072 A 
ATOM     10  C   UNL     1       2.204  -1.919   5.744  0.00  0.00    +0.199 A 
ATOM     11  O   UNL     1       2.795  -1.887   4.533  0.00  0.00    -0.450 OA
ATOM     12  C   UNL     1       2.811  -2.146   7.067  0.00  0.00    +0.283 C 
ATOM     13  O   UNL     1       3.993  -2.343   7.266  0.00  0.00    -0.267 OA
ATOM     14  N   UNL     1       1.862  -2.104   8.025  0.00  0.00    -0.283 N 
ATOM     15  C   UNL     1       0.568  -1.843   7.374  0.00  0.00    +0.145 C 
ENDROOT
BRANCH  15  16
ATOM     16  C   UNL     1      -0.021  -0.553   7.885  0.00  0.00    -0.019 A 
ATOM     17  C   UNL     1       0.803   0.527   8.142  0.00  0.00    +0.009 A 
ATOM     18  C   UNL     1       0.268   1.712   8.611  0.00  0.00    +0.050 A 
ATOM     19  C   UNL     1      -1.097   1.820   8.824  0.00  0.00    +0.162 A 
ATOM     20  C   UNL     1      -1.926   0.733   8.565  0.00  0.00    +0.162 A 
ATOM     21  C   UNL     1      -1.384  -0.451   8.090  0.00  0.00    +0.055 A 
BRANCH  20  22
ATOM     22  O   UNL     1      -3.266   0.834   8.772  0.00  0.00    -0.491 OA
ATOM     23  C   UNL     1      -4.056  -0.322   8.484  0.00  0.00    +0.277 C 
ENDBRANCH  20  22
BRANCH  19  24
ATOM     24  O   UNL     1      -1.625   2.985   9.286  0.00  0.00    -0.488 OA
BRANCH  24  25
ATOM     25  C   UNL     1      -0.713   4.058   9.531  0.00  0.00    +0.229 C 
BRANCH  25  26
ATOM     26  C   UNL     1      -1.485   5.276  10.042  0.00  0.00    +0.044 C 
BRANCH  26  27
ATOM     27  C   UNL     1      -0.509   6.425  10.304  0.00  0.00    -0.014 C 
ATOM     28  C   UNL     1      -1.292   7.680  10.695  0.00  0.00    +0.007 C 
ATOM     29  C   UNL     1       0.438   6.040  11.442  0.00  0.00    +0.007 C 
ENDBRANCH  26  27
ENDBRANCH  25  26
ENDBRANCH  24  25
ENDBRANCH  19  24
ENDBRANCH  15  16
BRANCH   1  31
ATOM     30  C   UNL     1      -0.019   1.526   0.010  0.00  0.00    +0.009 C 
ATOM     31  C   UNL     1       0.002  -0.004   0.002  0.00  0.00    +0.032 C 
ENDBRANCH   1  31
BRANCH  14  32
ATOM     32  C   UNL     1       2.081  -2.286   9.462  0.00  0.00    +0.114 C 
BRANCH  32  33
ATOM     33  C   UNL     1       2.369  -0.930  10.110  0.00  0.00    +0.054 C 
BRANCH  33  34
ATOM     34  C   UNL     1       2.595  -1.118  11.588  0.00  0.00    -0.046 A 
ATOM     35  C   UNL     1       1.527  -1.056  12.464  0.00  0.00    +0.004 A 
ATOM     36  C   UNL     1       1.734  -1.228  13.820  0.00  0.00    +0.000 A 
ATOM     37  C   UNL     1       3.009  -1.462  14.300  0.00  0.00    +0.000 A 
ATOM     38  C   UNL     1       4.076  -1.526  13.424  0.00  0.00    +0.000 A 
ATOM     39  C   UNL     1       3.869  -1.358  12.068  0.00  0.00    +0.004 A 
ENDBRANCH  33  34
ENDBRANCH  32  33
ENDBRANCH  14  32
TORSDOF 10
