REMARK  Name = ZINC19209083
REMARK  8 active torsions:
REMARK  status: ('A' for Active; 'I' for Inactive)
REMARK    1  A    between atoms: C_1  and  C_2
REMARK    2  A    between atoms: C_5  and  C_8
REMARK    3  A    between atoms: N_16  and  C_19
REMARK    4  A    between atoms: C_22  and  C_25
REMARK    5  A    between atoms: C_26  and  C_28
REMARK    6  A    between atoms: C_26  and  C_29
REMARK    7  A    between atoms: C_29  and  O_31
REMARK    8  A    between atoms: O_31  and  C_32
REMARK                            x       y       z     vdW  Elec       q    Type
REMARK                         _______ _______ _______ _____ _____    ______ ____
ROOT
ATOM      1  C   UNL     1       0.059  -4.275  -0.021  0.00  0.00    +0.097 C 
ATOM      2  C   UNL     1       1.462  -4.798   0.274  0.00  0.00    +0.111 C 
ATOM      3  C   UNL     1       1.045  -6.266   0.666  0.00  0.00    +0.120 C 
ATOM      4  C   UNL     1       2.300  -6.971   0.564  0.00  0.00    +0.232 C 
ATOM      5  O   UNL     1       2.679  -7.905   1.237  0.00  0.00    -0.274 OA
ATOM      6  N   UNL     1       2.970  -6.354  -0.463  0.00  0.00    -0.210 N 
ATOM      7  C   UNL     1       2.403  -5.152  -0.834  0.00  0.00    +0.232 C 
ATOM      8  O   UNL     1       2.612  -4.516  -1.845  0.00  0.00    -0.274 OA
ATOM      9  C   UNL     1      -0.060  -6.066   1.612  0.00  0.00    +0.127 C 
ATOM     10  N   UNL     1      -0.756  -4.822   1.112  0.00  0.00    -0.294 NA
ATOM     11  C   UNL     1      -1.024  -7.254   1.564  0.00  0.00    +0.040 C 
ATOM     12  H   UNL     1      -0.845  -4.144   1.854  0.00  0.00    +0.124 HD
ENDROOT
BRANCH   1  17
ATOM     13  C   UNL     1      -0.018   1.503   0.010  0.00  0.00    +0.044 C 
ATOM     14  C   UNL     1       0.002  -0.004   0.002  0.00  0.00    -0.050 A 
ATOM     15  C   UNL     1       0.006  -0.689  -1.199  0.00  0.00    +0.003 A 
ATOM     16  C   UNL     1       0.025  -2.071  -1.206  0.00  0.00    +0.005 A 
ATOM     17  C   UNL     1       0.040  -2.768  -0.013  0.00  0.00    -0.030 A 
ATOM     18  C   UNL     1       0.037  -2.084   1.188  0.00  0.00    +0.005 A 
ATOM     19  C   UNL     1       0.023  -0.702   1.195  0.00  0.00    +0.003 A 
ENDBRANCH   1  17
BRANCH   6  20
ATOM     20  C   UNL     1       4.122  -6.881  -1.066  0.00  0.00    +0.044 A 
ATOM     21  C   UNL     1       4.640  -8.093  -0.633  0.00  0.00    +0.024 A 
ATOM     22  C   UNL     1       5.774  -8.610  -1.229  0.00  0.00    +0.005 A 
ATOM     23  C   UNL     1       6.393  -7.920  -2.255  0.00  0.00    -0.050 A 
ATOM     24  C   UNL     1       5.878  -6.712  -2.688  0.00  0.00    +0.005 A 
ATOM     25  C   UNL     1       4.741  -6.193  -2.100  0.00  0.00    +0.024 A 
ATOM     26  C   UNL     1       7.630  -8.486  -2.903  0.00  0.00    +0.044 C 
ENDBRANCH   6  20
BRANCH   9  27
ATOM     27  C   UNL     1       0.471  -5.876   3.009  0.00  0.00    +0.328 C 
ATOM     28  O   UNL     1       1.550  -6.329   3.312  0.00  0.00    -0.249 OA
BRANCH  27  29
ATOM     29  O   UNL     1      -0.253  -5.203   3.917  0.00  0.00    -0.467 OA
ATOM     30  C   UNL     1       0.312  -5.060   5.222  0.00  0.00    +0.280 C 
ENDBRANCH  27  29
ENDBRANCH   9  27
TORSDOF 4
