REMARK  Name = ZINC13073583
REMARK  15 active torsions:
REMARK  status: ('A' for Active; 'I' for Inactive)
REMARK    1  A    between atoms: C_1  and  C_2
REMARK    2  A    between atoms: C_2  and  C_3
REMARK    3  A    between atoms: C_3  and  C_4
REMARK    4  A    between atoms: C_4  and  N_5
REMARK    5  A    between atoms: C_6  and  C_8
REMARK    6  A    between atoms: C_8  and  N_9
REMARK    7  A    between atoms: N_9  and  C_10
REMARK    8  A    between atoms: N_9  and  S_24
REMARK    9  A    between atoms: C_11  and  C_23
REMARK   10  A    between atoms: N_12  and  C_22
REMARK   11  A    between atoms: N_13  and  C_16
REMARK   12  A    between atoms: S_24  and  C_27
REMARK   13  A    between atoms: C_28  and  C_35
REMARK   14  A    between atoms: C_30  and  C_34
REMARK   15  A    between atoms: C_32  and  C_33
REMARK                            x       y       z     vdW  Elec       q    Type
REMARK                         _______ _______ _______ _____ _____    ______ ____
ROOT
ATOM      1  N   UNL     1      -2.044   4.706  -0.141  0.00  0.00    -0.187 N 
ENDROOT
BRANCH   1   2
ATOM      2  C   UNL     1      -0.871   3.922  -0.172  0.00  0.00    +0.138 A 
ATOM      3  C   UNL     1       0.391   4.388  -0.278  0.00  0.00    +0.061 A 
ATOM      4  N   UNL     1       1.249   3.315  -0.272  0.00  0.00    -0.282 N 
ATOM      5  N   UNL     1       0.485   2.146  -0.158  0.00  0.00    -0.216 N 
ATOM      6  C   UNL     1      -0.813   2.507  -0.101  0.00  0.00    +0.295 A 
ATOM      7  O   UNL     1      -1.764   1.752  -0.003  0.00  0.00    -0.264 OA
ATOM      8  C   UNL     1       2.709   3.382  -0.369  0.00  0.00    +0.171 C 
ATOM      9  C   UNL     1       0.791   5.837  -0.385  0.00  0.00    +0.067 C 
BRANCH   5  10
ATOM     10  C   UNL     1       0.980   0.839  -0.116  0.00  0.00    +0.067 A 
ATOM     11  C   UNL     1       2.049   0.526   0.714  0.00  0.00    +0.028 A 
ATOM     12  C   UNL     1       2.531  -0.768   0.757  0.00  0.00    +0.002 A 
ATOM     13  C   UNL     1       1.959  -1.748  -0.033  0.00  0.00    +0.000 A 
ATOM     14  C   UNL     1       0.899  -1.437  -0.866  0.00  0.00    +0.002 A 
ATOM     15  C   UNL     1       0.408  -0.147  -0.909  0.00  0.00    +0.028 A 
ENDBRANCH   5  10
ENDBRANCH   1   2
BRANCH   1  16
ATOM     16  S   UNL     1      -3.530   3.974  -0.140  0.00  0.00    +0.076 S 
ATOM     17  O   UNL     1      -4.496   5.014  -0.086  0.00  0.00    -0.150 OA
ATOM     18  O   UNL     1      -3.508   3.008  -1.182  0.00  0.00    -0.150 OA
BRANCH  16  19
ATOM     19  C   UNL     1      -3.668   3.079   1.372  0.00  0.00    +0.115 A 
ATOM     20  C   UNL     1      -4.210   1.808   1.376  0.00  0.00    -0.023 A 
ATOM     21  C   UNL     1      -4.313   1.104   2.562  0.00  0.00    +0.008 A 
ATOM     22  C   UNL     1      -3.884   1.677   3.745  0.00  0.00    -0.050 A 
ATOM     23  C   UNL     1      -3.348   2.950   3.742  0.00  0.00    +0.008 A 
ATOM     24  C   UNL     1      -3.239   3.652   2.555  0.00  0.00    -0.023 A 
ATOM     25  C   UNL     1      -2.654   5.041   2.552  0.00  0.00    +0.046 C 
ATOM     26  C   UNL     1      -4.002   0.912   5.038  0.00  0.00    +0.044 C 
ATOM     27  C   UNL     1      -4.683   1.186   0.088  0.00  0.00    +0.046 C 
ENDBRANCH  16  19
ENDBRANCH   1  16
BRANCH   1  28
ATOM     28  C   UNL     1      -1.948   6.168  -0.112  0.00  0.00    +0.227 C 
BRANCH  28  30
ATOM     29  N   UNL     1      -1.663   8.013  -1.734  0.00  0.00    -0.314 N 
ATOM     30  C   UNL     1      -1.774   6.688  -1.515  0.00  0.00    +0.232 C 
ATOM     31  O   UNL     1      -1.734   5.914  -2.448  0.00  0.00    -0.274 OA
ATOM     32  H   UNL     1      -1.695   8.632  -0.987  0.00  0.00    +0.149 HD
BRANCH  29  33
ATOM     33  C   UNL     1      -1.493   8.520  -3.098  0.00  0.00    +0.104 C 
BRANCH  33  34
ATOM     34  C   UNL     1      -1.393  10.046  -3.067  0.00  0.00    +0.018 C 
BRANCH  34  36
ATOM     35  C   UNL     1      -1.115  12.101  -4.461  0.00  0.00    +0.004 C 
ATOM     36  C   UNL     1      -1.216  10.574  -4.492  0.00  0.00    -0.002 C 
ENDBRANCH  34  36
ENDBRANCH  33  34
ENDBRANCH  29  33
ENDBRANCH  28  30
ENDBRANCH   1  28
TORSDOF 9
