REMARK  Name = ZINC55170802
REMARK  5 active torsions:
REMARK  status: ('A' for Active; 'I' for Inactive)
REMARK    1  A    between atoms: C_1  and  C_2
REMARK    2  A    between atoms: C_5  and  N_8
REMARK    3  A    between atoms: C_11  and  C_14
REMARK    4  A    between atoms: N_25  and  C_26
REMARK    5  A    between atoms: C_27  and  C_29
REMARK                            x       y       z     vdW  Elec       q    Type
REMARK                         _______ _______ _______ _____ _____    ______ ____
ROOT
ATOM      1  N   UNL     1      -0.003  -4.195  -0.034  0.00  0.00    -0.219 N 
ATOM      2  C   UNL     1       0.101  -4.904   1.159  0.00  0.00    +0.172 A 
ATOM      3  N   UNL     1       0.265  -6.198   1.329  0.00  0.00    -0.226 NA
ATOM      4  C   UNL     1       0.346  -6.722   2.538  0.00  0.00    +0.089 A 
ATOM      5  C   UNL     1       0.253  -5.868   3.587  0.00  0.00    +0.075 A 
ATOM      6  S   UNL     1       0.055  -4.313   2.734  0.00  0.00    -0.060 S 
ATOM      7  C   UNL     1      -0.045  -4.856  -1.208  0.00  0.00    +0.223 C 
ATOM      8  O   UNL     1      -0.072  -6.068  -1.222  0.00  0.00    -0.275 OA
ATOM      9  C   UNL     1      -0.058  -4.087  -2.505  0.00  0.00    +0.110 C 
ENDROOT
BRANCH   4  10
ATOM     10  C   UNL     1       0.533  -8.203   2.743  0.00  0.00    +0.211 C 
ATOM     11  N   UNL     1       1.265  -8.431   3.989  0.00  0.00    -0.288 N 
ATOM     12  C   UNL     1       2.613  -8.445   4.013  0.00  0.00    +0.247 C 
ATOM     13  O   UNL     1       3.207  -8.486   5.073  0.00  0.00    -0.270 OA
ATOM     14  C   UNL     1       3.360  -8.410   2.743  0.00  0.00    +0.058 A 
ATOM     15  C   UNL     1       4.741  -8.232   2.712  0.00  0.00    +0.015 A 
ATOM     16  C   UNL     1       5.396  -8.196   1.499  0.00  0.00    +0.001 A 
ATOM     17  C   UNL     1       4.691  -8.335   0.314  0.00  0.00    +0.002 A 
ATOM     18  C   UNL     1       3.321  -8.515   0.329  0.00  0.00    +0.024 A 
ATOM     19  C   UNL     1       2.649  -8.558   1.539  0.00  0.00    +0.043 A 
ATOM     20  N   UNL     1       1.278  -8.760   1.608  0.00  0.00    -0.309 N 
ATOM     21  C   UNL     1       0.587  -9.517   0.561  0.00  0.00    +0.131 C 
ATOM     22  H   UNL     1       0.772  -8.575   4.811  0.00  0.00    +0.151 HD
ENDBRANCH   4  10
BRANCH   1  27
ATOM     23  C   UNL     1      -0.247   1.473   0.043  0.00  0.00    +0.044 C 
ATOM     24  C   UNL     1      -0.182  -0.032   0.022  0.00  0.00    -0.050 A 
ATOM     25  C   UNL     1       0.987  -0.677   0.381  0.00  0.00    +0.005 A 
ATOM     26  C   UNL     1       1.050  -2.057   0.363  0.00  0.00    +0.024 A 
ATOM     27  C   UNL     1      -0.063  -2.796  -0.015  0.00  0.00    +0.043 A 
ATOM     28  C   UNL     1      -1.236  -2.146  -0.373  0.00  0.00    +0.024 A 
ATOM     29  C   UNL     1      -1.294  -0.766  -0.349  0.00  0.00    +0.005 A 
ENDBRANCH   1  27
TORSDOF 2
