REMARK  Name = ZINC09917364
REMARK  12 active torsions:
REMARK  status: ('A' for Active; 'I' for Inactive)
REMARK    1  A    between atoms: C_1  and  C_2
REMARK    2  A    between atoms: C_4  and  C_19
REMARK    3  A    between atoms: C_6  and  S_9
REMARK    4  A    between atoms: C_7  and  C_8
REMARK    5  A    between atoms: S_9  and  N_12
REMARK    6  A    between atoms: C_15  and  C_18
REMARK    7  A    between atoms: N_21  and  C_22
REMARK    8  A    between atoms: C_22  and  C_23
REMARK    9  A    between atoms: C_28  and  C_29
REMARK   10  A    between atoms: C_29  and  N_67
REMARK   11  A    between atoms: C_30  and  N_67
REMARK   12  A    between atoms: C_31  and  N_67
REMARK                            x       y       z     vdW  Elec       q    Type
REMARK                         _______ _______ _______ _____ _____    ______ ____
ROOT
ATOM      1  C   UNL     1       4.972   1.936  -3.601  0.00  0.00    +0.044 C 
ATOM      2  C   UNL     1       3.802   2.801  -3.994  0.00  0.00    -0.045 A 
ATOM      3  C   UNL     1       3.420   2.882  -5.317  0.00  0.00    +0.016 A 
ATOM      4  C   UNL     1       2.337   3.684  -5.679  0.00  0.00    +0.039 A 
ATOM      5  C   UNL     1       1.647   4.400  -4.699  0.00  0.00    +0.041 A 
ATOM      6  C   UNL     1       2.040   4.310  -3.379  0.00  0.00    +0.109 A 
ATOM      7  C   UNL     1       3.118   3.517  -3.028  0.00  0.00    -0.021 A 
ATOM      8  C   UNL     1       3.545   3.428  -1.585  0.00  0.00    +0.046 C 
ENDROOT
BRANCH   4   9
ATOM      9  C   UNL     1       1.921   3.776  -7.095  0.00  0.00    +0.244 C 
ATOM     10  O   UNL     1       0.977   4.474  -7.407  0.00  0.00    -0.270 OA
ATOM     11  N   UNL     1       2.589   3.084  -8.039  0.00  0.00    -0.307 N 
ATOM     12  H   UNL     1       3.342   2.526  -7.790  0.00  0.00    +0.149 HD
BRANCH  11  13
ATOM     13  C   UNL     1       2.177   3.174  -9.442  0.00  0.00    +0.140 C 
BRANCH  13  14
ATOM     14  C   UNL     1       3.079   2.312 -10.287  0.00  0.00    -0.029 A 
ATOM     15  C   UNL     1       4.112   2.888 -11.004  0.00  0.00    +0.005 A 
ATOM     16  C   UNL     1       4.943   2.097 -11.775  0.00  0.00    +0.000 A 
ATOM     17  C   UNL     1       4.734   0.732 -11.838  0.00  0.00    +0.000 A 
ATOM     18  C   UNL     1       3.699   0.157 -11.126  0.00  0.00    +0.002 A 
ATOM     19  C   UNL     1       2.871   0.948 -10.350  0.00  0.00    -0.059 A 
BRANCH  19  20
ATOM     20  C   UNL     1       1.742   0.321  -9.574  0.00  0.00    -0.043 C 
BRANCH  20  23
ATOM     21  C   UNL     1       0.490  -0.235 -11.570  0.00  0.00    -0.096 C 
ATOM     22  C   UNL     1      -0.670   0.126  -9.476  0.00  0.00    -0.096 C 
ATOM     23  N   UNL     1       0.479   0.538 -10.310  0.00  0.00    +0.379 N 
ATOM     24  H   UNL     1       0.389   1.536 -10.532  0.00  0.00    -0.082 HD
ENDBRANCH  20  23
ENDBRANCH  19  20
ENDBRANCH  13  14
ENDBRANCH  11  13
ENDBRANCH   4   9
BRANCH   6  25
ATOM     25  S   UNL     1       1.171   5.212  -2.140  0.00  0.00    +0.061 S 
ATOM     26  O   UNL     1       0.160   5.952  -2.810  0.00  0.00    -0.153 OA
ATOM     27  O   UNL     1       2.155   5.833  -1.325  0.00  0.00    -0.153 OA
BRANCH  25  28
ATOM     28  N   UNL     1       0.393   4.106  -1.184  0.00  0.00    -0.177 NA
ATOM     29  C   UNL     1       1.014   3.619   0.055  0.00  0.00    +0.110 C 
ATOM     30  C   UNL     1       1.041   2.087   0.023  0.00  0.00    +0.020 C 
ATOM     31  C   UNL     1      -0.376   1.561  -0.218  0.00  0.00    -0.012 C 
ATOM     32  C   UNL     1      -0.884   2.063  -1.572  0.00  0.00    +0.020 C 
ATOM     33  C   UNL     1      -0.933   3.594  -1.559  0.00  0.00    +0.110 C 
ATOM     34  C   UNL     1      -0.359   0.031  -0.216  0.00  0.00    +0.007 C 
ENDBRANCH  25  28
ENDBRANCH   6  25
TORSDOF 7
