REMARK  Name = ZINC13215758
REMARK  9 active torsions:
REMARK  status: ('A' for Active; 'I' for Inactive)
REMARK    1  A    between atoms: C_1  and  C_2
REMARK    2  A    between atoms: C_5  and  C_35
REMARK    3  A    between atoms: C_7  and  N_8
REMARK    4  A    between atoms: C_9  and  C_26
REMARK    5  A    between atoms: C_11  and  C_16
REMARK    6  A    between atoms: C_16  and  C_18
REMARK    7  A    between atoms: C_23  and  O_24
REMARK    8  A    between atoms: O_24  and  C_25
REMARK    9  A    between atoms: C_30  and  N_32
REMARK                            x       y       z     vdW  Elec       q    Type
REMARK                         _______ _______ _______ _____ _____    ______ ____
ROOT
ATOM      1  N   UNL     1       0.763   0.353   3.091  0.00  0.00    -0.253 N 
ATOM      2  C   UNL     1      -0.635   0.450   3.529  0.00  0.00    +0.150 C 
ATOM      3  C   UNL     1      -0.592   0.813   4.995  0.00  0.00    +0.077 C 
ATOM      4  C   UNL     1       0.714   0.908   5.336  0.00  0.00    +0.250 C 
ATOM      5  C   UNL     1       1.547   0.617   4.151  0.00  0.00    +0.292 C 
ATOM      6  O   UNL     1       2.763   0.617   4.136  0.00  0.00    -0.266 OA
ATOM      7  O   UNL     1       1.183   1.216   6.567  0.00  0.00    -0.282 OA
ENDROOT
BRANCH   1  14
ATOM      8  C   UNL     1       1.901   2.430   1.520  0.00  0.00    +0.045 C 
ATOM      9  C   UNL     1       1.764   1.023   0.998  0.00  0.00    -0.029 A 
ATOM     10  C   UNL     1       2.204   0.716  -0.276  0.00  0.00    +0.006 A 
ATOM     11  C   UNL     1       2.083  -0.570  -0.762  0.00  0.00    +0.015 A 
ATOM     12  C   UNL     1       1.513  -1.567   0.035  0.00  0.00    +0.065 A 
ATOM     13  C   UNL     1       1.068  -1.256   1.321  0.00  0.00    +0.039 A 
ATOM     14  C   UNL     1       1.201   0.038   1.801  0.00  0.00    +0.041 A 
BRANCH  12  15
ATOM     15  C   UNL     1       1.381  -2.942  -0.482  0.00  0.00    +0.387 C 
ATOM     16  O   UNL     1       1.770  -3.212  -1.609  0.00  0.00    -0.241 OA
ATOM     17  O   UNL     1       0.882  -3.813   0.217  0.00  0.00    -0.241 OA
ENDBRANCH  12  15
ENDBRANCH   1  14
BRANCH   2  18
ATOM     18  C   UNL     1      -1.350   1.523   2.749  0.00  0.00    -0.020 A 
ATOM     19  C   UNL     1      -0.940   2.840   2.849  0.00  0.00    +0.006 A 
ATOM     20  C   UNL     1      -1.595   3.824   2.133  0.00  0.00    +0.003 A 
ATOM     21  C   UNL     1      -2.660   3.492   1.317  0.00  0.00    +0.033 A 
ATOM     22  C   UNL     1      -3.070   2.176   1.216  0.00  0.00    +0.127 A 
ATOM     23  C   UNL     1      -2.411   1.190   1.929  0.00  0.00    +0.038 A 
BRANCH  22  24
ATOM     24  N   UNL     1      -4.211   1.820   0.343  0.00  0.00    +0.056 N 
ATOM     25  O   UNL     1      -4.724   2.664  -0.354  0.00  0.00    -0.126 OA
ATOM     26  O   UNL     1      -4.629   0.686   0.327  0.00  0.00    -0.126 OA
ENDBRANCH  22  24
ENDBRANCH   2  18
BRANCH   3  27
ATOM     27  C   UNL     1      -1.744   1.022   5.878  0.00  0.00    +0.199 C 
ATOM     28  O   UNL     1      -1.980   2.131   6.319  0.00  0.00    -0.287 OA
BRANCH  27  29
ATOM     29  C   UNL     1      -2.618  -0.114   6.232  0.00  0.00    +0.064 A 
ATOM     30  C   UNL     1      -2.390  -1.376   5.677  0.00  0.00    +0.015 A 
ATOM     31  C   UNL     1      -3.209  -2.432   6.012  0.00  0.00    +0.001 A 
ATOM     32  C   UNL     1      -4.259  -2.248   6.898  0.00  0.00    +0.004 A 
ATOM     33  C   UNL     1      -4.495  -1.007   7.454  0.00  0.00    +0.046 A 
ATOM     34  C   UNL     1      -3.678   0.066   7.133  0.00  0.00    +0.131 A 
BRANCH  34  35
ATOM     35  O   UNL     1      -3.905   1.285   7.683  0.00  0.00    -0.494 OA
ATOM     36  C   UNL     1      -5.003   1.392   8.591  0.00  0.00    +0.277 C 
ENDBRANCH  34  35
ENDBRANCH  27  29
ENDBRANCH   3  27
TORSDOF 7
