REMARK  Name = ZINC46762528
REMARK  11 active torsions:
REMARK  status: ('A' for Active; 'I' for Inactive)
REMARK    1  A    between atoms: C_1  and  C_2
REMARK    2  A    between atoms: C_2  and  C_3
REMARK    3  A    between atoms: C_6  and  C_9
REMARK    4  A    between atoms: C_9  and  C_11
REMARK    5  A    between atoms: C_9  and  N_29
REMARK    6  A    between atoms: C_11  and  N_12
REMARK    7  A    between atoms: C_13  and  C_15
REMARK    8  A    between atoms: N_18  and  C_20
REMARK    9  A    between atoms: C_23  and  N_26
REMARK   10  A    between atoms: N_29  and  C_30
REMARK   11  A    between atoms: N_29  and  C_31
REMARK                            x       y       z     vdW  Elec       q    Type
REMARK                         _______ _______ _______ _____ _____    ______ ____
ROOT
ATOM      1  N   UNL     1      -6.027  -0.323   1.480  0.00  0.00    -0.312 N 
ATOM      2  C   UNL     1      -6.769   0.768   1.756  0.00  0.00    +0.247 C 
ATOM      3  O   UNL     1      -7.529   1.214   0.917  0.00  0.00    -0.270 OA
ATOM      4  H   UNL     1      -5.421  -0.678   2.149  0.00  0.00    +0.149 HD
ENDROOT
BRANCH   2   5
ATOM      5  C   UNL     1      -6.658   1.422   3.072  0.00  0.00    +0.074 A 
ATOM      6  C   UNL     1      -5.819   1.026   4.138  0.00  0.00    +0.147 A 
ATOM      7  N   UNL     1      -6.006   1.853   5.130  0.00  0.00    -0.174 NA
ATOM      8  N   UNL     1      -6.960   2.804   4.753  0.00  0.00    -0.239 N 
ATOM      9  C   UNL     1      -7.351   2.540   3.493  0.00  0.00    +0.127 A 
BRANCH   8  10
ATOM     10  C   UNL     1      -7.426   3.858   5.551  0.00  0.00    +0.065 A 
ATOM     11  C   UNL     1      -8.384   4.734   5.058  0.00  0.00    +0.030 A 
ATOM     12  C   UNL     1      -8.841   5.771   5.847  0.00  0.00    +0.035 A 
ATOM     13  C   UNL     1      -8.345   5.939   7.127  0.00  0.00    +0.126 A 
ATOM     14  C   UNL     1      -7.391   5.068   7.621  0.00  0.00    +0.035 A 
ATOM     15  C   UNL     1      -6.934   4.025   6.839  0.00  0.00    +0.030 A 
BRANCH  13  16
ATOM     16  N   UNL     1      -8.836   7.052   7.969  0.00  0.00    +0.056 N 
ATOM     17  O   UNL     1      -9.670   7.814   7.538  0.00  0.00    -0.126 OA
ATOM     18  O   UNL     1      -8.403   7.199   9.088  0.00  0.00    -0.126 OA
ENDBRANCH  13  16
ENDBRANCH   8  10
ENDBRANCH   2   5
BRANCH   1  19
ATOM     19  C   UNL     1      -6.137  -0.972   0.172  0.00  0.00    +0.094 C 
BRANCH  19  20
ATOM     20  C   UNL     1      -5.268  -2.232   0.153  0.00  0.00    -0.021 C 
BRANCH  20  24
ATOM     21  C   UNL     1      -1.160  -1.137   0.570  0.00  0.00    -0.048 A 
ATOM     22  C   UNL     1      -1.867  -1.597   1.665  0.00  0.00    +0.004 A 
ATOM     23  C   UNL     1      -3.197  -1.952   1.530  0.00  0.00    +0.002 A 
ATOM     24  C   UNL     1      -3.819  -1.845   0.301  0.00  0.00    -0.059 A 
ATOM     25  C   UNL     1      -3.112  -1.383  -0.794  0.00  0.00    +0.002 A 
ATOM     26  C   UNL     1      -1.784  -1.025  -0.658  0.00  0.00    +0.004 A 
BRANCH  21  28
ATOM     27  C   UNL     1       0.387   0.730   1.089  0.00  0.00    +0.009 C 
ATOM     28  C   UNL     1       0.289  -0.751   0.717  0.00  0.00    +0.032 C 
ENDBRANCH  21  28
ENDBRANCH  20  24
BRANCH  20  29
ATOM     29  N   UNL     1      -5.459  -2.939  -1.120  0.00  0.00    +0.382 N 
ATOM     30  C   UNL     1      -4.591  -4.124  -1.156  0.00  0.00    -0.096 C 
ATOM     31  C   UNL     1      -6.862  -3.356  -1.243  0.00  0.00    -0.096 C 
ATOM     32  H   UNL     1      -5.223  -2.325  -1.885  0.00  0.00    -0.082 HD
ENDBRANCH  20  29
ENDBRANCH  19  20
ENDBRANCH   1  19
TORSDOF 8
