REMARK  Name = ZINC06077551
REMARK  10 active torsions:
REMARK  status: ('A' for Active; 'I' for Inactive)
REMARK    1  A    between atoms: C_1  and  C_2
REMARK    2  A    between atoms: C_2  and  C_3
REMARK    3  A    between atoms: C_3  and  C_4
REMARK    4  A    between atoms: C_3  and  C_5
REMARK    5  A    between atoms: C_3  and  N_6
REMARK    6  A    between atoms: C_7  and  C_11
REMARK    7  A    between atoms: C_11  and  C_13
REMARK    8  A    between atoms: C_11  and  N_68
REMARK    9  A    between atoms: C_17  and  C_25
REMARK   10  A    between atoms: N_28  and  C_31
REMARK                            x       y       z     vdW  Elec       q    Type
REMARK                         _______ _______ _______ _____ _____    ______ ____
ROOT
ATOM      1  C   UNL     1       1.511   7.824  -0.911  0.00  0.00    +0.039 C 
ENDROOT
BRANCH   1   2
ATOM      2  C   UNL     1       0.601   8.370   0.159  0.00  0.00    +0.011 A 
ATOM      3  C   UNL     1       1.020   9.390   0.948  0.00  0.00    +0.017 A 
ATOM      4  C   UNL     1       0.112   9.897   1.978  0.00  0.00    -0.001 A 
ATOM      5  C   UNL     1       0.489  10.948   2.821  0.00  0.00    +0.013 A 
ATOM      6  C   UNL     1      -0.382  11.399   3.772  0.00  0.00    -0.050 A 
ATOM      7  C   UNL     1      -1.638  10.823   3.910  0.00  0.00    +0.005 A 
ATOM      8  C   UNL     1      -2.030   9.786   3.091  0.00  0.00    +0.026 A 
ATOM      9  C   UNL     1      -1.160   9.311   2.115  0.00  0.00    +0.049 A 
ATOM     10  N   UNL     1      -1.527   8.276   1.281  0.00  0.00    -0.322 N 
ATOM     11  H   UNL     1      -2.430   7.858   1.382  0.00  0.00    +0.169 HD
ATOM     12  C   UNL     1      -0.688   7.821   0.334  0.00  0.00    +0.251 A 
ATOM     13  O   UNL     1      -1.047   6.907  -0.389  0.00  0.00    -0.268 OA
ATOM     14  C   UNL     1       0.024  12.531   4.680  0.00  0.00    +0.044 C 
ENDBRANCH   1   2
BRANCH   1  20
ATOM     15  C   UNL     1       2.452   5.788  -1.824  0.00  0.00    -0.058 C 
ATOM     16  C   UNL     1       2.522   4.270  -1.642  0.00  0.00    +0.086 C 
ATOM     17  N   UNL     1       3.127   3.963  -0.338  0.00  0.00    -0.333 N 
ATOM     18  C   UNL     1       2.340   4.550   0.756  0.00  0.00    +0.086 C 
ATOM     19  C   UNL     1       2.270   6.068   0.574  0.00  0.00    -0.058 C 
ATOM     20  N   UNL     1       1.640   6.362  -0.731  0.00  0.00    +0.391 N 
ATOM     21  H   UNL     1       0.704   5.940  -0.752  0.00  0.00    -0.080 HD
BRANCH  17  22
ATOM     22  C   UNL     1       3.274   2.584  -0.166  0.00  0.00    +0.030 A 
ATOM     23  C   UNL     1       3.829   2.084   1.005  0.00  0.00    +0.026 A 
ATOM     24  C   UNL     1       3.973   0.721   1.173  0.00  0.00    +0.040 A 
ATOM     25  C   UNL     1       3.564  -0.148   0.175  0.00  0.00    +0.124 A 
ATOM     26  C   UNL     1       3.010   0.348  -0.994  0.00  0.00    +0.040 A 
ATOM     27  C   UNL     1       2.865   1.711  -1.166  0.00  0.00    +0.026 A 
ATOM     28  F   UNL     1       3.706  -1.481   0.341  0.00  0.00    -0.205 F 
ENDBRANCH  17  22
ENDBRANCH   1  20
BRANCH   1  30
ATOM     29  N   UNL     1       1.398   8.940  -3.201  0.00  0.00    -0.225 N 
ATOM     30  C   UNL     1       0.914   8.101  -2.267  0.00  0.00    +0.143 A 
ATOM     31  N   UNL     1      -0.173   7.567  -2.767  0.00  0.00    -0.115 NA
ATOM     32  N   UNL     1      -0.353   8.058  -3.944  0.00  0.00    -0.023 NA
ATOM     33  N   UNL     1       0.596   8.886  -4.211  0.00  0.00    -0.043 NA
BRANCH  29  34
ATOM     34  C   UNL     1       2.607   9.759  -3.093  0.00  0.00    +0.061 C 
ATOM     35  C   UNL     1       2.493  10.678  -1.875  0.00  0.00    +0.036 C 
ATOM     36  C   UNL     1       3.827   8.850  -2.933  0.00  0.00    +0.036 C 
BRANCH  34  38
ATOM     37  C   UNL     1       4.028  11.462  -4.245  0.00  0.00    +0.006 C 
ATOM     38  C   UNL     1       2.764  10.606  -4.358  0.00  0.00    +0.026 C 
ENDBRANCH  34  38
ENDBRANCH  29  34
ENDBRANCH   1  30
TORSDOF 6
