REMARK  Name = ZINC06924447
REMARK  8 active torsions:
REMARK  status: ('A' for Active; 'I' for Inactive)
REMARK    1  A    between atoms: C_1  and  C_2
REMARK    2  A    between atoms: C_6  and  N_9
REMARK    3  A    between atoms: C_7  and  C_8
REMARK    4  A    between atoms: N_9  and  C_10
REMARK    5  A    between atoms: N_9  and  S_27
REMARK    6  A    between atoms: C_10  and  C_11
REMARK    7  A    between atoms: N_13  and  N_14
REMARK    8  A    between atoms: S_27  and  C_30
REMARK                            x       y       z     vdW  Elec       q    Type
REMARK                         _______ _______ _______ _____ _____    ______ ____
ROOT
ATOM      1  C   UNL     1       0.180  -0.243  -0.535  0.00  0.00    +0.251 C 
ATOM      2  O   UNL     1      -0.838  -0.864  -0.309  0.00  0.00    -0.272 OA
ATOM      3  N   UNL     1       0.123   1.084  -0.759  0.00  0.00    -0.206 N 
ATOM      4  H   UNL     1       0.936   1.581  -0.940  0.00  0.00    +0.177 HD
ENDROOT
BRANCH   3   5
ATOM      5  N   UNL     1      -1.112   1.746  -0.737  0.00  0.00    -0.189 NA
ATOM      6  C   UNL     1      -1.166   3.007  -0.950  0.00  0.00    +0.037 C 
ATOM      7  C   UNL     1       0.100   3.781  -1.218  0.00  0.00    +0.052 C 
ATOM      8  C   UNL     1       0.859   3.122  -2.377  0.00  0.00    +0.006 C 
ATOM      9  C   UNL     1       0.989   4.114  -3.535  0.00  0.00    +0.000 C 
ATOM     10  C   UNL     1       0.542   3.442  -4.835  0.00  0.00    +0.000 C 
ATOM     11  C   UNL     1      -0.492   4.324  -5.536  0.00  0.00    +0.000 C 
ATOM     12  C   UNL     1      -1.761   3.511  -5.800  0.00  0.00    +0.000 C 
ATOM     13  C   UNL     1      -2.971   4.254  -5.229  0.00  0.00    +0.000 C 
ATOM     14  C   UNL     1      -3.763   3.315  -4.318  0.00  0.00    +0.000 C 
ATOM     15  C   UNL     1      -3.943   3.968  -2.946  0.00  0.00    +0.000 C 
ATOM     16  C   UNL     1      -3.474   3.002  -1.856  0.00  0.00    +0.006 C 
ATOM     17  C   UNL     1      -2.494   3.720  -0.926  0.00  0.00    +0.052 C 
ENDBRANCH   3   5
BRANCH   1  18
ATOM     18  C   UNL     1       1.507  -0.957  -0.565  0.00  0.00    +0.228 C 
BRANCH  18  19
ATOM     19  N   UNL     1       1.302  -2.381  -0.293  0.00  0.00    -0.198 N 
BRANCH  19  25
ATOM     20  C   UNL     1       3.589  -3.530   3.903  0.00  0.00    +0.044 C 
ATOM     21  C   UNL     1       2.330  -3.406   3.083  0.00  0.00    -0.046 A 
ATOM     22  C   UNL     1       1.109  -3.746   3.636  0.00  0.00    +0.004 A 
ATOM     23  C   UNL     1      -0.048  -3.633   2.888  0.00  0.00    +0.002 A 
ATOM     24  C   UNL     1       0.012  -3.180   1.584  0.00  0.00    +0.025 A 
ATOM     25  C   UNL     1       1.237  -2.839   1.025  0.00  0.00    +0.055 A 
ATOM     26  C   UNL     1       2.398  -2.959   1.778  0.00  0.00    -0.025 A 
ATOM     27  C   UNL     1       3.730  -2.595   1.174  0.00  0.00    +0.046 C 
ENDBRANCH  19  25
BRANCH  19  28
ATOM     28  S   UNL     1       1.147  -3.450  -1.549  0.00  0.00    +0.043 S 
ATOM     29  O   UNL     1       0.388  -4.527  -1.017  0.00  0.00    -0.155 OA
ATOM     30  O   UNL     1       0.644  -2.672  -2.626  0.00  0.00    -0.155 OA
ATOM     31  C   UNL     1       2.839  -3.995  -1.908  0.00  0.00    +0.218 C 
ENDBRANCH  19  28
ENDBRANCH  18  19
ENDBRANCH   1  18
TORSDOF 5
