REMARK  Name = ZINC63270045
REMARK  9 active torsions:
REMARK  status: ('A' for Active; 'I' for Inactive)
REMARK    1  A    between atoms: C_1  and  C_2
REMARK    2  A    between atoms: C_14  and  C_19
REMARK    3  A    between atoms: C_16  and  C_18
REMARK    4  A    between atoms: C_19  and  C_20
REMARK    5  A    between atoms: C_20  and  C_21
REMARK    6  A    between atoms: N_23  and  C_24
REMARK    7  A    between atoms: C_24  and  C_26
REMARK    8  A    between atoms: C_24  and  C_27
REMARK    9  A    between atoms: C_27  and  C_28
REMARK                            x       y       z     vdW  Elec       q    Type
REMARK                         _______ _______ _______ _____ _____    ______ ____
ROOT
ATOM      1  C   UNL     1       2.619  -3.986   6.319  0.00  0.00    +0.096 C 
ENDROOT
BRANCH   1   2
ATOM      2  C   UNL     1       4.117  -4.075   6.176  0.00  0.00    +0.213 C 
ATOM      3  O   UNL     1       4.709  -3.274   5.484  0.00  0.00    -0.276 OA
ATOM      4  N   UNL     1       4.799  -5.046   6.816  0.00  0.00    -0.312 N 
ATOM      5  H   UNL     1       4.325  -5.687   7.370  0.00  0.00    +0.149 HD
BRANCH   4   6
ATOM      6  C   UNL     1       6.254  -5.133   6.677  0.00  0.00    +0.074 C 
ATOM      7  C   UNL     1       6.920  -4.199   7.690  0.00  0.00    +0.028 C 
BRANCH   6   8
ATOM      8  C   UNL     1       6.706  -6.572   6.935  0.00  0.00    +0.055 C 
BRANCH   8   9
ATOM      9  C   UNL     1       6.149  -7.473   5.864  0.00  0.00    -0.040 C 
ATOM     10  C   UNL     1       6.770  -7.870   4.730  0.00  0.00    -0.001 A 
ATOM     11  C   UNL     1       8.100  -7.590   4.175  0.00  0.00    +0.010 A 
ATOM     12  C   UNL     1       8.446  -8.143   2.990  0.00  0.00    +0.001 A 
ATOM     13  C   UNL     1       7.569  -8.974   2.281  0.00  0.00    +0.002 A 
ATOM     14  C   UNL     1       6.331  -9.278   2.726  0.00  0.00    +0.026 A 
ATOM     15  C   UNL     1       5.863  -8.751   3.962  0.00  0.00    +0.043 A 
ATOM     16  N   UNL     1       4.724  -8.894   4.596  0.00  0.00    -0.380 N 
ATOM     17  C   UNL     1       4.784  -8.123   5.843  0.00  0.00    +0.144 C 
ATOM     18  H   UNL     1       3.970  -9.424   4.293  0.00  0.00    +0.160 HD
ENDBRANCH   8   9
ENDBRANCH   6   8
ENDBRANCH   4   6
ENDBRANCH   1   2
BRANCH   1  19
ATOM     19  C   UNL     1       2.098  -2.806   5.497  0.00  0.00    +0.024 C 
BRANCH  19  33
ATOM     20  C   UNL     1      -0.018   1.503   0.010  0.00  0.00    +0.047 C 
ATOM     21  C   UNL     1       0.002  -0.004   0.002  0.00  0.00    -0.005 A 
ATOM     22  C   UNL     1       0.009  -0.802  -1.074  0.00  0.00    +0.199 A 
ATOM     23  O   UNL     1       0.028  -2.092  -0.694  0.00  0.00    -0.463 OA
ATOM     24  C   UNL     1       0.037  -2.197   0.651  0.00  0.00    +0.139 A 
ATOM     25  C   UNL     1       0.025  -0.892   1.171  0.00  0.00    +0.024 A 
ATOM     26  C   UNL     1       0.032  -0.690   2.549  0.00  0.00    +0.019 A 
ATOM     27  C   UNL     1       0.058  -1.762   3.403  0.00  0.00    -0.001 A 
ATOM     28  C   UNL     1       0.080  -3.055   2.897  0.00  0.00    +0.139 A 
ATOM     29  C   UNL     1       0.059  -3.272   1.526  0.00  0.00    +0.093 A 
ATOM     30  O   UNL     1       0.126  -4.144   3.715  0.00  0.00    -0.425 OA
ATOM     31  C   UNL     1      -0.071  -3.942   5.032  0.00  0.00    +0.316 C 
ATOM     32  O   UNL     1      -0.735  -4.702   5.696  0.00  0.00    -0.250 OA
ATOM     33  C   UNL     1       0.578  -2.715   5.642  0.00  0.00    +0.106 C 
ATOM     34  C   UNL     1       0.054  -1.490   4.887  0.00  0.00    +0.033 C 
ATOM     35  C   UNL     1       0.952  -0.287   5.185  0.00  0.00    +0.013 C 
ENDBRANCH  19  33
ENDBRANCH   1  19
TORSDOF 6
