REMARK  Name = ZINC04513350
REMARK  7 active torsions:
REMARK  status: ('A' for Active; 'I' for Inactive)
REMARK    1  A    between atoms: C_1  and  C_2
REMARK    2  A    between atoms: C_2  and  C_3
REMARK    3  A    between atoms: N_11  and  C_15
REMARK    4  A    between atoms: C_15  and  C_16
REMARK    5  A    between atoms: N_18  and  C_19
REMARK    6  A    between atoms: C_19  and  C_21
REMARK    7  A    between atoms: C_19  and  C_22
REMARK                            x       y       z     vdW  Elec       q    Type
REMARK                         _______ _______ _______ _____ _____    ______ ____
ROOT
ATOM      1  C   UNL     1       1.120   3.657   0.011  0.00  0.00    +0.213 C 
ENDROOT
BRANCH   1  10
ATOM      2  C   UNL     1       5.969   5.474  -3.133  0.00  0.00    -0.011 C 
ATOM      3  C   UNL     1       5.704   4.040  -2.669  0.00  0.00    +0.006 C 
ATOM      4  C   UNL     1       5.650   4.001  -1.139  0.00  0.00    +0.035 C 
ATOM      5  C   UNL     1       4.543   4.926  -0.646  0.00  0.00    +0.113 C 
ATOM      6  C   UNL     1       4.782   6.355  -1.119  0.00  0.00    +0.035 C 
ATOM      7  C   UNL     1       4.840   6.385  -2.648  0.00  0.00    +0.006 C 
ATOM      8  C   UNL     1       3.195   4.433  -1.121  0.00  0.00    +0.247 C 
ATOM      9  O   UNL     1       2.822   4.305  -2.267  0.00  0.00    -0.273 OA
ATOM     10  N   UNL     1       2.494   4.164   0.001  0.00  0.00    -0.215 N 
ATOM     11  C   UNL     1       3.208   4.424   1.103  0.00  0.00    +0.310 C 
ATOM     12  O   UNL     1       2.789   4.267   2.232  0.00  0.00    -0.252 OA
ATOM     13  N   UNL     1       4.445   4.877   0.818  0.00  0.00    -0.285 N 
ATOM     14  H   UNL     1       5.133   5.125   1.455  0.00  0.00    +0.151 HD
BRANCH   2  16
ATOM     15  C   UNL     1       6.421   6.918  -5.120  0.00  0.00    +0.004 C 
ATOM     16  C   UNL     1       6.034   5.511  -4.661  0.00  0.00    -0.000 C 
ENDBRANCH   2  16
ENDBRANCH   1  10
BRANCH   1  17
ATOM     17  C   UNL     1       1.140   2.151   0.003  0.00  0.00    +0.231 C 
ATOM     18  O   UNL     1       2.199   1.558  -0.011  0.00  0.00    -0.274 OA
ATOM     19  N   UNL     1      -0.018   1.461   0.010  0.00  0.00    -0.311 N 
ATOM     20  H   UNL     1      -0.864   1.934   0.017  0.00  0.00    +0.149 HD
BRANCH  19  21
ATOM     21  C   UNL     1       0.002  -0.004   0.002  0.00  0.00    +0.076 C 
ATOM     22  C   UNL     1       0.121  -0.505  -1.439  0.00  0.00    +0.028 C 
BRANCH  21  23
ATOM     23  C   UNL     1      -1.292  -0.535   0.621  0.00  0.00    -0.010 C 
ATOM     24  C   UNL     1      -2.489  -0.037  -0.192  0.00  0.00    +0.012 C 
ATOM     25  C   UNL     1      -3.783  -0.568   0.427  0.00  0.00    -0.010 C 
ATOM     26  C   UNL     1      -3.762  -2.098   0.419  0.00  0.00    +0.007 C 
ATOM     27  C   UNL     1      -2.566  -2.596   1.232  0.00  0.00    -0.010 C 
ATOM     28  C   UNL     1      -1.272  -2.065   0.613  0.00  0.00    +0.012 C 
ATOM     29  C   UNL     1      -2.685  -2.095   2.673  0.00  0.00    +0.007 C 
ATOM     30  C   UNL     1      -2.706  -0.566   2.681  0.00  0.00    -0.010 C 
ATOM     31  C   UNL     1      -3.902  -0.067   1.868  0.00  0.00    +0.007 C 
ATOM     32  C   UNL     1      -1.411  -0.035   2.062  0.00  0.00    +0.012 C 
ENDBRANCH  21  23
ENDBRANCH  19  21
ENDBRANCH   1  17
TORSDOF 5
