REMARK  Name = ZINC09952967
REMARK  4 active torsions:
REMARK  status: ('A' for Active; 'I' for Inactive)
REMARK    1  A    between atoms: C_1  and  C_2
REMARK    2  A    between atoms: C_15  and  C_17
REMARK    3  A    between atoms: C_17  and  O_18
REMARK    4  A    between atoms: O_18  and  C_19
REMARK                            x       y       z     vdW  Elec       q    Type
REMARK                         _______ _______ _______ _____ _____    ______ ____
ROOT
ATOM      1  C   UNL     1      -1.373  -0.533   0.414  0.00  0.00    +0.029 C 
ATOM      2  C   UNL     1       0.002  -0.004   0.002  0.00  0.00    +0.087 C 
ATOM      3  C   UNL     1      -0.019   1.526   0.010  0.00  0.00    +0.118 C 
ATOM      4  C   UNL     1       1.388   2.063  -0.000  0.00  0.00    +0.219 C 
ATOM      5  O   UNL     1       1.845   2.532  -1.021  0.00  0.00    -0.275 OA
ATOM      6  N   UNL     1       2.144   2.027   1.119  0.00  0.00    -0.284 N 
ATOM      7  C   UNL     1       1.666   1.410   2.281  0.00  0.00    +0.055 A 
ATOM      8  C   UNL     1       1.742   2.047   3.509  0.00  0.00    +0.025 A 
ATOM      9  C   UNL     1       1.300   1.399   4.648  0.00  0.00    +0.002 A 
ATOM     10  C   UNL     1       0.780   0.120   4.564  0.00  0.00    +0.002 A 
ATOM     11  C   UNL     1       0.690  -0.517   3.341  0.00  0.00    +0.025 A 
ATOM     12  C   UNL     1       1.122   0.128   2.193  0.00  0.00    +0.058 A 
ATOM     13  N   UNL     1       1.013  -0.492   0.942  0.00  0.00    -0.264 N 
ATOM     14  C   UNL     1       1.822  -1.517   0.609  0.00  0.00    +0.258 C 
ATOM     15  O   UNL     1       1.717  -2.045  -0.478  0.00  0.00    -0.272 OA
ATOM     16  H   UNL     1       3.026   2.432   1.118  0.00  0.00    +0.155 HD
ENDROOT
BRANCH  14  17
ATOM     17  C   UNL     1       2.857  -2.008   1.588  0.00  0.00    +0.325 C 
BRANCH  17  18
ATOM     18  O   UNL     1       3.585  -3.093   1.009  0.00  0.00    -0.480 OA
BRANCH  18  19
ATOM     19  C   UNL     1       4.564  -3.655   1.767  0.00  0.00    +0.159 A 
ATOM     20  C   UNL     1       4.818  -3.171   3.041  0.00  0.00    +0.090 A 
ATOM     21  C   UNL     1       5.814  -3.744   3.812  0.00  0.00    +0.162 A 
ATOM     22  C   UNL     1       6.558  -4.801   3.311  0.00  0.00    +0.161 A 
ATOM     23  C   UNL     1       6.305  -5.284   2.039  0.00  0.00    +0.083 A 
ATOM     24  C   UNL     1       5.306  -4.717   1.268  0.00  0.00    +0.168 A 
ATOM     25  F   UNL     1       5.056  -5.193   0.029  0.00  0.00    -0.202 F 
ATOM     26  F   UNL     1       7.530  -5.359   4.064  0.00  0.00    -0.202 F 
ATOM     27  F   UNL     1       6.063  -3.272   5.053  0.00  0.00    -0.202 F 
ENDBRANCH  18  19
ENDBRANCH  17  18
ENDBRANCH  14  17
TORSDOF 3
