REMARK  Name = ZINC03125323
REMARK  9 active torsions:
REMARK  status: ('A' for Active; 'I' for Inactive)
REMARK    1  A    between atoms: C_6  and  C_7
REMARK    2  A    between atoms: C_7  and  N_8
REMARK    3  A    between atoms: N_8  and  C_9
REMARK    4  A    between atoms: N_8  and  S_22
REMARK    5  A    between atoms: C_9  and  C_10
REMARK    6  A    between atoms: C_10  and  N_11
REMARK    7  A    between atoms: N_11  and  C_12
REMARK    8  A    between atoms: C_15  and  C_17
REMARK    9  A    between atoms: S_22  and  C_25
REMARK                            x       y       z     vdW  Elec       q    Type
REMARK                         _______ _______ _______ _____ _____    ______ ____
ROOT
ATOM      1  N   UNL     1      -0.721   1.571  -1.179  0.00  0.00    -0.167 NA
ENDROOT
BRANCH   1   2
ATOM      2  S   UNL     1      -0.229   2.966  -1.924  0.00  0.00    +0.129 S 
ATOM      3  O   UNL     1      -1.394   3.462  -2.570  0.00  0.00    -0.150 OA
ATOM      4  O   UNL     1       0.408   3.718  -0.901  0.00  0.00    -0.150 OA
BRANCH   2   5
ATOM      5  C   UNL     1       0.988   2.430  -3.158  0.00  0.00    +0.536 C 
ATOM      6  F   UNL     1       0.346   1.692  -4.157  0.00  0.00    -0.149 F 
ATOM      7  F   UNL     1       1.599   3.553  -3.727  0.00  0.00    -0.149 F 
ATOM      8  F   UNL     1       1.959   1.634  -2.540  0.00  0.00    -0.149 F 
ENDBRANCH   2   5
ENDBRANCH   1   2
BRANCH   1   9
ATOM      9  C   UNL     1      -0.013   1.086   0.008  0.00  0.00    +0.144 C 
BRANCH   9  15
ATOM     10  C   UNL     1      -0.360   2.779   1.818  0.00  0.00    +0.006 A 
ATOM     11  C   UNL     1      -1.010   3.228   2.952  0.00  0.00    +0.020 A 
ATOM     12  C   UNL     1      -2.012   2.464   3.523  0.00  0.00    +0.041 A 
ATOM     13  C   UNL     1      -2.367   1.253   2.955  0.00  0.00    +0.020 A 
ATOM     14  C   UNL     1      -1.719   0.808   1.817  0.00  0.00    +0.006 A 
ATOM     15  C   UNL     1      -0.718   1.572   1.248  0.00  0.00    -0.032 A 
ATOM     16 CL   UNL     1      -2.825   3.024   4.951  0.00  0.00    -0.084 Cl
ENDBRANCH   9  15
ENDBRANCH   1   9
BRANCH   1  17
ATOM     17  C   UNL     1      -1.865   0.823  -1.706  0.00  0.00    +0.128 C 
BRANCH  17  18
ATOM     18  C   UNL     1      -3.134   1.238  -0.959  0.00  0.00    +0.120 C 
BRANCH  18  19
ATOM     19  N   UNL     1      -4.278   0.489  -1.487  0.00  0.00    -0.328 N 
ATOM     20  H   UNL     1      -4.149  -0.152  -2.203  0.00  0.00    +0.147 HD
BRANCH  19  21
ATOM     21  C   UNL     1      -5.548   0.698  -0.960  0.00  0.00    +0.115 A 
ATOM     22  C   UNL     1      -6.632  -0.013  -1.470  0.00  0.00    +0.079 A 
ATOM     23  C   UNL     1      -7.889   0.201  -0.932  0.00  0.00    +0.037 A 
ATOM     24  C   UNL     1      -8.022   1.129   0.093  0.00  0.00    +0.072 A 
ATOM     25  C   UNL     1      -6.905   1.802   0.545  0.00  0.00    +0.096 A 
ATOM     26 CL   UNL     1      -6.408  -1.155  -2.757  0.00  0.00    -0.080 Cl
ATOM     27  N   UNL     1      -5.654   1.614   0.045  0.00  0.00    -0.348 N 
ATOM     28  H   UNL     1      -4.841   2.129   0.402  0.00  0.00    +0.167 HD
BRANCH  24  29
ATOM     29  C   UNL     1      -9.373   1.399   0.704  0.00  0.00    +0.419 C 
ATOM     30  F   UNL     1      -9.245   2.365   1.708  0.00  0.00    -0.166 F 
ATOM     31  F   UNL     1     -10.247   1.865  -0.283  0.00  0.00    -0.166 F 
ATOM     32  F   UNL     1      -9.879   0.217   1.256  0.00  0.00    -0.166 F 
ENDBRANCH  24  29
ENDBRANCH  19  21
ENDBRANCH  18  19
ENDBRANCH  17  18
ENDBRANCH   1  17
TORSDOF 9
