REMARK  Name = ZINC12206046
REMARK  16 active torsions:
REMARK  status: ('A' for Active; 'I' for Inactive)
REMARK    1  A    between atoms: C_1  and  C_2
REMARK    2  A    between atoms: C_2  and  C_3
REMARK    3  A    between atoms: C_2  and  C_4
REMARK    4  A    between atoms: C_4  and  C_5
REMARK    5  A    between atoms: C_5  and  C_6
REMARK    6  A    between atoms: C_6  and  C_17
REMARK    7  A    between atoms: N_9  and  C_13
REMARK    8  A    between atoms: C_13  and  C_14
REMARK    9  A    between atoms: C_14  and  N_75
REMARK   10  A    between atoms: C_15  and  N_75
REMARK   11  A    between atoms: C_16  and  N_75
REMARK   12  A    between atoms: C_23  and  C_25
REMARK   13  A    between atoms: C_25  and  O_26
REMARK   14  A    between atoms: O_26  and  C_27
REMARK   15  A    between atoms: C_32  and  O_33
REMARK   16  A    between atoms: O_33  and  C_34
REMARK                            x       y       z     vdW  Elec       q    Type
REMARK                         _______ _______ _______ _____ _____    ______ ____
ROOT
ATOM      1  C   UNL     1      -7.443   3.323   8.527  0.00  0.00    +0.115 C 
ATOM      2  C   UNL     1      -7.968   2.310   9.526  0.00  0.00    +0.247 C 
ATOM      3  O   UNL     1      -7.595   2.147  10.668  0.00  0.00    -0.273 OA
ATOM      4  N   UNL     1      -8.935   1.629   8.874  0.00  0.00    -0.226 N 
ATOM      5  C   UNL     1      -9.092   2.069   7.621  0.00  0.00    +0.309 C 
ATOM      6  O   UNL     1      -9.904   1.611   6.840  0.00  0.00    -0.252 OA
ATOM      7  N   UNL     1      -8.251   3.075   7.321  0.00  0.00    -0.285 N 
ATOM      8  H   UNL     1      -8.188   3.545   6.474  0.00  0.00    +0.151 HD
ENDROOT
BRANCH   1   9
ATOM      9  C   UNL     1      -5.960   3.080   8.242  0.00  0.00    +0.024 C 
ATOM     10  C   UNL     1      -5.767   1.649   7.733  0.00  0.00    +0.025 C 
ATOM     11  C   UNL     1      -4.277   1.398   7.482  0.00  0.00    +0.108 C 
ATOM     12  N   UNL     1      -3.768   2.436   6.574  0.00  0.00    -0.299 N 
ATOM     13  C   UNL     1      -3.977   3.847   6.927  0.00  0.00    +0.108 C 
ATOM     14  C   UNL     1      -5.475   4.071   7.182  0.00  0.00    +0.025 C 
ATOM     15  C   UNL     1      -3.119   2.100   5.442  0.00  0.00    +0.253 C 
ATOM     16  O   UNL     1      -2.949   0.932   5.164  0.00  0.00    -0.272 OA
BRANCH  15  17
ATOM     17  C   UNL     1      -2.603   3.176   4.521  0.00  0.00    +0.324 C 
BRANCH  17  18
ATOM     18  O   UNL     1      -1.957   2.573   3.399  0.00  0.00    -0.479 OA
BRANCH  18  19
ATOM     19  C   UNL     1      -1.432   3.411   2.465  0.00  0.00    +0.163 A 
ATOM     20  C   UNL     1      -1.532   4.784   2.629  0.00  0.00    +0.049 A 
ATOM     21  C   UNL     1      -1.003   5.634   1.677  0.00  0.00    +0.004 A 
ATOM     22  C   UNL     1      -0.368   5.119   0.562  0.00  0.00    +0.004 A 
ATOM     23  C   UNL     1      -0.259   3.751   0.395  0.00  0.00    +0.049 A 
ATOM     24  C   UNL     1      -0.787   2.893   1.346  0.00  0.00    +0.162 A 
BRANCH  24  25
ATOM     25  O   UNL     1      -0.682   1.547   1.184  0.00  0.00    -0.491 OA
ATOM     26  C   UNL     1      -0.013   1.086   0.008  0.00  0.00    +0.277 C 
ENDBRANCH  24  25
ENDBRANCH  18  19
ENDBRANCH  17  18
ENDBRANCH  15  17
ENDBRANCH   1   9
BRANCH   1  27
ATOM     27  C   UNL     1      -7.665   4.748   9.039  0.00  0.00    +0.036 C 
BRANCH  27  28
ATOM     28  C   UNL     1      -9.154   4.965   9.316  0.00  0.00    +0.005 C 
BRANCH  28  30
ATOM     29  C   UNL     1      -9.018   7.389   8.725  0.00  0.00    +0.007 C 
ATOM     30  C   UNL     1      -9.375   6.390   9.828  0.00  0.00    -0.017 C 
ATOM     31  C   UNL     1     -10.842   6.568  10.222  0.00  0.00    +0.007 C 
ENDBRANCH  28  30
ENDBRANCH  27  28
ENDBRANCH   1  27
BRANCH   4  32
ATOM     32  C   UNL     1      -9.718   0.542   9.469  0.00  0.00    +0.099 C 
BRANCH  32  33
ATOM     33  C   UNL     1      -9.011  -0.792   9.217  0.00  0.00    -0.060 C 
BRANCH  33  36
ATOM     34  C   UNL     1     -11.086  -2.036   9.129  0.00  0.00    -0.097 C 
ATOM     35  C   UNL     1      -9.039  -3.141   9.801  0.00  0.00    -0.097 C 
ATOM     36  N   UNL     1      -9.800  -1.875   9.840  0.00  0.00    +0.377 N 
ATOM     37  H   UNL     1      -9.989  -1.629  10.819  0.00  0.00    -0.083 HD
ENDBRANCH  33  36
ENDBRANCH  32  33
ENDBRANCH   4  32
TORSDOF 11
