REMARK  Name = ZINC35872115
REMARK  10 active torsions:
REMARK  status: ('A' for Active; 'I' for Inactive)
REMARK    1  A    between atoms: C_1  and  C_2
REMARK    2  A    between atoms: C_2  and  N_3
REMARK    3  A    between atoms: C_5  and  C_12
REMARK    4  A    between atoms: C_12  and  C_14
REMARK    5  A    between atoms: C_12  and  C_31
REMARK    6  A    between atoms: C_14  and  C_15
REMARK    7  A    between atoms: N_17  and  C_18
REMARK    8  A    between atoms: N_21  and  C_24
REMARK    9  A    between atoms: C_24  and  C_25
REMARK   10  A    between atoms: C_34  and  C_37
REMARK                            x       y       z     vdW  Elec       q    Type
REMARK                         _______ _______ _______ _____ _____    ______ ____
ROOT
ATOM      1  C   UNL     1      -4.369  -1.781   1.734  0.00  0.00    +0.060 C 
ENDROOT
BRANCH   1   4
ATOM      2  N   UNL     1      -1.372  -0.511   0.012  0.00  0.00    -0.347 N 
ATOM      3  C   UNL     1      -2.067  -0.875   1.133  0.00  0.00    +0.091 A 
ATOM      4  C   UNL     1      -3.296  -1.295   0.794  0.00  0.00    -0.014 A 
ATOM      5  C   UNL     1      -3.397  -1.191  -0.664  0.00  0.00    +0.004 A 
ATOM      6  C   UNL     1      -2.159  -0.687  -1.104  0.00  0.00    +0.049 A 
ATOM      7  C   UNL     1      -1.955  -0.473  -2.463  0.00  0.00    +0.026 A 
ATOM      8  C   UNL     1      -2.963  -0.753  -3.359  0.00  0.00    +0.002 A 
ATOM      9  C   UNL     1      -4.183  -1.247  -2.920  0.00  0.00    +0.001 A 
ATOM     10  C   UNL     1      -4.403  -1.473  -1.590  0.00  0.00    +0.010 A 
BRANCH   2  12
ATOM     11  C   UNL     1      -0.019   1.526   0.010  0.00  0.00    +0.027 C 
ATOM     12  C   UNL     1       0.002  -0.004   0.002  0.00  0.00    +0.118 C 
ENDBRANCH   2  12
ENDBRANCH   1   4
BRANCH   1  13
ATOM     13  C   UNL     1      -4.716  -0.686   2.710  0.00  0.00    -0.039 A 
ATOM     14  C   UNL     1      -3.742  -0.171   3.545  0.00  0.00    +0.004 A 
ATOM     15  C   UNL     1      -4.060   0.833   4.440  0.00  0.00    +0.003 A 
ATOM     16  C   UNL     1      -5.352   1.322   4.500  0.00  0.00    -0.050 A 
ATOM     17  C   UNL     1      -6.325   0.807   3.664  0.00  0.00    +0.003 A 
ATOM     18  C   UNL     1      -6.006  -0.194   2.766  0.00  0.00    +0.004 A 
ATOM     19  C   UNL     1      -5.699   2.416   5.476  0.00  0.00    +0.044 C 
ENDBRANCH   1  13
BRANCH   1  20
ATOM     20  C   UNL     1      -3.861  -3.005   2.499  0.00  0.00    +0.108 C 
BRANCH  20  21
ATOM     21  C   UNL     1      -4.973  -3.564   3.348  0.00  0.00    +0.214 C 
ATOM     22  O   UNL     1      -6.065  -3.037   3.341  0.00  0.00    -0.276 OA
ATOM     23  N   UNL     1      -4.754  -4.651   4.114  0.00  0.00    -0.313 N 
ATOM     24  H   UNL     1      -3.881  -5.073   4.120  0.00  0.00    +0.149 HD
BRANCH  23  25
ATOM     25  C   UNL     1      -5.835  -5.196   4.939  0.00  0.00    +0.069 C 
ATOM     26  C   UNL     1      -5.881  -4.454   6.278  0.00  0.00    +0.003 C 
ATOM     27  C   UNL     1      -6.960  -5.079   7.165  0.00  0.00    -0.077 C 
ATOM     28  N   UNL     1      -6.646  -6.494   7.399  0.00  0.00    +0.382 N 
ATOM     29  C   UNL     1      -6.671  -7.226   6.127  0.00  0.00    -0.077 C 
ATOM     30  C   UNL     1      -5.582  -6.683   5.200  0.00  0.00    +0.003 C 
ATOM     31  H   UNL     1      -5.729  -6.571   7.811  0.00  0.00    -0.081 HD
BRANCH  28  32
ATOM     32  C   UNL     1      -7.641  -7.070   8.313  0.00  0.00    -0.043 C 
BRANCH  32  33
ATOM     33  C   UNL     1      -7.253  -8.487   8.650  0.00  0.00    -0.064 A 
ATOM     34  C   UNL     1      -7.702  -9.532   7.865  0.00  0.00    +0.002 A 
ATOM     35  C   UNL     1      -7.345 -10.831   8.175  0.00  0.00    +0.000 A 
ATOM     36  C   UNL     1      -6.540 -11.085   9.269  0.00  0.00    +0.000 A 
ATOM     37  C   UNL     1      -6.090 -10.040  10.054  0.00  0.00    +0.000 A 
ATOM     38  C   UNL     1      -6.443  -8.740   9.742  0.00  0.00    +0.002 A 
ENDBRANCH  32  33
ENDBRANCH  28  32
ENDBRANCH  23  25
ENDBRANCH  20  21
ENDBRANCH   1  20
TORSDOF 8
