REMARK  Name = ZINC23483156
REMARK  12 active torsions:
REMARK  status: ('A' for Active; 'I' for Inactive)
REMARK    1  A    between atoms: C_1  and  C_2
REMARK    2  A    between atoms: C_2  and  C_4
REMARK    3  A    between atoms: C_2  and  N_31
REMARK    4  A    between atoms: C_7  and  S_16
REMARK    5  A    between atoms: N_8  and  C_9
REMARK    6  A    between atoms: S_16  and  C_17
REMARK    7  A    between atoms: C_17  and  C_19
REMARK    8  A    between atoms: C_17  and  C_20
REMARK    9  A    between atoms: N_22  and  C_23
REMARK   10  A    between atoms: C_27  and  C_29
REMARK   11  A    between atoms: N_31  and  C_32
REMARK   12  A    between atoms: N_31  and  C_33
REMARK                            x       y       z     vdW  Elec       q    Type
REMARK                         _______ _______ _______ _____ _____    ______ ____
ROOT
ATOM      1  C   UNL     1      -1.518   5.946   1.204  0.00  0.00    +0.125 A 
ATOM      2  N   UNL     1      -0.747   5.678   0.188  0.00  0.00    -0.135 NA
ATOM      3  N   UNL     1      -0.554   4.411   0.101  0.00  0.00    -0.122 NA
ATOM      4  C   UNL     1      -1.197   3.793   1.064  0.00  0.00    +0.197 A 
ATOM      5  N   UNL     1      -1.838   4.753   1.797  0.00  0.00    -0.275 N 
ENDROOT
BRANCH   5   6
ATOM      6  C   UNL     1      -2.651   4.558   2.924  0.00  0.00    +0.050 A 
ATOM      7  C   UNL     1      -4.001   4.878   2.870  0.00  0.00    +0.029 A 
ATOM      8  C   UNL     1      -4.802   4.679   3.978  0.00  0.00    +0.040 A 
ATOM      9  C   UNL     1      -4.256   4.174   5.146  0.00  0.00    +0.124 A 
ATOM     10  C   UNL     1      -2.908   3.860   5.203  0.00  0.00    +0.040 A 
ATOM     11  C   UNL     1      -2.106   4.051   4.095  0.00  0.00    +0.029 A 
ATOM     12  F   UNL     1      -5.039   3.986   6.231  0.00  0.00    -0.205 F 
ENDBRANCH   5   6
BRANCH   1  14
ATOM     13  C   UNL     1      -3.063   7.815   0.686  0.00  0.00    -0.005 C 
ATOM     14  C   UNL     1      -1.978   7.313   1.641  0.00  0.00    -0.003 C 
BRANCH  14  15
ATOM     15  N   UNL     1      -0.840   8.241   1.621  0.00  0.00    +0.382 N 
ATOM     16  C   UNL     1      -1.252   9.587   2.042  0.00  0.00    -0.096 C 
ATOM     17  C   UNL     1       0.261   7.742   2.456  0.00  0.00    -0.096 C 
ATOM     18  H   UNL     1      -0.476   8.308   0.585  0.00  0.00    -0.082 HD
ENDBRANCH  14  15
ENDBRANCH   1  14
BRANCH   4  19
ATOM     19  S   UNL     1      -1.233   2.055   1.354  0.00  0.00    -0.073 S 
BRANCH  19  20
ATOM     20  C   UNL     1      -0.180   1.488  -0.004  0.00  0.00    +0.137 C 
ATOM     21  C   UNL     1       1.243   2.011   0.201  0.00  0.00    +0.029 C 
BRANCH  20  22
ATOM     22  C   UNL     1      -0.162  -0.019  -0.030  0.00  0.00    +0.230 C 
ATOM     23  O   UNL     1      -0.476  -0.646   0.959  0.00  0.00    -0.274 OA
ATOM     24  N   UNL     1       0.203  -0.669  -1.153  0.00  0.00    -0.285 N 
ATOM     25  H   UNL     1       0.404  -0.104  -2.075  0.00  0.00    +0.155 HD
BRANCH  24  26
ATOM     26  C   UNL     1       0.326  -2.063  -1.146  0.00  0.00    +0.035 A 
ATOM     27  C   UNL     1       0.017  -2.794  -2.287  0.00  0.00    +0.023 A 
ATOM     28  C   UNL     1       0.137  -4.171  -2.285  0.00  0.00    +0.003 A 
ATOM     29  C   UNL     1       0.566  -4.830  -1.150  0.00  0.00    +0.019 A 
ATOM     30  C   UNL     1       0.880  -4.104   0.001  0.00  0.00    +0.054 A 
ATOM     31  C   UNL     1       0.763  -2.714  -0.003  0.00  0.00    +0.042 A 
BRANCH  30  32
ATOM     32  C   UNL     1       1.325  -4.785   1.180  0.00  0.00    +0.099 C 
ATOM     33  N   UNL     1       1.679  -5.325   2.115  0.00  0.00    -0.191 NA
ENDBRANCH  30  32
ENDBRANCH  24  26
ENDBRANCH  20  22
ENDBRANCH  19  20
ENDBRANCH   4  19
TORSDOF 8
