REMARK  Name = ZINC15859286
REMARK  11 active torsions:
REMARK  status: ('A' for Active; 'I' for Inactive)
REMARK    1  A    between atoms: C_1  and  C_2
REMARK    2  A    between atoms: C_3  and  C_13
REMARK    3  A    between atoms: C_13  and  C_14
REMARK    4  A    between atoms: C_17  and  S_20
REMARK    5  A    between atoms: N_18  and  C_19
REMARK    6  A    between atoms: S_20  and  C_21
REMARK    7  A    between atoms: C_21  and  C_22
REMARK    8  A    between atoms: N_24  and  C_25
REMARK    9  A    between atoms: C_28  and  C_31
REMARK   10  A    between atoms: C_31  and  C_32
REMARK   11  A    between atoms: C_31  and  C_33
REMARK                            x       y       z     vdW  Elec       q    Type
REMARK                         _______ _______ _______ _____ _____    ______ ____
ROOT
ATOM      1  C   UNL     1       2.037   0.775   0.011  0.00  0.00    +0.138 A 
ATOM      2  N   UNL     1       1.187   1.762   0.029  0.00  0.00    -0.133 NA
ATOM      3  N   UNL     1      -0.016   1.309   0.032  0.00  0.00    -0.122 NA
ATOM      4  C   UNL     1       0.002  -0.004   0.015  0.00  0.00    +0.192 A 
ATOM      5  N   UNL     1       1.313  -0.386   0.002  0.00  0.00    -0.309 N 
ATOM      6  C   UNL     1       1.835  -1.754  -0.018  0.00  0.00    +0.152 C 
ENDROOT
BRANCH   1   7
ATOM      7  C   UNL     1       3.540   0.890   0.003  0.00  0.00    +0.118 C 
BRANCH   7  10
ATOM      8  C   UNL     1       4.033   3.443  -1.280  0.00  0.00    +0.066 C 
ATOM      9  C   UNL     1       4.267   2.160  -2.035  0.00  0.00    +0.049 A 
ATOM     10  C   UNL     1       4.031   0.945  -1.421  0.00  0.00    +0.046 A 
ATOM     11  C   UNL     1       4.261  -0.233  -2.141  0.00  0.00    +0.262 A 
ATOM     12  O   UNL     1       4.067  -1.322  -1.625  0.00  0.00    -0.267 OA
ATOM     13  N   UNL     1       4.695  -0.146  -3.416  0.00  0.00    -0.268 N 
ATOM     14  C   UNL     1       4.918  -1.283  -4.131  0.00  0.00    +0.096 A 
ATOM     15  C   UNL     1       5.360  -1.221  -5.408  0.00  0.00    +0.018 A 
ATOM     16  C   UNL     1       5.594   0.022  -6.013  0.00  0.00    +0.005 A 
ATOM     17  C   UNL     1       5.374   1.166  -5.306  0.00  0.00    +0.047 A 
ATOM     18  C   UNL     1       4.915   1.081  -3.978  0.00  0.00    +0.140 A 
ATOM     19  N   UNL     1       4.699   2.198  -3.286  0.00  0.00    -0.234 NA
ENDBRANCH   7  10
ENDBRANCH   1   7
BRANCH   4  20
ATOM     20  S   UNL     1      -1.400  -1.071   0.011  0.00  0.00    -0.077 S 
BRANCH  20  21
ATOM     21  C   UNL     1      -2.729   0.158   0.036  0.00  0.00    +0.173 C 
BRANCH  21  22
ATOM     22  C   UNL     1      -4.063  -0.545   0.036  0.00  0.00    +0.227 C 
ATOM     23  O   UNL     1      -4.109  -1.757   0.021  0.00  0.00    -0.275 OA
ATOM     24  N   UNL     1      -5.203   0.173   0.052  0.00  0.00    -0.285 N 
ATOM     25  H   UNL     1      -5.167   1.139   0.132  0.00  0.00    +0.155 HD
BRANCH  24  26
ATOM     26  C   UNL     1      -6.439  -0.475  -0.045  0.00  0.00    +0.033 A 
ATOM     27  C   UNL     1      -7.490   0.129  -0.724  0.00  0.00    +0.023 A 
ATOM     28  C   UNL     1      -8.707  -0.516  -0.824  0.00  0.00    +0.006 A 
ATOM     29  C   UNL     1      -8.884  -1.756  -0.239  0.00  0.00    -0.045 A 
ATOM     30  C   UNL     1      -7.842  -2.358   0.442  0.00  0.00    +0.006 A 
ATOM     31  C   UNL     1      -6.620  -1.721   0.540  0.00  0.00    +0.023 A 
BRANCH  29  32
ATOM     32  C   UNL     1     -10.215  -2.454  -0.345  0.00  0.00    +0.013 C 
ATOM     33  C   UNL     1     -11.299  -1.585   0.296  0.00  0.00    +0.012 C 
ATOM     34  C   UNL     1     -10.553  -2.688  -1.819  0.00  0.00    +0.012 C 
ENDBRANCH  29  32
ENDBRANCH  24  26
ENDBRANCH  21  22
ENDBRANCH  20  21
ENDBRANCH   4  20
TORSDOF 7
