REMARK  Name = ZINC52865182
REMARK  10 active torsions:
REMARK  status: ('A' for Active; 'I' for Inactive)
REMARK    1  A    between atoms: C_1  and  C_2
REMARK    2  A    between atoms: C_7  and  C_8
REMARK    3  A    between atoms: C_8  and  N_9
REMARK    4  A    between atoms: N_9  and  C_10
REMARK    5  A    between atoms: N_9  and  C_25
REMARK    6  A    between atoms: C_10  and  C_11
REMARK    7  A    between atoms: C_19  and  N_22
REMARK    8  A    between atoms: C_25  and  C_26
REMARK    9  A    between atoms: C_26  and  O_28
REMARK   10  A    between atoms: O_28  and  C_29
REMARK                            x       y       z     vdW  Elec       q    Type
REMARK                         _______ _______ _______ _____ _____    ______ ____
ROOT
ATOM      1  C   UNL     1      -1.452   1.002   4.022  0.00  0.00    +0.181 C 
ENDROOT
BRANCH   1   2
ATOM      2  C   UNL     1      -2.835   1.276   4.553  0.00  0.00    +0.234 C 
ATOM      3  O   UNL     1      -3.807   0.867   3.953  0.00  0.00    -0.274 OA
ATOM      4  N   UNL     1      -2.993   1.976   5.693  0.00  0.00    -0.270 N 
ATOM      5  C   UNL     1      -1.900   2.526   6.500  0.00  0.00    +0.118 C 
ATOM      6  C   UNL     1      -2.586   3.229   7.683  0.00  0.00    +0.056 C 
ATOM      7  C   UNL     1      -4.064   3.016   7.447  0.00  0.00    -0.024 A 
ATOM      8  C   UNL     1      -4.225   2.290   6.277  0.00  0.00    +0.042 A 
ATOM      9  C   UNL     1      -5.514   1.973   5.848  0.00  0.00    +0.056 A 
ATOM     10  C   UNL     1      -6.611   2.382   6.577  0.00  0.00    +0.128 A 
ATOM     11  C   UNL     1      -6.440   3.110   7.740  0.00  0.00    +0.033 A 
ATOM     12  C   UNL     1      -5.166   3.420   8.177  0.00  0.00    +0.008 A 
BRANCH  10  13
ATOM     13  N   UNL     1      -7.974   2.042   6.113  0.00  0.00    +0.056 N 
ATOM     14  O   UNL     1      -8.125   1.406   5.096  0.00  0.00    -0.126 OA
ATOM     15  O   UNL     1      -8.937   2.400   6.751  0.00  0.00    -0.126 OA
ENDBRANCH  10  13
ENDBRANCH   1   2
BRANCH   1  16
ATOM     16  N   UNL     1      -1.550   0.364   2.703  0.00  0.00    -0.280 NA
BRANCH  16  17
ATOM     17  C   UNL     1      -0.281  -0.277   2.332  0.00  0.00    +0.121 C 
BRANCH  17  24
ATOM     18  C   UNL     1      -1.519  -2.881   2.518  0.00  0.00    +0.044 C 
ATOM     19  C   UNL     1      -1.074  -2.352   1.178  0.00  0.00    -0.046 A 
ATOM     20  C   UNL     1      -1.263  -3.110   0.038  0.00  0.00    +0.003 A 
ATOM     21  C   UNL     1      -0.855  -2.625  -1.190  0.00  0.00    +0.000 A 
ATOM     22  C   UNL     1      -0.258  -1.381  -1.278  0.00  0.00    +0.000 A 
ATOM     23  C   UNL     1      -0.070  -0.623  -0.139  0.00  0.00    +0.005 A 
ATOM     24  C   UNL     1      -0.482  -1.106   1.089  0.00  0.00    -0.030 A 
ENDBRANCH  17  24
ENDBRANCH  16  17
BRANCH  16  25
ATOM     25  C   UNL     1      -1.971   1.331   1.680  0.00  0.00    +0.206 C 
BRANCH  25  26
ATOM     26  C   UNL     1      -0.953   2.438   1.587  0.00  0.00    +0.321 C 
ATOM     27  O   UNL     1       0.046   2.399   2.266  0.00  0.00    -0.249 OA
BRANCH  26  28
ATOM     28  O   UNL     1      -1.157   3.469   0.752  0.00  0.00    -0.467 OA
ATOM     29  C   UNL     1      -0.151   4.483   0.715  0.00  0.00    +0.280 C 
ENDBRANCH  26  28
ENDBRANCH  25  26
ENDBRANCH  16  25
ENDBRANCH   1  16
TORSDOF 8
