REMARK  Name = ZINC28845910
REMARK  9 active torsions:
REMARK  status: ('A' for Active; 'I' for Inactive)
REMARK    1  A    between atoms: C_4  and  N_28
REMARK    2  A    between atoms: C_5  and  C_7
REMARK    3  A    between atoms: C_8  and  C_9
REMARK    4  A    between atoms: C_9  and  O_11
REMARK    5  A    between atoms: O_11  and  C_12
REMARK    6  A    between atoms: C_12  and  C_13
REMARK    7  A    between atoms: C_16  and  C_18
REMARK    8  A    between atoms: C_21  and  O_24
REMARK    9  A    between atoms: O_24  and  C_25
REMARK                            x       y       z     vdW  Elec       q    Type
REMARK                         _______ _______ _______ _____ _____    ______ ____
ROOT
ATOM      1  C   UNL     1       2.680  -4.172   1.072  0.00  0.00    +0.257 C 
ATOM      2  O   UNL     1       1.628  -4.740   0.871  0.00  0.00    -0.272 OA
ATOM      3  N   UNL     1       2.693  -2.845   1.309  0.00  0.00    -0.250 N 
ATOM      4  C   UNL     1       1.538  -2.151   1.321  0.00  0.00    +0.250 C 
ATOM      5  O   UNL     1       0.484  -2.721   1.119  0.00  0.00    -0.270 OA
ATOM      6  H   UNL     1       3.647  -2.329   1.491  0.00  0.00    +0.158 HD
ENDROOT
BRANCH   4   7
ATOM      7  C   UNL     1       1.554  -0.698   1.580  0.00  0.00    +0.037 A 
ATOM      8  C   UNL     1       0.357   0.024   1.593  0.00  0.00    +0.016 A 
ATOM      9  C   UNL     1       0.376   1.379   1.835  0.00  0.00    +0.046 A 
ATOM     10  C   UNL     1       1.582   2.029   2.067  0.00  0.00    +0.127 A 
ATOM     11  C   UNL     1       2.775   1.315   2.054  0.00  0.00    +0.046 A 
ATOM     12  C   UNL     1       2.765  -0.041   1.813  0.00  0.00    +0.016 A 
BRANCH  10  13
ATOM     13  O   UNL     1       1.596   3.365   2.305  0.00  0.00    -0.434 OA
BRANCH  13  14
ATOM     14  C   UNL     1       2.871   3.970   2.535  0.00  0.00    +0.541 C 
ATOM     15  F   UNL     1       3.471   3.382   3.653  0.00  0.00    -0.166 F 
ATOM     16  F   UNL     1       3.686   3.779   1.414  0.00  0.00    -0.166 F 
ENDBRANCH  13  14
ENDBRANCH  10  13
ENDBRANCH   4   7
BRANCH   1  17
ATOM     17  C   UNL     1       3.971  -4.948   1.058  0.00  0.00    +0.328 C 
BRANCH  17  18
ATOM     18  O   UNL     1       3.697  -6.324   0.788  0.00  0.00    -0.452 OA
BRANCH  18  19
ATOM     19  C   UNL     1       4.753  -7.162   0.741  0.00  0.00    +0.332 C 
ATOM     20  O   UNL     1       5.877  -6.734   0.924  0.00  0.00    -0.246 OA
BRANCH  19  22
ATOM     21  C   UNL     1       5.604  -9.421   0.422  0.00  0.00    +0.017 C 
ATOM     22  C   UNL     1       4.547  -8.584   0.469  0.00  0.00    +0.092 C 
BRANCH  21  27
ATOM     23  C   UNL     1       3.934 -12.754   0.004  0.00  0.00    +0.001 A 
ATOM     24  C   UNL     1       5.007 -13.546  -0.366  0.00  0.00    +0.002 A 
ATOM     25  C   UNL     1       6.274 -13.000  -0.479  0.00  0.00    +0.033 A 
ATOM     26  C   UNL     1       6.475 -11.659  -0.231  0.00  0.00    +0.133 A 
ATOM     27  C   UNL     1       5.397 -10.853   0.149  0.00  0.00    +0.005 A 
ATOM     28  C   UNL     1       4.120 -11.412   0.262  0.00  0.00    +0.010 A 
BRANCH  26  29
ATOM     29  N   UNL     1       7.829 -11.075  -0.360  0.00  0.00    +0.057 N 
ATOM     30  O   UNL     1       7.967  -9.951  -0.809  0.00  0.00    -0.126 OA
ATOM     31  O   UNL     1       8.805 -11.718  -0.016  0.00  0.00    -0.126 OA
ENDBRANCH  26  29
ENDBRANCH  21  27
ENDBRANCH  19  22
ENDBRANCH  18  19
ENDBRANCH  17  18
ENDBRANCH   1  17
TORSDOF 9
