REMARK  Name = ZINC14183371
REMARK  14 active torsions:
REMARK  status: ('A' for Active; 'I' for Inactive)
REMARK    1  A    between atoms: C_1  and  C_2
REMARK    2  A    between atoms: C_2  and  C_3
REMARK    3  A    between atoms: C_8  and  N_9
REMARK    4  A    between atoms: C_10  and  C_12
REMARK    5  A    between atoms: C_12  and  N_13
REMARK    6  A    between atoms: C_14  and  C_16
REMARK    7  A    between atoms: C_16  and  S_17
REMARK    8  A    between atoms: S_17  and  C_18
REMARK    9  A    between atoms: C_18  and  C_20
REMARK   10  A    between atoms: C_18  and  C_21
REMARK   11  A    between atoms: N_23  and  C_24
REMARK   12  A    between atoms: C_25  and  C_37
REMARK   13  A    between atoms: N_26  and  C_36
REMARK   14  A    between atoms: N_27  and  C_30
REMARK                            x       y       z     vdW  Elec       q    Type
REMARK                         _______ _______ _______ _____ _____    ______ ____
ROOT
ATOM      1  C   UNL     1      -1.915  -4.530   0.502  0.00  0.00    +0.130 C 
ATOM      2  C   UNL     1      -1.198  -4.793  -0.823  0.00  0.00    +0.029 C 
ENDROOT
BRANCH   1   3
ATOM      3  C   UNL     1      -3.328  -5.046   0.420  0.00  0.00    +0.230 C 
ATOM      4  O   UNL     1      -4.231  -4.295   0.115  0.00  0.00    -0.274 OA
ATOM      5  N   UNL     1      -3.589  -6.341   0.685  0.00  0.00    -0.279 N 
ATOM      6  H   UNL     1      -2.860  -6.958   0.853  0.00  0.00    +0.155 HD
BRANCH   5   7
ATOM      7  C   UNL     1      -4.921  -6.800   0.717  0.00  0.00    +0.121 A 
ATOM      8  C   UNL     1      -5.457  -7.761  -0.068  0.00  0.00    +0.059 A 
ATOM      9  N   UNL     1      -6.775  -7.916   0.270  0.00  0.00    -0.282 N 
ATOM     10  N   UNL     1      -7.093  -7.027   1.303  0.00  0.00    -0.216 N 
ATOM     11  C   UNL     1      -5.980  -6.328   1.610  0.00  0.00    +0.293 A 
ATOM     12  O   UNL     1      -5.877  -5.467   2.464  0.00  0.00    -0.264 OA
ATOM     13  C   UNL     1      -7.705  -8.863  -0.351  0.00  0.00    +0.171 C 
ATOM     14  C   UNL     1      -4.726  -8.534  -1.135  0.00  0.00    +0.067 C 
BRANCH  10  15
ATOM     15  C   UNL     1      -8.343  -6.891   1.915  0.00  0.00    +0.067 A 
ATOM     16  C   UNL     1      -9.487  -6.761   1.138  0.00  0.00    +0.028 A 
ATOM     17  C   UNL     1     -10.721  -6.632   1.746  0.00  0.00    +0.002 A 
ATOM     18  C   UNL     1     -10.816  -6.620   3.125  0.00  0.00    +0.000 A 
ATOM     19  C   UNL     1      -9.678  -6.744   3.901  0.00  0.00    +0.002 A 
ATOM     20  C   UNL     1      -8.442  -6.879   3.300  0.00  0.00    +0.028 A 
ENDBRANCH  10  15
ENDBRANCH   5   7
ENDBRANCH   1   3
BRANCH   1  21
ATOM     21  S   UNL     1      -1.940  -2.746   0.832  0.00  0.00    -0.139 S 
BRANCH  21  22
ATOM     22  C   UNL     1      -0.192  -2.315   1.051  0.00  0.00    +0.165 C 
BRANCH  22  24
ATOM     23  N   UNL     1       1.144  -0.290   1.534  0.00  0.00    -0.306 N 
ATOM     24  C   UNL     1      -0.070  -0.840   1.335  0.00  0.00    +0.223 C 
ATOM     25  O   UNL     1      -1.065  -0.148   1.385  0.00  0.00    -0.275 OA
ATOM     26  H   UNL     1       1.939  -0.844   1.495  0.00  0.00    +0.149 HD
BRANCH  23  27
ATOM     27  C   UNL     1       1.262   1.144   1.810  0.00  0.00    +0.200 C 
BRANCH  27  29
ATOM     28  N   UNL     1       3.066   2.776   2.258  0.00  0.00    -0.284 N 
ATOM     29  C   UNL     1       2.715   1.502   1.993  0.00  0.00    +0.234 C 
ATOM     30  O   UNL     1       3.567   0.644   1.901  0.00  0.00    -0.274 OA
ATOM     31  H   UNL     1       2.382   3.452   2.383  0.00  0.00    +0.155 HD
BRANCH  28  37
ATOM     32  C   UNL     1       4.830   4.411   2.037  0.00  0.00    -0.026 A 
ATOM     33  C   UNL     1       6.165   4.751   2.131  0.00  0.00    +0.005 A 
ATOM     34  C   UNL     1       7.092   3.810   2.538  0.00  0.00    +0.000 A 
ATOM     35  C   UNL     1       6.686   2.526   2.853  0.00  0.00    +0.002 A 
ATOM     36  C   UNL     1       5.352   2.182   2.766  0.00  0.00    +0.023 A 
ATOM     37  C   UNL     1       4.419   3.123   2.352  0.00  0.00    +0.037 A 
BRANCH  32  39
ATOM     38  C   UNL     1       3.190   6.098   2.821  0.00  0.00    +0.009 C 
ATOM     39  C   UNL     1       3.820   5.438   1.593  0.00  0.00    +0.033 C 
ENDBRANCH  32  39
ENDBRANCH  28  37
ENDBRANCH  27  29
ENDBRANCH  23  27
ENDBRANCH  22  24
ENDBRANCH  21  22
ENDBRANCH   1  21
TORSDOF 10
