REMARK  Name = ZINC36556117
REMARK  16 active torsions:
REMARK  status: ('A' for Active; 'I' for Inactive)
REMARK    1  A    between atoms: C_1  and  C_2
REMARK    2  A    between atoms: C_5  and  S_8
REMARK    3  A    between atoms: S_8  and  C_11
REMARK    4  A    between atoms: C_11  and  N_12
REMARK    5  A    between atoms: C_13  and  C_15
REMARK    6  A    between atoms: C_15  and  C_17
REMARK    7  A    between atoms: C_15  and  N_26
REMARK    8  A    between atoms: C_17  and  C_19
REMARK    9  A    between atoms: C_17  and  C_20
REMARK   10  A    between atoms: N_26  and  C_27
REMARK   11  A    between atoms: C_27  and  C_28
REMARK   12  A    between atoms: C_31  and  C_33
REMARK   13  A    between atoms: C_34  and  C_36
REMARK   14  A    between atoms: C_36  and  C_37
REMARK   15  A    between atoms: C_37  and  C_38
REMARK   16  A    between atoms: C_37  and  C_39
REMARK                            x       y       z     vdW  Elec       q    Type
REMARK                         _______ _______ _______ _____ _____    ______ ____
ROOT
ATOM      1  C   UNL     1       4.041  -5.053   3.335  0.00  0.00    +0.169 C 
ENDROOT
BRANCH   1   3
ATOM      2  N   UNL     1       3.934  -4.591   0.907  0.00  0.00    -0.295 N 
ATOM      3  C   UNL     1       3.930  -5.502   1.901  0.00  0.00    +0.235 C 
ATOM      4  O   UNL     1       3.838  -6.683   1.641  0.00  0.00    -0.274 OA
ATOM      5  H   UNL     1       3.926  -3.644   1.117  0.00  0.00    +0.150 HD
BRANCH   2   6
ATOM      6  C   UNL     1       3.949  -5.032  -0.490  0.00  0.00    +0.278 C 
BRANCH   6   7
ATOM      7  S   UNL     1       2.248  -5.137  -1.110  0.00  0.00    +0.013 S 
ATOM      8  O   UNL     1       1.438  -5.865  -0.197  0.00  0.00    -0.168 OA
ATOM      9  O   UNL     1       2.249  -5.461  -2.493  0.00  0.00    -0.168 OA
BRANCH   7  14
ATOM     10  C   UNL     1       0.149   0.514  -0.855  0.00  0.00    +0.044 C 
ATOM     11  C   UNL     1       0.673  -0.897  -0.919  0.00  0.00    -0.050 A 
ATOM     12  C   UNL     1       1.445  -1.300  -1.992  0.00  0.00    +0.005 A 
ATOM     13  C   UNL     1       1.926  -2.595  -2.051  0.00  0.00    +0.027 A 
ATOM     14  C   UNL     1       1.635  -3.486  -1.035  0.00  0.00    +0.090 A 
ATOM     15  C   UNL     1       0.864  -3.083   0.039  0.00  0.00    +0.027 A 
ATOM     16  C   UNL     1       0.387  -1.787   0.099  0.00  0.00    +0.005 A 
ENDBRANCH   7  14
ENDBRANCH   6   7
ENDBRANCH   2   6
ENDBRANCH   1   3
BRANCH   1  17
ATOM     17  N   UNL     1       4.337  -6.207   4.187  0.00  0.00    -0.282 N 
ATOM     18  C   UNL     1       5.540  -6.313   4.785  0.00  0.00    +0.217 C 
ATOM     19  O   UNL     1       5.816  -7.309   5.420  0.00  0.00    -0.276 OA
BRANCH  17  20
ATOM     20  C   UNL     1       3.324  -7.247   4.389  0.00  0.00    +0.182 C 
BRANCH  20  21
ATOM     21  C   UNL     1       3.626  -8.422   3.496  0.00  0.00    +0.122 A 
ATOM     22  C   UNL     1       4.546  -9.375   3.734  0.00  0.00    +0.046 A 
ATOM     23  C   UNL     1       4.493 -10.276   2.645  0.00  0.00    +0.045 A 
ATOM     24  C   UNL     1       3.545  -9.819   1.807  0.00  0.00    +0.102 A 
ATOM     25  O   UNL     1       3.019  -8.700   2.330  0.00  0.00    -0.463 OA
ATOM     26  C   UNL     1       3.138 -10.459   0.505  0.00  0.00    +0.086 C 
ENDBRANCH  20  21
ENDBRANCH  17  20
BRANCH  18  27
ATOM     27  C   UNL     1       6.542  -5.194   4.665  0.00  0.00    +0.099 C 
BRANCH  27  28
ATOM     28  C   UNL     1       7.868  -5.627   5.293  0.00  0.00    -0.008 C 
ATOM     29  C   UNL     1       8.483  -6.754   4.461  0.00  0.00    +0.008 C 
ATOM     30  C   UNL     1       8.829  -4.437   5.328  0.00  0.00    +0.008 C 
ENDBRANCH  27  28
ENDBRANCH  18  27
ENDBRANCH   1  17
BRANCH   1  31
ATOM     31  C   UNL     1       2.720  -4.419   3.774  0.00  0.00    +0.045 C 
ATOM     32  C   UNL     1       2.424  -3.198   2.901  0.00  0.00    +0.015 C 
BRANCH  31  33
ATOM     33  C   UNL     1       2.822  -3.993   5.216  0.00  0.00    -0.042 A 
ATOM     34  C   UNL     1       3.698  -2.988   5.579  0.00  0.00    +0.004 A 
ATOM     35  C   UNL     1       3.792  -2.597   6.902  0.00  0.00    +0.000 A 
ATOM     36  C   UNL     1       3.009  -3.211   7.861  0.00  0.00    +0.000 A 
ATOM     37  C   UNL     1       2.132  -4.216   7.498  0.00  0.00    +0.000 A 
ATOM     38  C   UNL     1       2.035  -4.604   6.175  0.00  0.00    +0.004 A 
ENDBRANCH  31  33
ENDBRANCH   1  31
TORSDOF 11
