REMARK  Name = ZINC20232944
REMARK  8 active torsions:
REMARK  status: ('A' for Active; 'I' for Inactive)
REMARK    1  A    between atoms: C_4  and  C_7
REMARK    2  A    between atoms: C_7  and  C_8
REMARK    3  A    between atoms: C_8  and  C_10
REMARK    4  A    between atoms: C_8  and  N_29
REMARK    5  A    between atoms: N_13  and  C_16
REMARK    6  A    between atoms: C_16  and  C_17
REMARK    7  A    between atoms: N_29  and  C_30
REMARK    8  A    between atoms: C_33  and  C_35
REMARK                            x       y       z     vdW  Elec       q    Type
REMARK                         _______ _______ _______ _____ _____    ______ ____
ROOT
ATOM      1  C   UNL     1      -0.788   1.771   1.214  0.00  0.00    +0.006 C 
ATOM      2  C   UNL     1      -2.209   1.200   1.180  0.00  0.00    -0.013 C 
ATOM      3  C   UNL     1      -2.943   1.744  -0.048  0.00  0.00    -0.078 C 
ATOM      4  N   UNL     1      -2.215   1.363  -1.264  0.00  0.00    +0.383 N 
ATOM      5  C   UNL     1      -0.864   1.939  -1.277  0.00  0.00    -0.078 C 
ATOM      6  C   UNL     1      -0.068   1.401  -0.086  0.00  0.00    -0.013 C 
ATOM      7  H   UNL     1      -2.112   0.268  -1.264  0.00  0.00    -0.081 HD
ENDROOT
BRANCH   1   8
ATOM      8  C   UNL     1      -0.029   1.183   2.405  0.00  0.00    +0.084 C 
BRANCH   8   9
ATOM      9  N   UNL     1      -0.673   1.606   3.651  0.00  0.00    -0.288 N 
ATOM     10  C   UNL     1      -1.032   0.688   4.570  0.00  0.00    +0.282 C 
ATOM     11  O   UNL     1      -1.551   1.041   5.613  0.00  0.00    -0.267 OA
BRANCH  10  12
ATOM     12  C   UNL     1      -0.799  -0.737   4.313  0.00  0.00    +0.189 A 
ATOM     13  C   UNL     1      -1.242  -1.774   5.083  0.00  0.00    +0.054 A 
ATOM     14  C   UNL     1      -0.792  -2.953   4.468  0.00  0.00    +0.042 A 
ATOM     15  C   UNL     1      -0.103  -2.589   3.364  0.00  0.00    +0.196 A 
ATOM     16  O   UNL     1      -0.114  -1.253   3.271  0.00  0.00    -0.458 OA
ENDBRANCH  10  12
BRANCH   9  17
ATOM     17  C   UNL     1      -0.925   3.028   3.898  0.00  0.00    +0.077 C 
ATOM     18  C   UNL     1      -1.203   3.455   5.341  0.00  0.00    +0.024 C 
ATOM     19  C   UNL     1      -2.341   3.432   4.317  0.00  0.00    +0.024 C 
ENDBRANCH   9  17
ENDBRANCH   8   9
BRANCH   8  20
ATOM     20  C   UNL     1       1.417   1.679   2.384  0.00  0.00    +0.058 C 
BRANCH  20  24
ATOM     21  C   UNL     1       3.626  -0.231   5.501  0.00  0.00    +0.000 A 
ATOM     22  C   UNL     1       3.561  -0.808   4.247  0.00  0.00    +0.000 A 
ATOM     23  C   UNL     1       2.847  -0.190   3.238  0.00  0.00    +0.004 A 
ATOM     24  C   UNL     1       2.196   1.005   3.483  0.00  0.00    -0.046 A 
ATOM     25  C   UNL     1       2.265   1.585   4.737  0.00  0.00    +0.004 A 
ATOM     26  C   UNL     1       2.976   0.964   5.747  0.00  0.00    +0.000 A 
ENDBRANCH  20  24
ENDBRANCH   8  20
ENDBRANCH   1   8
BRANCH   4  27
ATOM     27  C   UNL     1      -2.963   1.748  -2.468  0.00  0.00    -0.038 C 
BRANCH  27  28
ATOM     28  C   UNL     1      -2.088   1.569  -3.682  0.00  0.00    +0.001 A 
ATOM     29  C   UNL     1      -2.155   0.421  -4.400  0.00  0.00    +0.017 A 
ATOM     30  C   UNL     1      -1.292   0.279  -5.574  0.00  0.00    -0.001 A 
ATOM     31  C   UNL     1      -1.317  -0.882  -6.354  0.00  0.00    +0.010 A 
ATOM     32  C   UNL     1      -0.499  -0.984  -7.443  0.00  0.00    +0.001 A 
ATOM     33  C   UNL     1       0.357   0.054  -7.783  0.00  0.00    +0.002 A 
ATOM     34  C   UNL     1       0.399   1.207  -7.029  0.00  0.00    +0.026 A 
ATOM     35  C   UNL     1      -0.425   1.334  -5.915  0.00  0.00    +0.049 A 
ATOM     36  N   UNL     1      -0.405   2.476  -5.144  0.00  0.00    -0.322 N 
ATOM     37  H   UNL     1       0.274   3.302  -5.403  0.00  0.00    +0.169 HD
ATOM     38  C   UNL     1      -1.205   2.600  -4.071  0.00  0.00    +0.251 A 
ATOM     39  O   UNL     1      -1.164   3.626  -3.414  0.00  0.00    -0.268 OA
ENDBRANCH  27  28
ENDBRANCH   4  27
TORSDOF 8
