REMARK  Name = ZINC27569640
REMARK  8 active torsions:
REMARK  status: ('A' for Active; 'I' for Inactive)
REMARK    1  A    between atoms: C_1  and  C_2
REMARK    2  A    between atoms: C_16  and  C_17
REMARK    3  A    between atoms: N_19  and  C_20
REMARK    4  A    between atoms: C_20  and  C_21
REMARK    5  A    between atoms: C_21  and  C_23
REMARK    6  A    between atoms: C_21  and  N_31
REMARK    7  A    between atoms: C_28  and  O_29
REMARK    8  A    between atoms: O_29  and  C_30
REMARK                            x       y       z     vdW  Elec       q    Type
REMARK                         _______ _______ _______ _____ _____    ______ ____
ROOT
ATOM      1  C   UNL     1       3.179   5.627  -6.389  0.00  0.00    +0.251 C 
ATOM      2  O   UNL     1       3.094   6.779  -6.008  0.00  0.00    -0.270 OA
ATOM      3  N   UNL     1       3.584   5.362  -7.647  0.00  0.00    -0.312 N 
ATOM      4  H   UNL     1       3.661   4.320  -7.992  0.00  0.00    +0.149 HD
ENDROOT
BRANCH   1  20
ATOM      5  C   UNL     1       2.243   5.929  -3.514  0.00  0.00    +0.046 C 
ATOM      6  C   UNL     1       2.417   4.591  -4.186  0.00  0.00    -0.017 A 
ATOM      7  C   UNL     1       2.144   3.415  -3.484  0.00  0.00    +0.076 A 
ATOM      8  C   UNL     1       2.340   2.212  -4.199  0.00  0.00    +0.116 A 
ATOM      9  N   UNL     1       2.120   1.025  -3.648  0.00  0.00    -0.226 NA
ATOM     10  C   UNL     1       1.711   0.906  -2.416  0.00  0.00    +0.114 A 
ATOM     11  N   UNL     1       1.487   1.996  -1.627  0.00  0.00    -0.296 N 
ATOM     12  C   UNL     1       1.677   3.245  -2.089  0.00  0.00    +0.263 A 
ATOM     13  O   UNL     1       1.470   4.212  -1.378  0.00  0.00    -0.267 OA
ATOM     14  C   UNL     1       1.031   1.775  -0.249  0.00  0.00    +0.126 C 
ATOM     15  C   UNL     1      -0.434   1.346  -0.267  0.00  0.00    +0.022 C 
ATOM     16  C   UNL     1      -0.561  -0.164  -0.373  0.00  0.00    +0.002 C 
ATOM     17  C   UNL     1      -0.035  -0.693  -1.696  0.00  0.00    +0.008 C 
ATOM     18  C   UNL     1       1.470  -0.462  -1.821  0.00  0.00    +0.074 C 
ATOM     19  S   UNL     1       2.883   2.770  -5.795  0.00  0.00    -0.064 S 
ATOM     20  C   UNL     1       2.841   4.526  -5.481  0.00  0.00    +0.079 A 
ENDBRANCH   1  20
BRANCH   3  21
ATOM     21  C   UNL     1       3.922   6.461  -8.555  0.00  0.00    +0.094 C 
BRANCH  21  22
ATOM     22  C   UNL     1       4.467   5.891  -9.866  0.00  0.00    -0.017 C 
BRANCH  22  23
ATOM     23  C   UNL     1       4.923   7.020 -10.754  0.00  0.00    -0.018 A 
ATOM     24  C   UNL     1       6.238   7.440 -10.719  0.00  0.00    +0.005 A 
ATOM     25  C   UNL     1       6.658   8.473 -11.536  0.00  0.00    +0.000 A 
ATOM     26  C   UNL     1       5.760   9.094 -12.384  0.00  0.00    +0.004 A 
ATOM     27  C   UNL     1       4.442   8.682 -12.419  0.00  0.00    +0.046 A 
ATOM     28  C   UNL     1       4.020   7.642 -11.603  0.00  0.00    +0.122 A 
BRANCH  28  29
ATOM     29  O   UNL     1       2.724   7.234 -11.636  0.00  0.00    -0.495 OA
ATOM     30  C   UNL     1       1.850   7.920 -12.535  0.00  0.00    +0.277 C 
ENDBRANCH  28  29
ENDBRANCH  22  23
BRANCH  22  31
ATOM     31  N   UNL     1       5.603   5.004  -9.579  0.00  0.00    +0.385 N 
ATOM     32  C   UNL     1       6.406   4.756 -10.804  0.00  0.00    -0.078 C 
ATOM     33  C   UNL     1       7.773   4.289 -10.243  0.00  0.00    -0.020 C 
ATOM     34  C   UNL     1       7.952   5.174  -8.988  0.00  0.00    -0.020 C 
ATOM     35  C   UNL     1       6.530   5.627  -8.609  0.00  0.00    -0.078 C 
ATOM     36  H   UNL     1       5.166   4.077  -9.182  0.00  0.00    -0.081 HD
ENDBRANCH  22  31
ENDBRANCH  21  22
ENDBRANCH   3  21
TORSDOF 6
