REMARK  Name = ZINC63831402
REMARK  8 active torsions:
REMARK  status: ('A' for Active; 'I' for Inactive)
REMARK    1  A    between atoms: C_1  and  O_2
REMARK    2  A    between atoms: O_2  and  C_3
REMARK    3  A    between atoms: C_9  and  C_12
REMARK    4  A    between atoms: C_12  and  C_13
REMARK    5  A    between atoms: C_13  and  N_14
REMARK    6  A    between atoms: C_15  and  C_32
REMARK    7  A    between atoms: C_19  and  C_27
REMARK    8  A    between atoms: C_35  and  O_38
REMARK                            x       y       z     vdW  Elec       q    Type
REMARK                         _______ _______ _______ _____ _____    ______ ____
ROOT
ATOM      1  N   UNL     1      -0.752  -6.781  -1.509  0.00  0.00    -0.292 N 
ATOM      2  C   UNL     1      -0.428  -8.207  -1.837  0.00  0.00    +0.114 C 
ATOM      3  C   UNL     1      -1.545  -8.917  -1.171  0.00  0.00    +0.083 C 
ATOM      4  C   UNL     1      -1.744 -10.252  -0.550  0.00  0.00    +0.201 C 
ATOM      5  N   UNL     1      -2.801  -9.898   0.452  0.00  0.00    -0.180 NA
ATOM      6  N   UNL     1      -2.693  -8.695   0.816  0.00  0.00    -0.178 NA
ATOM      7  C   UNL     1      -1.498  -8.120   0.210  0.00  0.00    +0.221 C 
ATOM      8  C   UNL     1      -1.512  -6.735  -0.367  0.00  0.00    +0.243 C 
ATOM      9  O   UNL     1      -2.084  -5.767   0.086  0.00  0.00    -0.273 OA
ENDROOT
BRANCH   2  10
ATOM     10  C   UNL     1      -0.448  -8.439  -3.326  0.00  0.00    -0.026 A 
ATOM     11  C   UNL     1      -1.401  -7.814  -4.109  0.00  0.00    +0.009 A 
ATOM     12  C   UNL     1      -1.421  -8.026  -5.474  0.00  0.00    +0.046 A 
ATOM     13  C   UNL     1      -0.485  -8.865  -6.059  0.00  0.00    +0.117 A 
ATOM     14  C   UNL     1       0.471  -9.491  -5.271  0.00  0.00    +0.046 A 
ATOM     15  C   UNL     1       0.490  -9.272  -3.907  0.00  0.00    +0.009 A 
BRANCH  13  16
ATOM     16  O   UNL     1      -0.503  -9.075  -7.401  0.00  0.00    -0.507 OA
ATOM     17  H   UNL     1       0.035  -8.449  -7.905  0.00  0.00    +0.292 HD
ENDBRANCH  13  16
ENDBRANCH   2  10
BRANCH   4  18
ATOM     18  C   UNL     1      -2.248 -11.256  -1.554  0.00  0.00    +0.131 A 
ATOM     19  C   UNL     1      -1.503 -12.182  -2.183  0.00  0.00    +0.047 A 
ATOM     20  C   UNL     1      -2.375 -12.905  -3.029  0.00  0.00    +0.041 A 
ATOM     21  C   UNL     1      -3.602 -12.377  -2.866  0.00  0.00    +0.195 A 
ATOM     22  O   UNL     1      -3.520 -11.383  -1.967  0.00  0.00    -0.466 OA
ENDBRANCH   4  18
BRANCH   1  23
ATOM     23  C   UNL     1      -0.319  -5.616  -2.284  0.00  0.00    +0.113 C 
BRANCH  23  24
ATOM     24  C   UNL     1       1.031  -5.126  -1.758  0.00  0.00    +0.052 C 
BRANCH  24  31
ATOM     25  C   UNL     1       0.606  -0.607  -1.056  0.00  0.00    +0.121 A 
ATOM     26  C   UNL     1       1.172   0.195  -2.062  0.00  0.00    +0.047 A 
ATOM     27  C   UNL     1       1.790  -0.325  -3.144  0.00  0.00    +0.029 A 
ATOM     28  C   UNL     1       1.886  -1.780  -3.299  0.00  0.00    +0.043 A 
ATOM     29  N   UNL     1       2.419  -2.528  -4.232  0.00  0.00    -0.380 N 
ATOM     30  C   UNL     1       2.222  -3.937  -3.871  0.00  0.00    +0.144 C 
ATOM     31  C   UNL     1       1.476  -3.927  -2.555  0.00  0.00    -0.040 C 
ATOM     32  C   UNL     1       1.290  -2.626  -2.239  0.00  0.00    +0.002 A 
ATOM     33  C   UNL     1       0.646  -1.960  -1.102  0.00  0.00    +0.055 A 
ATOM     34  H   UNL     1       2.869  -2.205  -5.029  0.00  0.00    +0.160 HD
BRANCH  25  36
ATOM     35  C   UNL     1      -0.017   1.425   0.010  0.00  0.00    +0.277 C 
ATOM     36  O   UNL     1       0.002  -0.004   0.002  0.00  0.00    -0.495 OA
ENDBRANCH  25  36
ENDBRANCH  24  31
ENDBRANCH  23  24
ENDBRANCH   1  23
TORSDOF 7
