REMARK  Name = ZINC20905163
REMARK  13 active torsions:
REMARK  status: ('A' for Active; 'I' for Inactive)
REMARK    1  A    between atoms: C_1  and  C_2
REMARK    2  A    between atoms: C_3  and  C_11
REMARK    3  A    between atoms: C_4  and  C_10
REMARK    4  A    between atoms: N_5  and  C_7
REMARK    5  A    between atoms: C_7  and  C_8
REMARK    6  A    between atoms: C_7  and  C_9
REMARK    7  A    between atoms: N_12  and  N_13
REMARK    8  A    between atoms: C_16  and  S_19
REMARK    9  A    between atoms: S_19  and  C_20
REMARK   10  A    between atoms: C_20  and  C_21
REMARK   11  A    between atoms: N_23  and  C_24
REMARK   12  A    between atoms: C_24  and  C_25
REMARK   13  A    between atoms: C_24  and  C_31
REMARK                            x       y       z     vdW  Elec       q    Type
REMARK                         _______ _______ _______ _____ _____    ______ ____
ROOT
ATOM      1  N   UNL     1      -5.017  11.761  -6.063  0.00  0.00    -0.205 N 
ATOM      2  C   UNL     1      -4.487  10.763  -5.258  0.00  0.00    +0.232 A 
ATOM      3  N   UNL     1      -3.301  10.822  -4.580  0.00  0.00    -0.186 NA
ATOM      4  C   UNL     1      -3.140   9.644  -3.906  0.00  0.00    +0.211 A 
ATOM      5  N   UNL     1      -4.179   8.886  -4.162  0.00  0.00    -0.144 NA
ATOM      6  N   UNL     1      -5.035   9.597  -5.014  0.00  0.00    -0.245 N 
ATOM      7  H   UNL     1      -4.470  12.706  -6.199  0.00  0.00    +0.177 HD
ATOM      8  H   UNL     1      -6.006   9.341  -5.463  0.00  0.00    +0.192 HD
ENDROOT
BRANCH   1  10
ATOM      9  C   UNL     1      -6.744  12.499  -7.455  0.00  0.00    +0.141 C 
ATOM     10  N   UNL     1      -6.248  11.565  -6.702  0.00  0.00    -0.187 NA
BRANCH   9  13
ATOM     11  C   UNL     1      -8.544   9.896  -7.256  0.00  0.00    +0.068 C 
ATOM     12  C   UNL     1      -8.852  11.140  -8.048  0.00  0.00    +0.069 A 
ATOM     13  C   UNL     1      -8.041  12.293  -8.128  0.00  0.00    +0.038 A 
ATOM     14  C   UNL     1      -8.688  13.192  -8.947  0.00  0.00    +0.045 A 
ATOM     15  N   UNL     1      -9.836  12.612  -9.355  0.00  0.00    -0.265 N 
ATOM     16  N   UNL     1      -9.915  11.339  -8.779  0.00  0.00    -0.175 NA
ATOM     17  C   UNL     1      -8.202  14.568  -9.322  0.00  0.00    +0.066 C 
BRANCH  15  18
ATOM     18  C   UNL     1     -10.832  13.215 -10.244  0.00  0.00    +0.101 C 
ATOM     19  C   UNL     1     -10.994  12.345 -11.493  0.00  0.00    +0.032 C 
ATOM     20  C   UNL     1     -12.173  13.315  -9.515  0.00  0.00    +0.032 C 
ENDBRANCH  15  18
ENDBRANCH   9  13
ENDBRANCH   1  10
BRANCH   4  21
ATOM     21  S   UNL     1      -1.773   9.216  -2.881  0.00  0.00    -0.075 S 
BRANCH  21  22
ATOM     22  C   UNL     1      -2.169   7.544  -2.298  0.00  0.00    +0.173 C 
BRANCH  22  23
ATOM     23  C   UNL     1      -1.065   7.052  -1.398  0.00  0.00    +0.224 C 
ATOM     24  O   UNL     1      -0.106   7.759  -1.172  0.00  0.00    -0.275 OA
ATOM     25  N   UNL     1      -1.143   5.826  -0.844  0.00  0.00    -0.304 N 
ATOM     26  H   UNL     1      -2.013   5.184  -1.049  0.00  0.00    +0.150 HD
BRANCH  25  27
ATOM     27  C   UNL     1      -0.070   5.347   0.031  0.00  0.00    +0.134 C 
BRANCH  27  28
ATOM     28  C   UNL     1      -0.050   3.840   0.023  0.00  0.00    -0.023 A 
ATOM     29  C   UNL     1       1.156   3.165   0.008  0.00  0.00    +0.006 A 
ATOM     30  C   UNL     1       1.175   1.783   0.000  0.00  0.00    +0.000 A 
ATOM     31  C   UNL     1      -0.013   1.076   0.008  0.00  0.00    +0.000 A 
ATOM     32  C   UNL     1      -1.219   1.751   0.017  0.00  0.00    +0.000 A 
ATOM     33  C   UNL     1      -1.238   3.133   0.030  0.00  0.00    +0.006 A 
ENDBRANCH  27  28
BRANCH  27  34
ATOM     34  C   UNL     1      -0.311   5.838   1.435  0.00  0.00    -0.023 A 
ATOM     35  C   UNL     1      -1.593   5.858   1.951  0.00  0.00    +0.006 A 
ATOM     36  C   UNL     1      -1.813   6.304   3.241  0.00  0.00    +0.000 A 
ATOM     37  C   UNL     1      -0.751   6.740   4.011  0.00  0.00    +0.000 A 
ATOM     38  C   UNL     1       0.530   6.726   3.494  0.00  0.00    +0.000 A 
ATOM     39  C   UNL     1       0.751   6.275   2.206  0.00  0.00    +0.006 A 
ENDBRANCH  27  34
ENDBRANCH  25  27
ENDBRANCH  22  23
ENDBRANCH  21  22
ENDBRANCH   4  21
TORSDOF 9
