REMARK  Name = ZINC09493637
REMARK  7 active torsions:
REMARK  status: ('A' for Active; 'I' for Inactive)
REMARK    1  A    between atoms: C_3  and  S_24
REMARK    2  A    between atoms: C_6  and  C_7
REMARK    3  A    between atoms: C_8  and  C_9
REMARK    4  A    between atoms: N_11  and  C_12
REMARK    5  A    between atoms: C_12  and  C_13
REMARK    6  A    between atoms: C_13  and  N_70
REMARK    7  A    between atoms: S_24  and  N_27
REMARK                            x       y       z     vdW  Elec       q    Type
REMARK                         _______ _______ _______ _____ _____    ______ ____
ROOT
ATOM      1  C   UNL     1      -0.311  -0.473   0.544  0.00  0.00    +0.237 C 
ATOM      2  O   UNL     1      -1.211  -1.260   0.771  0.00  0.00    -0.271 OA
ATOM      3  N   UNL     1       0.909  -0.927   0.195  0.00  0.00    -0.313 N 
ATOM      4  H   UNL     1       1.627  -0.299   0.014  0.00  0.00    +0.149 HD
ENDROOT
BRANCH   1   6
ATOM      5  C   UNL     1      -1.776   1.421   0.994  0.00  0.00    +0.013 C 
ATOM      6  C   UNL     1      -0.554   0.967   0.650  0.00  0.00    +0.068 C 
BRANCH   5  12
ATOM      7  C   UNL     1      -0.985   3.776   0.852  0.00  0.00    +0.010 A 
ATOM      8  C   UNL     1      -1.223   5.131   0.950  0.00  0.00    +0.029 A 
ATOM      9  C   UNL     1      -2.479   5.593   1.303  0.00  0.00    +0.106 A 
ATOM     10  C   UNL     1      -3.506   4.701   1.556  0.00  0.00    +0.029 A 
ATOM     11  C   UNL     1      -3.286   3.344   1.457  0.00  0.00    +0.010 A 
ATOM     12  C   UNL     1      -2.020   2.869   1.101  0.00  0.00    -0.025 A 
BRANCH   9  13
ATOM     13  S   UNL     1      -2.771   7.326   1.431  0.00  0.00    +0.061 S 
ATOM     14  O   UNL     1      -1.798   7.963   0.615  0.00  0.00    -0.153 OA
ATOM     15  O   UNL     1      -4.166   7.518   1.244  0.00  0.00    -0.153 OA
BRANCH  13  16
ATOM     16  N   UNL     1      -2.438   7.764   2.993  0.00  0.00    -0.172 NA
ATOM     17  C   UNL     1      -3.488   7.745   4.025  0.00  0.00    +0.137 C 
ATOM     18  C   UNL     1      -2.955   6.962   5.236  0.00  0.00    +0.177 C 
ATOM     19  O   UNL     1      -1.691   7.505   5.626  0.00  0.00    -0.377 OA
ATOM     20  C   UNL     1      -0.672   7.391   4.630  0.00  0.00    +0.177 C 
ATOM     21  C   UNL     1      -1.087   8.190   3.390  0.00  0.00    +0.137 C 
ENDBRANCH  13  16
ENDBRANCH   9  13
ENDBRANCH   5  12
ENDBRANCH   1   6
BRANCH   3  22
ATOM     22  C   UNL     1       1.152  -2.368   0.088  0.00  0.00    +0.092 C 
BRANCH  22  23
ATOM     23  C   UNL     1       2.641  -2.616  -0.163  0.00  0.00    -0.050 C 
ATOM     24  C   UNL     1       3.100  -1.789  -1.365  0.00  0.00    -0.010 C 
ATOM     25  C   UNL     1       2.299  -2.198  -2.602  0.00  0.00    -0.001 C 
ATOM     26  C   UNL     1       2.526  -3.683  -2.889  0.00  0.00    -0.000 C 
ATOM     27  C   UNL     1       2.066  -4.511  -1.687  0.00  0.00    -0.001 C 
ATOM     28  C   UNL     1       2.868  -4.102  -0.450  0.00  0.00    -0.010 C 
BRANCH  23  34
ATOM     29  C   UNL     1       2.971  -2.975   2.208  0.00  0.00    -0.078 C 
ATOM     30  C   UNL     1       3.887  -2.648   3.390  0.00  0.00    -0.019 C 
ATOM     31  C   UNL     1       3.836  -1.144   3.669  0.00  0.00    -0.004 C 
ATOM     32  C   UNL     1       4.251  -0.384   2.406  0.00  0.00    -0.019 C 
ATOM     33  C   UNL     1       3.324  -0.776   1.253  0.00  0.00    -0.078 C 
ATOM     34  N   UNL     1       3.439  -2.231   1.019  0.00  0.00    +0.384 N 
ATOM     35  H   UNL     1       4.424  -2.464   0.847  0.00  0.00    -0.081 HD
ENDBRANCH  23  34
ENDBRANCH  22  23
ENDBRANCH   3  22
TORSDOF 7
