REMARK  Name = ZINC36735497
REMARK  7 active torsions:
REMARK  status: ('A' for Active; 'I' for Inactive)
REMARK    1  A    between atoms: C_1  and  C_2
REMARK    2  A    between atoms: C_2  and  C_4
REMARK    3  A    between atoms: C_2  and  N_14
REMARK    4  A    between atoms: C_15  and  C_17
REMARK    5  A    between atoms: C_17  and  C_18
REMARK    6  A    between atoms: C_21  and  S_23
REMARK    7  A    between atoms: S_23  and  N_26
REMARK                            x       y       z     vdW  Elec       q    Type
REMARK                         _______ _______ _______ _____ _____    ______ ____
ROOT
ATOM      1  N   UNL     1       0.592  -0.609  -1.195  0.00  0.00    -0.308 N 
ATOM      2  C   UNL     1      -0.113  -0.654  -2.343  0.00  0.00    +0.218 C 
ATOM      3  O   UNL     1      -1.234  -0.195  -2.386  0.00  0.00    -0.275 OA
ATOM      4  H   UNL     1       1.489  -0.976  -1.161  0.00  0.00    +0.149 HD
ENDROOT
BRANCH   1   6
ATOM      5  C   UNL     1       0.268   1.503  -0.004  0.00  0.00    +0.033 C 
ATOM      6  C   UNL     1       0.002  -0.004   0.002  0.00  0.00    +0.101 C 
BRANCH   6   7
ATOM      7  C   UNL     1       0.620  -0.619   1.231  0.00  0.00    -0.020 A 
ATOM      8  C   UNL     1       1.876  -1.141   1.178  0.00  0.00    +0.006 A 
ATOM      9  C   UNL     1       2.464  -1.714   2.304  0.00  0.00    +0.001 A 
ATOM     10  C   UNL     1       1.799  -1.768   3.490  0.00  0.00    +0.008 A 
ATOM     11  C   UNL     1       0.501  -1.239   3.584  0.00  0.00    -0.018 A 
ATOM     12  C   UNL     1      -0.095  -0.651   2.440  0.00  0.00    -0.013 A 
ATOM     13  C   UNL     1      -1.391  -0.117   2.536  0.00  0.00    +0.009 A 
ATOM     14  C   UNL     1      -2.054  -0.165   3.724  0.00  0.00    +0.001 A 
ATOM     15  C   UNL     1      -1.466  -0.738   4.851  0.00  0.00    +0.001 A 
ATOM     16  C   UNL     1      -0.217  -1.277   4.792  0.00  0.00    +0.008 A 
ENDBRANCH   6   7
ENDBRANCH   1   6
BRANCH   2  17
ATOM     17  C   UNL     1       0.493  -1.276  -3.575  0.00  0.00    +0.138 C 
BRANCH  17  18
ATOM     18  C   UNL     1      -0.492  -1.201  -4.713  0.00  0.00    +0.000 A 
ATOM     19  C   UNL     1      -0.652  -0.225  -5.639  0.00  0.00    +0.013 A 
ATOM     20  C   UNL     1      -1.632  -0.370  -6.603  0.00  0.00    +0.036 A 
ATOM     21  C   UNL     1      -2.404  -1.484  -6.593  0.00  0.00    +0.143 A 
ATOM     22  S   UNL     1      -1.745  -2.377  -5.195  0.00  0.00    -0.073 S 
BRANCH  21  23
ATOM     23  S   UNL     1      -3.713  -1.937  -7.682  0.00  0.00    +0.067 S 
ATOM     24  O   UNL     1      -4.539  -2.847  -6.968  0.00  0.00    -0.152 OA
ATOM     25  O   UNL     1      -4.214  -0.730  -8.239  0.00  0.00    -0.152 OA
BRANCH  23  26
ATOM     26  N   UNL     1      -3.039  -2.791  -8.931  0.00  0.00    -0.176 NA
ATOM     27  C   UNL     1      -2.564  -2.101 -10.138  0.00  0.00    +0.109 C 
ATOM     28  C   UNL     1      -1.107  -2.501 -10.393  0.00  0.00    +0.017 C 
ATOM     29  C   UNL     1      -1.005  -4.026 -10.459  0.00  0.00    +0.003 C 
ATOM     30  C   UNL     1      -1.444  -4.627  -9.122  0.00  0.00    +0.017 C 
ATOM     31  C   UNL     1      -2.899  -4.251  -8.850  0.00  0.00    +0.109 C 
ENDBRANCH  23  26
ENDBRANCH  21  23
ENDBRANCH  17  18
ENDBRANCH   2  17
TORSDOF 6
