REMARK  Name = ZINC25148074
REMARK  16 active torsions:
REMARK  status: ('A' for Active; 'I' for Inactive)
REMARK    1  A    between atoms: C_1  and  C_2
REMARK    2  A    between atoms: C_2  and  C_3
REMARK    3  A    between atoms: C_6  and  C_9
REMARK    4  A    between atoms: C_11  and  C_14
REMARK    5  A    between atoms: C_14  and  C_15
REMARK    6  A    between atoms: C_15  and  C_16
REMARK    7  A    between atoms: N_18  and  C_19
REMARK    8  A    between atoms: C_21  and  S_28
REMARK    9  A    between atoms: C_24  and  N_25
REMARK   10  A    between atoms: N_25  and  C_26
REMARK   11  A    between atoms: N_25  and  C_27
REMARK   12  A    between atoms: S_28  and  N_31
REMARK   13  A    between atoms: N_31  and  C_32
REMARK   14  A    between atoms: N_31  and  C_34
REMARK   15  A    between atoms: C_32  and  C_33
REMARK   16  A    between atoms: C_34  and  C_35
REMARK                            x       y       z     vdW  Elec       q    Type
REMARK                         _______ _______ _______ _____ _____    ______ ____
ROOT
ATOM      1  C   UNL     1      -0.203   0.115   0.532  0.00  0.00    +0.218 C 
ATOM      2  O   UNL     1       0.740  -0.502   0.982  0.00  0.00    -0.275 OA
ATOM      3  N   UNL     1      -0.016   1.344   0.009  0.00  0.00    -0.284 N 
ATOM      4  H   UNL     1      -0.856   1.873  -0.465  0.00  0.00    +0.155 HD
ENDROOT
BRANCH   3   5
ATOM      5  C   UNL     1       1.247   1.947   0.071  0.00  0.00    +0.056 A 
ATOM      6  C   UNL     1       2.393   1.173  -0.032  0.00  0.00    +0.053 A 
ATOM      7  C   UNL     1       3.639   1.770   0.029  0.00  0.00    +0.107 A 
ATOM      8  C   UNL     1       3.746   3.139   0.192  0.00  0.00    +0.030 A 
ATOM      9  C   UNL     1       2.610   3.918   0.295  0.00  0.00    +0.027 A 
ATOM     10  C   UNL     1       1.356   3.328   0.230  0.00  0.00    +0.051 A 
BRANCH  10  11
ATOM     11  N   UNL     1       0.204   4.115   0.329  0.00  0.00    -0.335 N 
ATOM     12  C   UNL     1       0.167   4.837   1.608  0.00  0.00    +0.129 C 
ATOM     13  C   UNL     1       0.103   5.046  -0.803  0.00  0.00    +0.129 C 
ENDBRANCH  10  11
BRANCH   7  14
ATOM     14  S   UNL     1       5.093   0.784  -0.103  0.00  0.00    +0.061 S 
ATOM     15  O   UNL     1       6.136   1.512   0.530  0.00  0.00    -0.153 OA
ATOM     16  O   UNL     1       4.730  -0.530   0.298  0.00  0.00    -0.153 OA
BRANCH  14  17
ATOM     17  N   UNL     1       5.483   0.698  -1.710  0.00  0.00    -0.177 NA
BRANCH  17  18
ATOM     18  C   UNL     1       6.372   1.701  -2.302  0.00  0.00    +0.106 C 
ATOM     19  C   UNL     1       7.808   1.174  -2.301  0.00  0.00    +0.022 C 
ENDBRANCH  17  18
BRANCH  17  20
ATOM     20  C   UNL     1       4.939  -0.380  -2.539  0.00  0.00    +0.106 C 
ATOM     21  C   UNL     1       3.674   0.110  -3.247  0.00  0.00    +0.022 C 
ENDBRANCH  17  20
ENDBRANCH  14  17
ENDBRANCH   7  14
ENDBRANCH   3   5
BRANCH   1  22
ATOM     22  C   UNL     1      -1.582  -0.492   0.556  0.00  0.00    +0.105 C 
BRANCH  22  23
ATOM     23  C   UNL     1      -1.516  -1.880   1.196  0.00  0.00    +0.108 C 
BRANCH  23  26
ATOM     24  C   UNL     1      -4.670  -3.543   0.738  0.00  0.00    +0.202 A 
ATOM     25  N   UNL     1      -3.435  -3.230   0.285  0.00  0.00    -0.191 NA
ATOM     26  C   UNL     1      -2.896  -2.487   1.220  0.00  0.00    +0.228 A 
ATOM     27  O   UNL     1      -3.796  -2.375   2.202  0.00  0.00    -0.338 OA
ATOM     28  N   UNL     1      -4.807  -2.978   1.910  0.00  0.00    -0.056 NA
BRANCH  24  32
ATOM     29  C   UNL     1      -7.569  -5.917  -1.272  0.00  0.00    -0.048 A 
ATOM     30  C   UNL     1      -7.857  -5.384  -0.029  0.00  0.00    +0.004 A 
ATOM     31  C   UNL     1      -6.920  -4.613   0.628  0.00  0.00    +0.012 A 
ATOM     32  C   UNL     1      -5.682  -4.372   0.037  0.00  0.00    +0.022 A 
ATOM     33  C   UNL     1      -5.399  -4.907  -1.218  0.00  0.00    +0.012 A 
ATOM     34  C   UNL     1      -6.341  -5.681  -1.864  0.00  0.00    +0.004 A 
BRANCH  29  36
ATOM     35  C   UNL     1      -9.476  -5.859  -2.857  0.00  0.00    +0.009 C 
ATOM     36  C   UNL     1      -8.597  -6.758  -1.985  0.00  0.00    +0.032 C 
ENDBRANCH  29  36
ENDBRANCH  24  32
ENDBRANCH  23  26
ENDBRANCH  22  23
ENDBRANCH   1  22
TORSDOF 11
