REMARK  Name = ZINC10349508
REMARK  6 active torsions:
REMARK  status: ('A' for Active; 'I' for Inactive)
REMARK    1  A    between atoms: C_1  and  C_2
REMARK    2  A    between atoms: C_18  and  S_19
REMARK    3  A    between atoms: S_19  and  C_20
REMARK    4  A    between atoms: C_20  and  C_22
REMARK    5  A    between atoms: C_20  and  C_23
REMARK    6  A    between atoms: N_25  and  C_26
REMARK                            x       y       z     vdW  Elec       q    Type
REMARK                         _______ _______ _______ _____ _____    ______ ____
ROOT
ATOM      1  C   UNL     1       1.202   0.984   8.155  0.00  0.00    +0.044 C 
ATOM      2  C   UNL     1       1.708   0.460   6.836  0.00  0.00    -0.046 A 
ATOM      3  C   UNL     1       1.954  -0.895   6.658  0.00  0.00    +0.023 A 
ATOM      4  C   UNL     1       2.418  -1.343   5.437  0.00  0.00    +0.113 A 
ATOM      5  N   UNL     1       2.629  -0.501   4.443  0.00  0.00    -0.237 NA
ATOM      6  C   UNL     1       2.407   0.797   4.574  0.00  0.00    +0.142 A 
ATOM      7  C   UNL     1       1.945   1.318   5.777  0.00  0.00    +0.050 A 
ATOM      8  N   UNL     1       2.645   1.652   3.496  0.00  0.00    -0.239 N 
ATOM      9  C   UNL     1       3.861   2.229   3.352  0.00  0.00    +0.268 A 
ATOM     10  O   UNL     1       4.758   2.018   4.148  0.00  0.00    -0.267 OA
ATOM     11  C   UNL     1       4.057   3.125   2.205  0.00  0.00    +0.065 A 
ATOM     12  C   UNL     1       5.271   3.770   1.973  0.00  0.00    +0.015 A 
ATOM     13  C   UNL     1       5.399   4.594   0.888  0.00  0.00    +0.001 A 
ATOM     14  C   UNL     1       4.336   4.792   0.018  0.00  0.00    +0.002 A 
ATOM     15  C   UNL     1       3.135   4.172   0.221  0.00  0.00    +0.028 A 
ATOM     16  C   UNL     1       2.972   3.325   1.320  0.00  0.00    +0.079 A 
ATOM     17  N   UNL     1       1.800   2.690   1.559  0.00  0.00    -0.223 NA
ATOM     18  C   UNL     1       1.649   1.896   2.590  0.00  0.00    +0.179 A 
ENDROOT
BRANCH  18  19
ATOM     19  S   UNL     1       0.089   1.110   2.824  0.00  0.00    -0.075 S 
BRANCH  19  20
ATOM     20  C   UNL     1      -0.811   1.768   1.399  0.00  0.00    +0.137 C 
ATOM     21  C   UNL     1      -0.169   1.256   0.108  0.00  0.00    +0.029 C 
BRANCH  20  22
ATOM     22  C   UNL     1      -2.247   1.316   1.459  0.00  0.00    +0.227 C 
ATOM     23  O   UNL     1      -2.552   0.354   2.133  0.00  0.00    -0.275 OA
ATOM     24  N   UNL     1      -3.193   1.979   0.764  0.00  0.00    -0.309 N 
ATOM     25  H   UNL     1      -2.949   2.748   0.226  0.00  0.00    +0.149 HD
BRANCH  24  26
ATOM     26  C   UNL     1      -4.589   1.539   0.823  0.00  0.00    +0.035 C 
ATOM     27  C   UNL     1      -5.082   1.600   2.270  0.00  0.00    +0.029 C 
ATOM     28  C   UNL     1      -6.540   1.140   2.331  0.00  0.00    -0.008 C 
ATOM     29  C   UNL     1      -7.401   2.057   1.460  0.00  0.00    +0.007 C 
ATOM     30  C   UNL     1      -6.908   1.996   0.013  0.00  0.00    -0.008 C 
ATOM     31  C   UNL     1      -5.450   2.456  -0.048  0.00  0.00    +0.029 C 
ATOM     32  C   UNL     1      -7.011   0.559  -0.501  0.00  0.00    +0.007 C 
ATOM     33  C   UNL     1      -6.151  -0.358   0.370  0.00  0.00    -0.008 C 
ATOM     34  C   UNL     1      -6.644  -0.297   1.817  0.00  0.00    +0.007 C 
ATOM     35  C   UNL     1      -4.692   0.102   0.309  0.00  0.00    +0.029 C 
ENDBRANCH  24  26
ENDBRANCH  20  22
ENDBRANCH  19  20
ENDBRANCH  18  19
TORSDOF 4
