REMARK  Name = ZINC63804418
REMARK  8 active torsions:
REMARK  status: ('A' for Active; 'I' for Inactive)
REMARK    1  A    between atoms: C_1  and  C_2
REMARK    2  A    between atoms: C_7  and  C_13
REMARK    3  A    between atoms: C_8  and  C_12
REMARK    4  A    between atoms: C_13  and  C_14
REMARK    5  A    between atoms: C_14  and  N_15
REMARK    6  A    between atoms: C_16  and  C_18
REMARK    7  A    between atoms: C_24  and  C_29
REMARK    8  A    between atoms: C_29  and  C_30
REMARK                            x       y       z     vdW  Elec       q    Type
REMARK                         _______ _______ _______ _____ _____    ______ ____
ROOT
ATOM      1  N   UNL     1       0.098  -6.430   1.988  0.00  0.00    -0.311 N 
ATOM      2  C   UNL     1       0.107  -7.394   1.046  0.00  0.00    +0.251 C 
ATOM      3  O   UNL     1       0.098  -7.093  -0.132  0.00  0.00    -0.270 OA
ATOM      4  H   UNL     1       0.105  -6.670   2.928  0.00  0.00    +0.149 HD
ENDROOT
BRANCH   2   5
ATOM      5  C   UNL     1       0.127  -8.812   1.444  0.00  0.00    +0.122 A 
ATOM      6  C   UNL     1       0.143  -9.827   0.497  0.00  0.00    +0.031 A 
ATOM      7  C   UNL     1       0.130 -11.169   0.957  0.00  0.00    +0.019 A 
ATOM      8  C   UNL     1       0.346 -12.229   0.064  0.00  0.00    +0.011 A 
ATOM      9  C   UNL     1       0.372 -13.512   0.529  0.00  0.00    +0.001 A 
ATOM     10  C   UNL     1       0.180 -13.779   1.878  0.00  0.00    +0.007 A 
ATOM     11  C   UNL     1      -0.053 -12.753   2.771  0.00  0.00    -0.001 A 
ATOM     12  C   UNL     1      -0.092 -11.441   2.320  0.00  0.00    +0.143 A 
ATOM     13  O   UNL     1      -0.363 -10.429   3.179  0.00  0.00    -0.421 OA
ATOM     14  C   UNL     1       0.138  -9.209   2.864  0.00  0.00    +0.350 A 
ATOM     15  O   UNL     1       0.579  -8.467   3.721  0.00  0.00    -0.244 OA
BRANCH  11  16
ATOM     16  C   UNL     1      -0.265 -13.056   4.232  0.00  0.00    +0.065 C 
BRANCH  16  17
ATOM     17  C   UNL     1      -1.742 -13.155   4.515  0.00  0.00    -0.030 C 
ATOM     18  C   UNL     1      -2.230 -14.232   5.079  0.00  0.00    +0.004 C 
ENDBRANCH  16  17
ENDBRANCH  11  16
ENDBRANCH   2   5
BRANCH   1  19
ATOM     19  C   UNL     1       0.077  -5.020   1.593  0.00  0.00    +0.109 C 
BRANCH  19  20
ATOM     20  C   UNL     1       0.070  -4.139   2.844  0.00  0.00    +0.052 C 
BRANCH  20  27
ATOM     21  C   UNL     1      -0.018   1.503   0.010  0.00  0.00    +0.046 C 
ATOM     22  C   UNL     1       0.002  -0.004   0.002  0.00  0.00    -0.027 A 
ATOM     23  C   UNL     1       0.006  -0.669  -1.173  0.00  0.00    +0.005 A 
ATOM     24  C   UNL     1       0.024  -2.068  -1.251  0.00  0.00    +0.001 A 
ATOM     25  C   UNL     1       0.040  -2.842  -0.142  0.00  0.00    +0.010 A 
ATOM     26  C   UNL     1       0.037  -2.197   1.177  0.00  0.00    -0.001 A 
ATOM     27  C   UNL     1       0.049  -2.688   2.437  0.00  0.00    -0.037 C 
ATOM     28  C   UNL     1       0.037  -1.486   3.355  0.00  0.00    +0.103 C 
ATOM     29  N   UNL     1       0.018  -0.310   2.478  0.00  0.00    -0.378 N 
ATOM     30  C   UNL     1       0.023  -0.718   1.232  0.00  0.00    +0.046 A 
ATOM     31  C   UNL     1       1.295  -1.476   4.226  0.00  0.00    +0.035 C 
ATOM     32  H   UNL     1       0.007   0.614   2.771  0.00  0.00    +0.160 HD
ENDBRANCH  20  27
ENDBRANCH  19  20
ENDBRANCH   1  19
TORSDOF 6
