REMARK  Name = ZINC39667159
REMARK  8 active torsions:
REMARK  status: ('A' for Active; 'I' for Inactive)
REMARK    1  A    between atoms: C_1  and  C_2
REMARK    2  A    between atoms: C_5  and  C_9
REMARK    3  A    between atoms: C_6  and  C_8
REMARK    4  A    between atoms: C_9  and  C_10
REMARK    5  A    between atoms: C_10  and  N_11
REMARK    6  A    between atoms: C_12  and  C_14
REMARK    7  A    between atoms: C_25  and  C_27
REMARK    8  A    between atoms: C_30  and  C_32
REMARK                            x       y       z     vdW  Elec       q    Type
REMARK                         _______ _______ _______ _____ _____    ______ ____
ROOT
ATOM      1  C   UNL     1      -2.485  -8.466   0.197  0.00  0.00    +0.100 C 
ATOM      2  C   UNL     1      -1.599  -8.998   1.346  0.00  0.00    +0.121 C 
ATOM      3  N   UNL     1      -2.545  -9.265   2.455  0.00  0.00    -0.294 N 
ATOM      4  C   UNL     1      -3.741  -9.837   1.791  0.00  0.00    +0.115 C 
ATOM      5  C   UNL     1      -3.889  -9.021   0.491  0.00  0.00    -0.004 C 
ATOM      6  C   UNL     1      -4.349  -9.924  -0.649  0.00  0.00    -0.010 C 
ATOM      7  C   UNL     1      -5.771 -10.416  -0.362  0.00  0.00    -0.082 C 
ATOM      8  N   UNL     1      -6.672  -9.266  -0.228  0.00  0.00    +0.379 N 
ATOM      9  C   UNL     1      -6.277  -8.453   0.929  0.00  0.00    -0.082 C 
ATOM     10  C   UNL     1      -4.877  -7.877   0.697  0.00  0.00    -0.010 C 
ATOM     11  C   UNL     1      -2.360  -9.040   3.771  0.00  0.00    +0.282 C 
ATOM     12  O   UNL     1      -3.240  -9.315   4.566  0.00  0.00    -0.267 OA
ATOM     13  H   UNL     1      -6.625  -8.703  -1.064  0.00  0.00    -0.086 HD
ATOM     14  H   UNL     1      -7.617  -9.594  -0.100  0.00  0.00    -0.086 HD
ENDROOT
BRANCH  11  15
ATOM     15  C   UNL     1      -1.099  -8.463   4.245  0.00  0.00    +0.190 A 
ATOM     16  C   UNL     1      -0.778  -8.188   5.556  0.00  0.00    +0.055 A 
ATOM     17  C   UNL     1       0.513  -7.651   5.551  0.00  0.00    +0.051 A 
ATOM     18  C   UNL     1       0.929  -7.618   4.250  0.00  0.00    +0.139 A 
ATOM     19  O   UNL     1      -0.048  -8.114   3.473  0.00  0.00    -0.450 OA
BRANCH  18  20
ATOM     20  C   UNL     1       2.238  -7.124   3.778  0.00  0.00    +0.052 A 
ATOM     21  C   UNL     1       2.711  -5.878   4.197  0.00  0.00    +0.014 A 
ATOM     22  C   UNL     1       3.934  -5.423   3.752  0.00  0.00    +0.001 A 
ATOM     23  C   UNL     1       4.694  -6.196   2.891  0.00  0.00    +0.003 A 
ATOM     24  C   UNL     1       4.233  -7.430   2.470  0.00  0.00    +0.039 A 
ATOM     25  C   UNL     1       3.012  -7.903   2.912  0.00  0.00    +0.134 A 
ATOM     26  F   UNL     1       2.566  -9.111   2.505  0.00  0.00    -0.205 F 
ENDBRANCH  18  20
ENDBRANCH  11  15
BRANCH   1  28
ATOM     27  N   UNL     1      -2.698  -6.281  -0.943  0.00  0.00    -0.315 N 
ATOM     28  C   UNL     1      -2.505  -6.959   0.206  0.00  0.00    +0.218 C 
ATOM     29  O   UNL     1      -2.346  -6.356   1.246  0.00  0.00    -0.275 OA
ATOM     30  H   UNL     1      -2.825  -6.763  -1.775  0.00  0.00    +0.149 HD
BRANCH  27  31
ATOM     31  C   UNL     1      -2.717  -4.816  -0.935  0.00  0.00    +0.109 C 
BRANCH  31  32
ATOM     32  C   UNL     1      -2.952  -4.301  -2.357  0.00  0.00    +0.054 C 
BRANCH  32  37
ATOM     33  C   UNL     1      -3.027   1.477  -2.321  0.00  0.00    +0.044 C 
ATOM     34  C   UNL     1      -3.007  -0.030  -2.331  0.00  0.00    -0.050 A 
ATOM     35  C   UNL     1      -4.193  -0.737  -2.250  0.00  0.00    +0.003 A 
ATOM     36  C   UNL     1      -4.175  -2.119  -2.259  0.00  0.00    +0.004 A 
ATOM     37  C   UNL     1      -2.972  -2.795  -2.348  0.00  0.00    -0.043 A 
ATOM     38  C   UNL     1      -1.787  -2.088  -2.430  0.00  0.00    -0.047 A 
ATOM     39  C   UNL     1      -1.805  -0.705  -2.426  0.00  0.00    +0.007 A 
ATOM     40  C   UNL     1      -0.475  -2.824  -2.527  0.00  0.00    +0.044 C 
ENDBRANCH  32  37
ENDBRANCH  31  32
ENDBRANCH  27  31
ENDBRANCH   1  28
TORSDOF 6
