REMARK  Name = ZINC54919558
REMARK  3 active torsions:
REMARK  status: ('A' for Active; 'I' for Inactive)
REMARK    1  A    between atoms: C_6  and  N_7
REMARK    2  A    between atoms: C_8  and  C_10
REMARK    3  A    between atoms: C_10  and  N_11
REMARK                            x       y       z     vdW  Elec       q    Type
REMARK                         _______ _______ _______ _____ _____    ______ ____
ROOT
ATOM      1  N   UNL     1      -1.200  -0.721   0.010  0.00  0.00    -0.284 N 
ATOM      2  C   UNL     1      -1.185  -2.065  -0.099  0.00  0.00    +0.239 C 
ATOM      3  O   UNL     1      -0.128  -2.659  -0.113  0.00  0.00    -0.273 OA
ATOM      4  H   UNL     1      -2.045  -0.252   0.098  0.00  0.00    +0.155 HD
ENDROOT
BRANCH   1  10
ATOM      5  C   UNL     1       1.071  -0.454  -0.766  0.00  0.00    +0.026 A 
ATOM      6  C   UNL     1       2.257   0.255  -0.780  0.00  0.00    +0.043 A 
ATOM      7  C   UNL     1       2.380   1.414  -0.033  0.00  0.00    +0.159 A 
ATOM      8  C   UNL     1       1.314   1.866   0.730  0.00  0.00    +0.160 A 
ATOM      9  C   UNL     1       0.126   1.159   0.745  0.00  0.00    +0.064 A 
ATOM     10  C   UNL     1       0.002  -0.004  -0.004  0.00  0.00    +0.036 A 
ATOM     11  F   UNL     1       1.436   2.998   1.458  0.00  0.00    -0.202 F 
ATOM     12  F   UNL     1       3.541   2.105  -0.047  0.00  0.00    -0.202 F 
ENDBRANCH   1  10
BRANCH   2  13
ATOM     13  C   UNL     1      -2.480  -2.827  -0.204  0.00  0.00    +0.239 C 
BRANCH  13  14
ATOM     14  N   UNL     1      -2.196  -4.261  -0.311  0.00  0.00    -0.259 N 
ATOM     15  C   UNL     1      -2.689  -5.230   0.488  0.00  0.00    +0.126 A 
ATOM     16  C   UNL     1      -2.188  -6.412   0.059  0.00  0.00    +0.086 A 
ATOM     17  C   UNL     1      -1.361  -6.156  -1.040  0.00  0.00    +0.249 A 
ATOM     18  N   UNL     1      -1.369  -4.867  -1.266  0.00  0.00    -0.145 NA
ATOM     19  N   UNL     1      -0.610  -7.168  -1.816  0.00  0.00    +0.078 N 
ATOM     20  O   UNL     1      -0.683  -8.337  -1.515  0.00  0.00    -0.125 OA
ATOM     21  O   UNL     1       0.077  -6.827  -2.750  0.00  0.00    -0.125 OA
ATOM     22 BR   UNL     1      -2.543  -8.110   0.812  0.00  0.00    -0.045 Br
ENDBRANCH  13  14
ENDBRANCH   2  13
TORSDOF 3
