REMARK  Name = ZINC01374458
REMARK  14 active torsions:
REMARK  status: ('A' for Active; 'I' for Inactive)
REMARK    1  A    between atoms: C_1  and  C_2
REMARK    2  A    between atoms: C_2  and  C_3
REMARK    3  A    between atoms: C_3  and  C_5
REMARK    4  A    between atoms: C_3  and  N_19
REMARK    5  A    between atoms: N_9  and  C_10
REMARK    6  A    between atoms: C_10  and  C_11
REMARK    7  A    between atoms: C_14  and  O_17
REMARK    8  A    between atoms: O_17  and  C_18
REMARK    9  A    between atoms: N_19  and  C_20
REMARK   10  A    between atoms: N_19  and  C_30
REMARK   11  A    between atoms: C_20  and  C_21
REMARK   12  A    between atoms: C_30  and  C_31
REMARK   13  A    between atoms: C_35  and  O_43
REMARK   14  A    between atoms: O_43  and  C_44
REMARK                            x       y       z     vdW  Elec       q    Type
REMARK                         _______ _______ _______ _____ _____    ______ ____
ROOT
ATOM      1  N   UNL     1      -0.159   1.018   2.670  0.00  0.00    -0.284 NA
ENDROOT
BRANCH   1   2
ATOM      2  C   UNL     1      -0.052  -0.272   1.976  0.00  0.00    +0.127 C 
BRANCH   2   3
ATOM      3  C   UNL     1      -1.363  -0.592   1.305  0.00  0.00    +0.169 A 
ATOM      4  N   UNL     1      -2.203   0.266   0.780  0.00  0.00    -0.112 NA
ATOM      5  N   UNL     1      -3.202  -0.395   0.306  0.00  0.00    -0.023 NA
ATOM      6  N   UNL     1      -3.021  -1.652   0.515  0.00  0.00    -0.044 NA
ATOM      7  N   UNL     1      -1.895  -1.815   1.124  0.00  0.00    -0.223 N 
BRANCH   7   8
ATOM      8  C   UNL     1      -1.309  -3.090   1.543  0.00  0.00    +0.182 C 
BRANCH   8   9
ATOM      9  C   UNL     1      -1.774  -3.422   2.938  0.00  0.00    -0.026 A 
ATOM     10  C   UNL     1      -1.046  -2.987   4.030  0.00  0.00    +0.009 A 
ATOM     11  C   UNL     1      -1.469  -3.291   5.309  0.00  0.00    +0.046 A 
ATOM     12  C   UNL     1      -2.626  -4.033   5.498  0.00  0.00    +0.120 A 
ATOM     13  C   UNL     1      -3.355  -4.468   4.400  0.00  0.00    +0.046 A 
ATOM     14  C   UNL     1      -2.930  -4.157   3.123  0.00  0.00    +0.009 A 
BRANCH  12  15
ATOM     15  O   UNL     1      -3.045  -4.333   6.755  0.00  0.00    -0.495 OA
ATOM     16  C   UNL     1      -4.244  -5.101   6.874  0.00  0.00    +0.277 C 
ENDBRANCH  12  15
ENDBRANCH   8   9
ENDBRANCH   7   8
ENDBRANCH   2   3
BRANCH   2  18
ATOM     17  C   UNL     1       2.412  -0.061   1.615  0.00  0.00    +0.006 C 
ATOM     18  C   UNL     1       1.054  -0.194   0.921  0.00  0.00    +0.023 C 
ENDBRANCH   2  18
ENDBRANCH   1   2
BRANCH   1  19
ATOM     19  C   UNL     1      -1.320   1.038   3.569  0.00  0.00    +0.120 C 
BRANCH  19  20
ATOM     20  C   UNL     1      -1.180   2.177   4.546  0.00  0.00    -0.030 A 
ATOM     21  C   UNL     1      -0.417   2.016   5.688  0.00  0.00    +0.009 A 
ATOM     22  C   UNL     1      -0.286   3.059   6.586  0.00  0.00    +0.050 A 
ATOM     23  C   UNL     1      -0.919   4.267   6.344  0.00  0.00    +0.166 A 
ATOM     24  C   UNL     1      -1.687   4.428   5.194  0.00  0.00    +0.167 A 
ATOM     25  C   UNL     1      -1.810   3.381   4.295  0.00  0.00    +0.054 A 
ATOM     26  O   UNL     1      -2.200   5.693   5.186  0.00  0.00    -0.453 OA
ATOM     27  C   UNL     1      -2.074   6.168   6.539  0.00  0.00    +0.466 C 
ATOM     28  O   UNL     1      -0.950   5.431   7.057  0.00  0.00    -0.453 OA
ENDBRANCH  19  20
ENDBRANCH   1  19
BRANCH   1  29
ATOM     29  C   UNL     1      -0.218   2.129   1.710  0.00  0.00    +0.126 C 
BRANCH  29  30
ATOM     30  C   UNL     1       1.175   2.646   1.453  0.00  0.00    +0.031 A 
ATOM     31  C   UNL     1       1.670   2.654   0.191  0.00  0.00    +0.020 A 
ATOM     32  C   UNL     1       3.026   3.162  -0.025  0.00  0.00    +0.002 A 
ATOM     33  C   UNL     1       3.589   3.194  -1.305  0.00  0.00    +0.055 A 
ATOM     34  C   UNL     1       4.870   3.680  -1.474  0.00  0.00    +0.121 A 
ATOM     35  C   UNL     1       5.599   4.136  -0.378  0.00  0.00    +0.047 A 
ATOM     36  C   UNL     1       5.056   4.108   0.887  0.00  0.00    +0.030 A 
ATOM     37  C   UNL     1       3.767   3.623   1.079  0.00  0.00    +0.049 A 
ATOM     38  N   UNL     1       3.204   3.588   2.339  0.00  0.00    -0.322 N 
ATOM     39  H   UNL     1       3.715   3.906   3.100  0.00  0.00    +0.169 HD
ATOM     40  C   UNL     1       1.956   3.125   2.527  0.00  0.00    +0.254 A 
ATOM     41  O   UNL     1       1.489   3.113   3.653  0.00  0.00    -0.268 OA
BRANCH  34  42
ATOM     42  O   UNL     1       5.423   3.714  -2.716  0.00  0.00    -0.495 OA
ATOM     43  C   UNL     1       6.752   4.229  -2.820  0.00  0.00    +0.277 C 
ENDBRANCH  34  42
ENDBRANCH  29  30
ENDBRANCH   1  29
TORSDOF 11
