REMARK  Name = ZINC13523733
REMARK  11 active torsions:
REMARK  status: ('A' for Active; 'I' for Inactive)
REMARK    1  A    between atoms: C_1  and  C_2
REMARK    2  A    between atoms: C_2  and  C_3
REMARK    3  A    between atoms: C_2  and  C_4
REMARK    4  A    between atoms: C_2  and  N_12
REMARK    5  A    between atoms: C_4  and  C_5
REMARK    6  A    between atoms: C_8  and  O_11
REMARK    7  A    between atoms: C_13  and  C_15
REMARK    8  A    between atoms: C_15  and  C_16
REMARK    9  A    between atoms: C_16  and  N_18
REMARK   10  A    between atoms: N_19  and  C_20
REMARK   11  A    between atoms: C_29  and  O_30
REMARK                            x       y       z     vdW  Elec       q    Type
REMARK                         _______ _______ _______ _____ _____    ______ ____
ROOT
ATOM      1  C   UNL     1       2.677  -0.618  -2.667  0.00  0.00    +0.195 C 
ENDROOT
BRANCH   1   3
ATOM      2  N   UNL     1       0.688  -0.476  -1.203  0.00  0.00    -0.310 N 
ATOM      3  C   UNL     1       1.972  -0.132  -1.427  0.00  0.00    +0.222 C 
ATOM      4  O   UNL     1       2.559   0.569  -0.630  0.00  0.00    -0.275 OA
ATOM      5  H   UNL     1       0.218  -1.037  -1.840  0.00  0.00    +0.149 HD
BRANCH   2   7
ATOM      6  C   UNL     1      -0.019   1.526   0.010  0.00  0.00    +0.031 C 
ATOM      7  C   UNL     1       0.002  -0.004   0.002  0.00  0.00    +0.033 C 
ATOM      8  C   UNL     1       0.742  -0.511   1.242  0.00  0.00    +0.031 C 
BRANCH   7   9
ATOM      9  C   UNL     1      -1.433  -0.534   0.013  0.00  0.00    +0.060 C 
BRANCH   9  10
ATOM     10  C   UNL     1      -2.139  -0.048   1.253  0.00  0.00    -0.045 A 
ATOM     11  C   UNL     1      -2.092  -0.799   2.413  0.00  0.00    +0.007 A 
ATOM     12  C   UNL     1      -2.738  -0.356   3.550  0.00  0.00    +0.045 A 
ATOM     13  C   UNL     1      -3.434   0.844   3.529  0.00  0.00    +0.117 A 
ATOM     14  C   UNL     1      -3.479   1.597   2.364  0.00  0.00    +0.045 A 
ATOM     15  C   UNL     1      -2.826   1.152   1.230  0.00  0.00    +0.007 A 
BRANCH  13  16
ATOM     16  O   UNL     1      -4.071   1.282   4.647  0.00  0.00    -0.507 OA
ATOM     17  H   UNL     1      -3.524   1.837   5.219  0.00  0.00    +0.292 HD
ENDBRANCH  13  16
ENDBRANCH   9  10
ENDBRANCH   7   9
ENDBRANCH   2   7
ENDBRANCH   1   3
BRANCH   1  18
ATOM     18  C   UNL     1       4.091  -0.097  -2.678  0.00  0.00    +0.263 C 
ATOM     19  O   UNL     1       4.487   0.602  -1.767  0.00  0.00    -0.272 OA
BRANCH  18  20
ATOM     20  N   UNL     1       4.911  -0.404  -3.692  0.00  0.00    -0.079 NA
ATOM     21  N   UNL     1       6.121   0.043  -3.701  0.00  0.00    -0.151 NA
BRANCH  21  22
ATOM     22  C   UNL     1       6.937  -0.263  -4.711  0.00  0.00    +0.152 A 
ATOM     23  C   UNL     1       8.344   0.156  -4.875  0.00  0.00    +0.032 A 
ATOM     24  C   UNL     1       9.210   0.933  -4.112  0.00  0.00    +0.027 A 
ATOM     25  C   UNL     1      10.502   1.147  -4.550  0.00  0.00    +0.019 A 
ATOM     26  C   UNL     1      10.935   0.589  -5.743  0.00  0.00    +0.017 A 
ATOM     27  C   UNL     1      10.085  -0.182  -6.507  0.00  0.00    +0.027 A 
ATOM     28  C   UNL     1       8.780  -0.408  -6.083  0.00  0.00    +0.051 A 
ATOM     29  N   UNL     1       7.726  -1.123  -6.628  0.00  0.00    -0.324 N 
ATOM     30  H   UNL     1       7.765  -1.612  -7.466  0.00  0.00    +0.169 HD
ATOM     31  C   UNL     1       6.636  -1.052  -5.830  0.00  0.00    +0.219 A 
ATOM     32 BR   UNL     1      11.684   2.202  -3.518  0.00  0.00    -0.050 Br
BRANCH  31  33
ATOM     33  O   UNL     1       5.448  -1.643  -6.073  0.00  0.00    -0.492 OA
ATOM     34  H   UNL     1       4.832  -1.095  -6.580  0.00  0.00    +0.294 HD
ENDBRANCH  31  33
ENDBRANCH  21  22
ENDBRANCH  18  20
ENDBRANCH   1  18
TORSDOF 9
