REMARK  Name = ZINC33812501
REMARK  16 active torsions:
REMARK  status: ('A' for Active; 'I' for Inactive)
REMARK    1  A    between atoms: C_1  and  C_2
REMARK    2  A    between atoms: C_2  and  C_3
REMARK    3  A    between atoms: C_3  and  C_4
REMARK    4  A    between atoms: C_4  and  C_5
REMARK    5  A    between atoms: C_5  and  C_7
REMARK    6  A    between atoms: C_5  and  C_9
REMARK    7  A    between atoms: C_7  and  C_8
REMARK    8  A    between atoms: C_9  and  N_10
REMARK    9  A    between atoms: C_14  and  C_15
REMARK   10  A    between atoms: C_16  and  C_34
REMARK   11  A    between atoms: C_17  and  C_32
REMARK   12  A    between atoms: N_20  and  C_30
REMARK   13  A    between atoms: C_21  and  N_22
REMARK   14  A    between atoms: N_25  and  C_28
REMARK   15  A    between atoms: C_28  and  C_29
REMARK   16  A    between atoms: C_30  and  C_31
REMARK                            x       y       z     vdW  Elec       q    Type
REMARK                         _______ _______ _______ _____ _____    ______ ____
ROOT
ATOM      1  C   UNL     1       7.052  -5.099   4.198  0.00  0.00    +0.019 A 
ATOM      2  C   UNL     1       6.954  -4.511   2.925  0.00  0.00    -0.017 A 
ATOM      3  C   UNL     1       8.107  -4.370   2.158  0.00  0.00    +0.120 A 
ATOM      4  C   UNL     1       9.347  -4.822   2.676  0.00  0.00    +0.270 A 
ATOM      5  O   UNL     1      10.360  -4.701   2.009  0.00  0.00    -0.266 OA
ATOM      6  N   UNL     1       9.415  -5.382   3.897  0.00  0.00    -0.295 N 
ATOM      7  C   UNL     1       8.305  -5.526   4.666  0.00  0.00    +0.112 A 
ATOM      8  C   UNL     1       5.622  -4.040   2.400  0.00  0.00    +0.046 C 
ENDROOT
BRANCH   1  13
ATOM      9  N   UNL     1       4.801  -1.903   6.037  0.00  0.00    -0.255 N 
ATOM     10  C   UNL     1       5.604  -2.792   5.477  0.00  0.00    +0.258 C 
ATOM     11  O   UNL     1       6.641  -2.449   4.939  0.00  0.00    -0.269 OA
ATOM     12  C   UNL     1       5.219  -4.166   5.523  0.00  0.00    +0.077 C 
ATOM     13  C   UNL     1       5.858  -5.262   5.030  0.00  0.00    +0.032 C 
ATOM     14  S   UNL     1       3.668  -4.056   6.406  0.00  0.00    -0.061 S 
ATOM     15  C   UNL     1       3.653  -2.285   6.639  0.00  0.00    +0.121 C 
ATOM     16  S   UNL     1       2.481  -1.317   7.425  0.00  0.00    -0.027 S 
BRANCH   9  17
ATOM     17  C   UNL     1       5.164  -0.484   6.009  0.00  0.00    +0.118 C 
BRANCH  17  18
ATOM     18  C   UNL     1       5.854  -0.108   7.322  0.00  0.00    +0.007 C 
BRANCH  18  19
ATOM     19  C   UNL     1       7.191  -0.844   7.424  0.00  0.00    +0.002 C 
ATOM     20  C   UNL     1       8.133  -0.346   6.327  0.00  0.00    +0.004 C 
ENDBRANCH  18  19
BRANCH  18  21
ATOM     21  C   UNL     1       6.098   1.402   7.355  0.00  0.00    +0.005 C 
BRANCH  21  22
ATOM     22  C   UNL     1       6.660   1.797   8.722  0.00  0.00    +0.000 C 
BRANCH  22  24
ATOM     23  C   UNL     1       7.567   3.683  10.086  0.00  0.00    +0.004 C 
ATOM     24  C   UNL     1       7.005   3.288   8.719  0.00  0.00    -0.003 C 
ENDBRANCH  22  24
ENDBRANCH  21  22
ENDBRANCH  18  21
ENDBRANCH  17  18
ENDBRANCH   9  17
ENDBRANCH   1  13
BRANCH   7  25
ATOM     25  N   UNL     1       8.408  -6.093   5.903  0.00  0.00    -0.320 N 
ATOM     26  C   UNL     1       8.544  -5.261   7.108  0.00  0.00    +0.088 C 
ATOM     27  C   UNL     1       7.505  -5.719   8.136  0.00  0.00    -0.060 C 
ATOM     28  N   UNL     1       7.656  -7.160   8.374  0.00  0.00    +0.382 N 
ATOM     29  C   UNL     1       7.352  -7.905   7.145  0.00  0.00    -0.060 C 
ATOM     30  C   UNL     1       8.379  -7.554   6.069  0.00  0.00    +0.088 C 
ATOM     31  H   UNL     1       8.604  -7.355   8.658  0.00  0.00    -0.082 HD
BRANCH  28  32
ATOM     32  C   UNL     1       6.733  -7.578   9.438  0.00  0.00    -0.082 C 
ATOM     33  C   UNL     1       6.976  -9.051   9.774  0.00  0.00    -0.017 C 
ENDBRANCH  28  32
ENDBRANCH   7  25
BRANCH   6  34
ATOM     34  C   UNL     1      10.709  -5.841   4.407  0.00  0.00    +0.123 C 
ATOM     35  C   UNL     1      11.365  -4.720   5.216  0.00  0.00    +0.027 C 
ENDBRANCH   6  34
BRANCH   3  36
ATOM     36  C   UNL     1       8.040  -3.775   0.858  0.00  0.00    +0.105 C 
ATOM     37  N   UNL     1       7.988  -3.302  -0.174  0.00  0.00    -0.191 NA
ENDBRANCH   3  36
TORSDOF 11
