REMARK  Name = ZINC04126023
REMARK  6 active torsions:
REMARK  status: ('A' for Active; 'I' for Inactive)
REMARK    1  A    between atoms: C_1  and  C_2
REMARK    2  A    between atoms: C_2  and  C_4
REMARK    3  A    between atoms: C_5  and  O_24
REMARK    4  A    between atoms: N_8  and  C_18
REMARK    5  A    between atoms: C_9  and  C_11
REMARK    6  A    between atoms: C_18  and  C_19
REMARK                            x       y       z     vdW  Elec       q    Type
REMARK                         _______ _______ _______ _____ _____    ______ ____
ROOT
ATOM      1  C   UNL     1      -1.631   2.623   1.411  0.00  0.00    +0.066 C 
ATOM      2  C   UNL     1      -1.712   3.975   1.322  0.00  0.00    +0.188 C 
ATOM      3  C   UNL     1      -1.477   4.383  -0.081  0.00  0.00    +0.283 C 
ATOM      4  O   UNL     1      -1.483   5.529  -0.484  0.00  0.00    -0.267 OA
ATOM      5  N   UNL     1      -1.255   3.297  -0.844  0.00  0.00    -0.276 N 
ATOM      6  C   UNL     1      -1.332   2.114   0.020  0.00  0.00    +0.145 C 
ENDROOT
BRANCH   6   7
ATOM      7  C   UNL     1      -0.017   1.378   0.010  0.00  0.00    -0.022 A 
ATOM      8  C   UNL     1       1.171   2.086   0.002  0.00  0.00    +0.007 A 
ATOM      9  C   UNL     1       2.377   1.412  -0.013  0.00  0.00    +0.015 A 
ATOM     10  C   UNL     1       2.397   0.029  -0.021  0.00  0.00    +0.018 A 
ATOM     11  C   UNL     1       1.208  -0.679  -0.013  0.00  0.00    +0.015 A 
ATOM     12  C   UNL     1       0.002  -0.004   0.002  0.00  0.00    +0.007 A 
ATOM     13 BR   UNL     1       4.047  -0.894  -0.041  0.00  0.00    -0.050 Br
ENDBRANCH   6   7
BRANCH   1  15
ATOM     14  C   UNL     1      -1.673   0.341   2.504  0.00  0.00    +0.091 C 
ATOM     15  C   UNL     1      -1.796   1.841   2.578  0.00  0.00    +0.162 C 
ATOM     16  O   UNL     1      -2.035   2.378   3.640  0.00  0.00    -0.292 OA
ENDBRANCH   1  15
BRANCH   2  17
ATOM     17  O   UNL     1      -1.966   4.814   2.350  0.00  0.00    -0.502 OA
ATOM     18  H   UNL     1      -1.971   5.757   2.018  0.00  0.00    +0.292 HD
ENDBRANCH   2  17
BRANCH   5  19
ATOM     19  C   UNL     1      -0.984   3.297  -2.284  0.00  0.00    +0.183 C 
BRANCH  19  20
ATOM     20  C   UNL     1      -2.284   3.197  -3.039  0.00  0.00    +0.122 A 
ATOM     21  C   UNL     1      -3.041   4.233  -3.444  0.00  0.00    +0.046 A 
ATOM     22  C   UNL     1      -4.160   3.686  -4.112  0.00  0.00    +0.041 A 
ATOM     23  C   UNL     1      -4.024   2.349  -4.069  0.00  0.00    +0.195 A 
ATOM     24  O   UNL     1      -2.886   2.058  -3.418  0.00  0.00    -0.466 OA
ENDBRANCH  19  20
ENDBRANCH   5  19
TORSDOF 5
