REMARK  Name = ZINC59404967
REMARK  10 active torsions:
REMARK  status: ('A' for Active; 'I' for Inactive)
REMARK    1  A    between atoms: C_1  and  C_2
REMARK    2  A    between atoms: C_2  and  C_3
REMARK    3  A    between atoms: C_3  and  N_4
REMARK    4  A    between atoms: N_4  and  C_5
REMARK    5  A    between atoms: N_4  and  C_17
REMARK    6  A    between atoms: C_5  and  C_6
REMARK    7  A    between atoms: N_11  and  C_12
REMARK    8  A    between atoms: C_12  and  C_13
REMARK    9  A    between atoms: C_17  and  C_19
REMARK   10  A    between atoms: C_17  and  C_20
REMARK                            x       y       z     vdW  Elec       q    Type
REMARK                         _______ _______ _______ _____ _____    ______ ____
ROOT
ATOM      1  N   UNL     1       0.625  -1.939  -1.228  0.00  0.00    +0.390 N 
ATOM      2  H   UNL     1       0.943  -2.159  -0.296  0.00  0.00    -0.080 HD
ENDROOT
BRANCH   1   3
ATOM      3  C   UNL     1       1.468  -2.634  -2.210  0.00  0.00    -0.040 C 
ATOM      4  C   UNL     1       1.377  -4.144  -1.983  0.00  0.00    -0.008 C 
BRANCH   3   5
ATOM      5  C   UNL     1       2.898  -2.187  -2.049  0.00  0.00    -0.060 A 
ATOM      6  C   UNL     1       3.425  -1.999  -0.784  0.00  0.00    +0.003 A 
ATOM      7  C   UNL     1       4.737  -1.589  -0.635  0.00  0.00    +0.021 A 
ATOM      8  C   UNL     1       5.523  -1.366  -1.751  0.00  0.00    +0.059 A 
ATOM      9  C   UNL     1       4.995  -1.554  -3.017  0.00  0.00    +0.059 A 
ATOM     10  C   UNL     1       3.684  -1.970  -3.165  0.00  0.00    +0.023 A 
ATOM     11 CL   UNL     1       5.981  -1.274  -4.419  0.00  0.00    -0.082 Cl
ATOM     12 CL   UNL     1       7.170  -0.850  -1.565  0.00  0.00    -0.082 Cl
ENDBRANCH   3   5
ENDBRANCH   1   3
BRANCH   1  13
ATOM     13  C   UNL     1       0.712  -0.489  -1.445  0.00  0.00    -0.078 C 
BRANCH  13  15
ATOM     14  C   UNL     1       0.375   1.348  -3.104  0.00  0.00    +0.002 C 
ATOM     15  C   UNL     1       0.257  -0.159  -2.868  0.00  0.00    -0.022 C 
ENDBRANCH  13  15
ENDBRANCH   1  13
BRANCH   1  16
ATOM     16  C   UNL     1      -0.769  -2.375  -1.385  0.00  0.00    +0.020 C 
BRANCH  16  17
ATOM     17  C   UNL     1      -1.607  -1.787  -0.279  0.00  0.00    +0.204 C 
ATOM     18  O   UNL     1      -1.078  -1.169   0.620  0.00  0.00    -0.277 OA
ATOM     19  N   UNL     1      -2.945  -1.947  -0.289  0.00  0.00    -0.242 N 
ATOM     20  C   UNL     1      -3.695  -1.421   0.700  0.00  0.00    +0.306 C 
ATOM     21  O   UNL     1      -3.164  -0.802   1.601  0.00  0.00    -0.252 OA
ATOM     22  N   UNL     1      -5.033  -1.582   0.690  0.00  0.00    -0.291 N 
ATOM     23  H   UNL     1      -3.369  -2.442  -1.008  0.00  0.00    +0.159 HD
ATOM     24  H   UNL     1      -5.457  -2.076  -0.029  0.00  0.00    +0.151 HD
BRANCH  22  25
ATOM     25  C   UNL     1      -5.847  -1.010   1.765  0.00  0.00    +0.219 C 
BRANCH  25  26
ATOM     26  C   UNL     1      -7.321  -1.335   1.516  0.00  0.00    +0.405 C 
ATOM     27  F   UNL     1      -7.495  -2.723   1.487  0.00  0.00    -0.169 F 
ATOM     28  F   UNL     1      -8.099  -0.788   2.543  0.00  0.00    -0.169 F 
ATOM     29  F   UNL     1      -7.718  -0.790   0.290  0.00  0.00    -0.169 F 
ENDBRANCH  25  26
ENDBRANCH  22  25
ENDBRANCH  16  17
ENDBRANCH   1  16
TORSDOF 8
