REMARK  Name = ZINC16805514
REMARK  10 active torsions:
REMARK  status: ('A' for Active; 'I' for Inactive)
REMARK    1  A    between atoms: C_1  and  C_2
REMARK    2  A    between atoms: C_5  and  C_8
REMARK    3  A    between atoms: C_10  and  C_11
REMARK    4  A    between atoms: C_11  and  C_12
REMARK    5  A    between atoms: C_15  and  C_19
REMARK    6  A    between atoms: C_28  and  C_37
REMARK    7  A    between atoms: C_29  and  C_31
REMARK    8  A    between atoms: C_31  and  O_33
REMARK    9  A    between atoms: O_33  and  C_34
REMARK   10  A    between atoms: C_34  and  C_35
REMARK                            x       y       z     vdW  Elec       q    Type
REMARK                         _______ _______ _______ _____ _____    ______ ____
ROOT
ATOM      1  C   UNL     1       1.258   3.413  -0.035  0.00  0.00    +0.152 C 
ATOM      2  C   UNL     1       1.539   4.051  -1.376  0.00  0.00    +0.077 C 
ATOM      3  C   UNL     1       2.693   4.833  -1.201  0.00  0.00    +0.250 C 
ATOM      4  O   UNL     1       3.237   5.505  -2.059  0.00  0.00    -0.282 OA
ATOM      5  C   UNL     1       3.135   4.699   0.212  0.00  0.00    +0.293 C 
ATOM      6  O   UNL     1       4.104   5.248   0.694  0.00  0.00    -0.266 OA
ATOM      7  N   UNL     1       2.304   3.880   0.879  0.00  0.00    -0.232 N 
ATOM      8  C   UNL     1       2.419   3.533   2.212  0.00  0.00    +0.169 A 
ATOM      9  N   UNL     1       3.336   3.909   3.091  0.00  0.00    -0.229 NA
ATOM     10  C   UNL     1       3.307   3.496   4.330  0.00  0.00    +0.062 A 
ATOM     11  C   UNL     1       2.284   2.632   4.701  0.00  0.00    +0.120 A 
ATOM     12  S   UNL     1       1.401   2.488   3.154  0.00  0.00    -0.045 S 
ATOM     13  C   UNL     1       4.352   3.937   5.323  0.00  0.00    +0.067 C 
ENDROOT
BRANCH   1  18
ATOM     14  C   UNL     1       1.455  -2.343  -0.501  0.00  0.00    +0.044 C 
ATOM     15  C   UNL     1       1.404  -0.842  -0.379  0.00  0.00    -0.050 A 
ATOM     16  C   UNL     1       0.190  -0.204  -0.203  0.00  0.00    +0.004 A 
ATOM     17  C   UNL     1       0.143   1.173  -0.091  0.00  0.00    +0.006 A 
ATOM     18  C   UNL     1       1.309   1.912  -0.156  0.00  0.00    -0.022 A 
ATOM     19  C   UNL     1       2.523   1.274  -0.332  0.00  0.00    +0.006 A 
ATOM     20  C   UNL     1       2.570  -0.103  -0.444  0.00  0.00    +0.004 A 
ENDBRANCH   1  18
BRANCH   2  21
ATOM     21  C   UNL     1       0.811   3.896  -2.537  0.00  0.00    +0.195 C 
ATOM     22  O   UNL     1       1.262   4.426  -3.693  0.00  0.00    -0.287 OA
BRANCH  21  23
ATOM     23  C   UNL     1      -0.461   3.151  -2.514  0.00  0.00    +0.025 A 
ATOM     24  C   UNL     1      -0.708   2.155  -3.464  0.00  0.00    +0.012 A 
ATOM     25  C   UNL     1      -1.897   1.458  -3.435  0.00  0.00    +0.007 A 
ATOM     26  C   UNL     1      -2.851   1.749  -2.475  0.00  0.00    -0.015 A 
ATOM     27  C   UNL     1      -2.617   2.739  -1.533  0.00  0.00    +0.127 A 
ATOM     28  C   UNL     1      -1.428   3.441  -1.547  0.00  0.00    +0.050 A 
ATOM     29  F   UNL     1      -3.553   3.016  -0.600  0.00  0.00    -0.205 F 
ATOM     30  C   UNL     1      -4.151   0.987  -2.454  0.00  0.00    +0.047 C 
ENDBRANCH  21  23
ENDBRANCH   2  21
BRANCH  11  31
ATOM     31  C   UNL     1       2.008   2.013   5.995  0.00  0.00    +0.348 C 
ATOM     32  O   UNL     1       2.736   2.236   6.944  0.00  0.00    -0.244 OA
BRANCH  31  33
ATOM     33  O   UNL     1       0.946   1.194   6.139  0.00  0.00    -0.457 OA
BRANCH  33  34
ATOM     34  C   UNL     1       0.736   0.623   7.432  0.00  0.00    +0.259 C 
BRANCH  34  35
ATOM     35  C   UNL     1      -0.487  -0.257   7.400  0.00  0.00    +0.006 C 
ATOM     36  C   UNL     1      -0.457  -1.441   7.960  0.00  0.00    +0.007 C 
ENDBRANCH  34  35
ENDBRANCH  33  34
ENDBRANCH  31  33
ENDBRANCH  11  31
TORSDOF 7
