REMARK  Name = ZINC02775766
REMARK  13 active torsions:
REMARK  status: ('A' for Active; 'I' for Inactive)
REMARK    1  A    between atoms: C_1  and  C_2
REMARK    2  A    between atoms: C_2  and  C_3
REMARK    3  A    between atoms: C_3  and  O_4
REMARK    4  A    between atoms: O_4  and  C_5
REMARK    5  A    between atoms: C_5  and  C_6
REMARK    6  A    between atoms: C_6  and  O_7
REMARK    7  A    between atoms: O_7  and  C_8
REMARK    8  A    between atoms: C_8  and  C_10
REMARK    9  A    between atoms: C_11  and  C_33
REMARK   10  A    between atoms: C_15  and  C_17
REMARK   11  A    between atoms: C_20  and  N_23
REMARK   12  A    between atoms: C_29  and  C_31
REMARK   13  A    between atoms: C_29  and  C_32
REMARK                            x       y       z     vdW  Elec       q    Type
REMARK                         _______ _______ _______ _____ _____    ______ ____
ROOT
ATOM      1  C   UNL     1      -0.787   6.237  -1.193  0.00  0.00    +0.065 C 
ATOM      2  C   UNL     1      -2.051   6.687  -1.135  0.00  0.00    +0.016 C 
ATOM      3  N   UNL     1      -2.722   6.714   0.056  0.00  0.00    -0.321 N 
ATOM      4  C   UNL     1      -2.040   6.673   1.242  0.00  0.00    +0.016 C 
ATOM      5  C   UNL     1      -0.767   6.226   1.286  0.00  0.00    +0.024 C 
ATOM      6  C   UNL     1      -0.076   5.747   0.034  0.00  0.00    +0.092 C 
ATOM      7  C   UNL     1      -0.050   6.194   2.495  0.00  0.00    +0.162 C 
ATOM      8  O   UNL     1       1.091   5.776   2.501  0.00  0.00    -0.292 OA
ATOM      9  C   UNL     1      -0.670   6.668   3.781  0.00  0.00    +0.086 C 
ATOM     10  C   UNL     1      -1.720   7.737   3.464  0.00  0.00    -0.023 C 
ATOM     11  C   UNL     1      -2.742   7.141   2.493  0.00  0.00    +0.058 C 
ATOM     12  C   UNL     1      -1.043   8.948   2.818  0.00  0.00    +0.011 C 
ATOM     13  C   UNL     1      -2.426   8.169   4.751  0.00  0.00    +0.011 C 
ATOM     14  C   UNL     1      -2.735   7.165  -2.390  0.00  0.00    +0.061 C 
ATOM     15  H   UNL     1      -3.821   6.769   0.067  0.00  0.00    +0.152 HD
ENDROOT
BRANCH   6  16
ATOM     16  C   UNL     1      -0.056   4.240   0.025  0.00  0.00    -0.035 A 
ATOM     17  C   UNL     1       1.151   3.566   0.010  0.00  0.00    +0.007 A 
ATOM     18  C   UNL     1       1.170   2.183   0.003  0.00  0.00    +0.033 A 
ATOM     19  C   UNL     1      -0.018   1.476   0.010  0.00  0.00    +0.126 A 
ATOM     20  C   UNL     1      -1.224   2.151   0.019  0.00  0.00    +0.033 A 
ATOM     21  C   UNL     1      -1.243   3.533   0.033  0.00  0.00    +0.007 A 
BRANCH  19  22
ATOM     22  N   UNL     1       0.002  -0.004   0.002  0.00  0.00    +0.056 N 
ATOM     23  O   UNL     1       1.065  -0.599  -0.011  0.00  0.00    -0.126 OA
ATOM     24  O   UNL     1      -1.044  -0.627   0.009  0.00  0.00    -0.126 OA
ENDBRANCH  19  22
ENDBRANCH   6  16
BRANCH   1  25
ATOM     25  C   UNL     1      -0.113   6.226  -2.437  0.00  0.00    +0.338 C 
ATOM     26  O   UNL     1      -0.679   6.621  -3.439  0.00  0.00    -0.245 OA
BRANCH  25  27
ATOM     27  O   UNL     1       1.158   5.778  -2.512  0.00  0.00    -0.459 OA
BRANCH  27  28
ATOM     28  C   UNL     1       1.777   5.795  -3.799  0.00  0.00    +0.260 C 
BRANCH  28  29
ATOM     29  C   UNL     1       3.204   5.254  -3.686  0.00  0.00    +0.201 C 
BRANCH  29  30
ATOM     30  O   UNL     1       3.162   3.877  -3.305  0.00  0.00    -0.376 OA
BRANCH  30  31
ATOM     31  C   UNL     1       4.450   3.272  -3.171  0.00  0.00    +0.159 C 
BRANCH  31  33
ATOM     32  C   UNL     1       5.664   1.160  -2.618  0.00  0.00    +0.006 C 
ATOM     33  C   UNL     1       4.285   1.807  -2.762  0.00  0.00    +0.025 C 
ENDBRANCH  31  33
ENDBRANCH  30  31
ENDBRANCH  29  30
ENDBRANCH  28  29
ENDBRANCH  27  28
ENDBRANCH  25  27
ENDBRANCH   1  25
TORSDOF 9
