REMARK  Name = ZINC35779084
REMARK  11 active torsions:
REMARK  status: ('A' for Active; 'I' for Inactive)
REMARK    1  A    between atoms: C_2  and  C_3
REMARK    2  A    between atoms: C_3  and  N_4
REMARK    3  A    between atoms: N_4  and  C_5
REMARK    4  A    between atoms: N_4  and  C_15
REMARK    5  A    between atoms: C_5  and  C_6
REMARK    6  A    between atoms: C_6  and  C_8
REMARK    7  A    between atoms: C_6  and  O_14
REMARK    8  A    between atoms: C_15  and  C_16
REMARK    9  A    between atoms: C_26  and  C_28
REMARK   10  A    between atoms: C_28  and  O_29
REMARK   11  A    between atoms: O_29  and  C_30
REMARK                            x       y       z     vdW  Elec       q    Type
REMARK                         _______ _______ _______ _____ _____    ______ ____
ROOT
ATOM      1  C   UNL     1       3.705  -0.964   1.577  0.00  0.00    +0.200 C 
ATOM      2  O   UNL     1       3.292   0.176   1.570  0.00  0.00    -0.278 OA
ATOM      3  N   UNL     1       5.015  -1.205   1.781  0.00  0.00    -0.292 N 
ATOM      4  C   UNL     1       5.528  -2.583   1.785  0.00  0.00    +0.113 C 
ATOM      5  C   UNL     1       6.486  -2.745   0.595  0.00  0.00    +0.061 C 
ATOM      6  C   UNL     1       7.359  -1.535   0.515  0.00  0.00    -0.004 A 
ATOM      7  C   UNL     1       7.171  -0.328   1.113  0.00  0.00    -0.014 A 
ATOM      8  C   UNL     1       8.136   0.648   0.870  0.00  0.00    +0.013 A 
ATOM      9  C   UNL     1       9.197   0.368   0.079  0.00  0.00    +0.046 A 
ATOM     10  S   UNL     1       8.879  -1.330  -0.376  0.00  0.00    -0.101 S 
ATOM     11  C   UNL     1       5.952  -0.094   1.996  0.00  0.00    +0.144 C 
ENDROOT
BRANCH   1  12
ATOM     12  C   UNL     1       2.753  -2.112   1.357  0.00  0.00    +0.019 C 
BRANCH  12  13
ATOM     13  N   UNL     1       1.394  -1.590   1.159  0.00  0.00    +0.390 N 
ATOM     14  H   UNL     1       1.143  -1.003   1.940  0.00  0.00    -0.081 HD
BRANCH  13  15
ATOM     15  C   UNL     1       1.347  -0.803  -0.080  0.00  0.00    -0.051 C 
BRANCH  15  17
ATOM     16  C   UNL     1      -0.089   1.153  -0.355  0.00  0.00    +0.002 C 
ATOM     17  C   UNL     1      -0.004  -0.146  -0.207  0.00  0.00    -0.053 C 
ENDBRANCH  15  17
ENDBRANCH  13  15
BRANCH  13  18
ATOM     18  C   UNL     1       0.448  -2.710   1.065  0.00  0.00    -0.041 C 
BRANCH  18  19
ATOM     19  C   UNL     1       0.391  -3.444   2.406  0.00  0.00    +0.128 C 
BRANCH  19  20
ATOM     20  C   UNL     1      -0.573  -4.598   2.306  0.00  0.00    -0.021 A 
ATOM     21  C   UNL     1      -1.933  -4.373   2.404  0.00  0.00    +0.006 A 
ATOM     22  C   UNL     1      -2.817  -5.432   2.312  0.00  0.00    +0.000 A 
ATOM     23  C   UNL     1      -2.341  -6.716   2.122  0.00  0.00    +0.000 A 
ATOM     24  C   UNL     1      -0.980  -6.941   2.023  0.00  0.00    +0.000 A 
ATOM     25  C   UNL     1      -0.097  -5.881   2.110  0.00  0.00    +0.006 A 
ENDBRANCH  19  20
BRANCH  19  26
ATOM     26  O   UNL     1      -0.050  -2.543   3.424  0.00  0.00    -0.389 OA
ATOM     27  H   UNL     1      -0.952  -2.218   3.298  0.00  0.00    +0.210 HD
ENDBRANCH  19  26
ENDBRANCH  18  19
ENDBRANCH  13  18
ENDBRANCH  12  13
ENDBRANCH   1  12
BRANCH  11  28
ATOM     28  C   UNL     1       6.381  -0.056   3.464  0.00  0.00    +0.256 C 
BRANCH  28  29
ATOM     29  O   UNL     1       7.123  -1.237   3.775  0.00  0.00    -0.490 OA
BRANCH  29  30
ATOM     30  C   UNL     1       7.582  -1.361   5.048  0.00  0.00    +0.123 A 
ATOM     31  C   UNL     1       7.318  -0.368   5.981  0.00  0.00    +0.046 A 
ATOM     32  C   UNL     1       7.784  -0.495   7.275  0.00  0.00    +0.006 A 
ATOM     33  C   UNL     1       8.514  -1.611   7.642  0.00  0.00    +0.038 A 
ATOM     34  C   UNL     1       8.780  -2.603   6.713  0.00  0.00    +0.127 A 
ATOM     35  C   UNL     1       8.309  -2.482   5.418  0.00  0.00    +0.084 A 
ATOM     36  F   UNL     1       9.494  -3.692   7.074  0.00  0.00    -0.205 F 
ENDBRANCH  29  30
ENDBRANCH  28  29
ENDBRANCH  11  28
TORSDOF 11
