REMARK  Name = ZINC40167890
REMARK  9 active torsions:
REMARK  status: ('A' for Active; 'I' for Inactive)
REMARK    1  A    between atoms: C_1  and  C_2
REMARK    2  A    between atoms: C_2  and  C_4
REMARK    3  A    between atoms: C_2  and  O_20
REMARK    4  A    between atoms: N_6  and  C_7
REMARK    5  A    between atoms: C_8  and  C_16
REMARK    6  A    between atoms: C_16  and  O_18
REMARK    7  A    between atoms: O_18  and  C_19
REMARK    8  A    between atoms: O_20  and  C_21
REMARK    9  A    between atoms: C_31  and  C_32
REMARK                            x       y       z     vdW  Elec       q    Type
REMARK                         _______ _______ _______ _____ _____    ______ ____
ROOT
ATOM      1  C   UNL     1       0.865   1.992   0.342  0.00  0.00    +0.062 C 
ATOM      2  C   UNL     1       0.407   0.532   0.315  0.00  0.00    +0.256 C 
ENDROOT
BRANCH   2   3
ATOM      3  C   UNL     1      -1.088   0.471   0.499  0.00  0.00    +0.258 C 
ATOM      4  O   UNL     1      -1.794   0.077  -0.404  0.00  0.00    -0.271 OA
ATOM      5  N   UNL     1      -1.639   0.855   1.668  0.00  0.00    -0.276 N 
ATOM      6  H   UNL     1      -1.070   1.105   2.413  0.00  0.00    +0.155 HD
BRANCH   5   7
ATOM      7  C   UNL     1      -3.018   0.894   1.804  0.00  0.00    +0.086 A 
ATOM      8  C   UNL     1      -3.754   1.266   2.919  0.00  0.00    +0.091 A 
ATOM      9  C   UNL     1      -5.202   1.220   2.804  0.00  0.00    -0.021 A 
ATOM     10  C   UNL     1      -5.647   0.811   1.596  0.00  0.00    -0.004 A 
ATOM     11  S   UNL     1      -4.180   0.509   0.655  0.00  0.00    -0.077 S 
ATOM     12  C   UNL     1      -7.074   0.658   1.168  0.00  0.00    +0.043 C 
ATOM     13  C   UNL     1      -7.958   0.673   2.424  0.00  0.00    +0.005 C 
ATOM     14  C   UNL     1      -7.546   1.855   3.307  0.00  0.00    +0.005 C 
ATOM     15  C   UNL     1      -6.168   1.591   3.919  0.00  0.00    +0.037 C 
BRANCH   8  16
ATOM     16  C   UNL     1      -3.100   1.686   4.161  0.00  0.00    +0.342 C 
ATOM     17  O   UNL     1      -2.834   2.859   4.341  0.00  0.00    -0.245 OA
BRANCH  16  18
ATOM     18  O   UNL     1      -2.794   0.772   5.104  0.00  0.00    -0.464 OA
ATOM     19  C   UNL     1      -2.157   1.252   6.290  0.00  0.00    +0.280 C 
ENDBRANCH  16  18
ENDBRANCH   8  16
ENDBRANCH   5   7
ENDBRANCH   2   3
BRANCH   2  20
ATOM     20  O   UNL     1       0.756  -0.054  -0.941  0.00  0.00    -0.473 OA
BRANCH  20  21
ATOM     21  C   UNL     1       1.988  -0.623  -1.035  0.00  0.00    +0.212 A 
ATOM     22  C   UNL     1       2.300  -1.783  -0.280  0.00  0.00    +0.235 A 
ATOM     23  O   UNL     1       1.481  -2.295   0.464  0.00  0.00    -0.283 OA
ATOM     24  C   UNL     1       3.655  -2.346  -0.432  0.00  0.00    +0.068 A 
ATOM     25  C   UNL     1       4.050  -3.485   0.270  0.00  0.00    +0.015 A 
ATOM     26  C   UNL     1       5.324  -3.980   0.100  0.00  0.00    +0.001 A 
ATOM     27  C   UNL     1       6.210  -3.352  -0.762  0.00  0.00    +0.004 A 
ATOM     28  C   UNL     1       5.833  -2.225  -1.462  0.00  0.00    +0.047 A 
ATOM     29  C   UNL     1       4.552  -1.709  -1.306  0.00  0.00    +0.140 A 
ATOM     30  O   UNL     1       4.163  -0.609  -1.983  0.00  0.00    -0.451 OA
ATOM     31  C   UNL     1       2.932  -0.086  -1.860  0.00  0.00    +0.181 A 
BRANCH  31  32
ATOM     32  C   UNL     1       2.590   1.117  -2.643  0.00  0.00    +0.021 A 
ATOM     33  C   UNL     1       3.466   2.204  -2.678  0.00  0.00    +0.012 A 
ATOM     34  C   UNL     1       3.140   3.325  -3.412  0.00  0.00    +0.001 A 
ATOM     35  C   UNL     1       1.947   3.375  -4.111  0.00  0.00    +0.000 A 
ATOM     36  C   UNL     1       1.073   2.302  -4.080  0.00  0.00    +0.001 A 
ATOM     37  C   UNL     1       1.390   1.172  -3.356  0.00  0.00    +0.012 A 
ENDBRANCH  31  32
ENDBRANCH  20  21
ENDBRANCH   2  20
TORSDOF 7
