REMARK  Name = ZINC39667619
REMARK  9 active torsions:
REMARK  status: ('A' for Active; 'I' for Inactive)
REMARK    1  A    between atoms: C_1  and  C_2
REMARK    2  A    between atoms: C_6  and  C_9
REMARK    3  A    between atoms: C_7  and  C_8
REMARK    4  A    between atoms: C_9  and  N_10
REMARK    5  A    between atoms: C_11  and  C_13
REMARK    6  A    between atoms: C_24  and  C_26
REMARK    7  A    between atoms: C_27  and  C_37
REMARK    8  A    between atoms: C_30  and  C_31
REMARK    9  A    between atoms: C_33  and  C_36
REMARK                            x       y       z     vdW  Elec       q    Type
REMARK                         _______ _______ _______ _____ _____    ______ ____
ROOT
ATOM      1  C   UNL     1      -2.927  -3.595   4.770  0.00  0.00    +0.100 C 
ATOM      2  C   UNL     1      -3.889  -4.262   3.761  0.00  0.00    +0.121 C 
ATOM      3  N   UNL     1      -3.932  -5.686   4.170  0.00  0.00    -0.296 N 
ATOM      4  C   UNL     1      -3.938  -5.644   5.652  0.00  0.00    +0.115 C 
ATOM      5  C   UNL     1      -2.965  -4.503   6.011  0.00  0.00    -0.004 C 
ATOM      6  C   UNL     1      -1.576  -5.066   6.295  0.00  0.00    -0.010 C 
ATOM      7  C   UNL     1      -1.627  -5.920   7.566  0.00  0.00    -0.082 C 
ATOM      8  N   UNL     1      -2.084  -5.097   8.692  0.00  0.00    +0.379 N 
ATOM      9  C   UNL     1      -3.456  -4.636   8.451  0.00  0.00    -0.082 C 
ATOM     10  C   UNL     1      -3.482  -3.728   7.218  0.00  0.00    -0.010 C 
ATOM     11  C   UNL     1      -3.960  -6.773   3.374  0.00  0.00    +0.252 C 
ATOM     12  O   UNL     1      -3.995  -7.885   3.865  0.00  0.00    -0.270 OA
ATOM     13  H   UNL     1      -2.059  -5.645   9.539  0.00  0.00    -0.086 HD
ATOM     14  H   UNL     1      -1.475  -4.299   8.793  0.00  0.00    -0.086 HD
ENDROOT
BRANCH  11  15
ATOM     15  C   UNL     1      -3.948  -6.614   1.910  0.00  0.00    +0.108 A 
ATOM     16  C   UNL     1      -2.801  -6.564   1.079  0.00  0.00    +0.093 A 
ATOM     17  N   UNL     1      -3.196  -6.416  -0.150  0.00  0.00    -0.082 NA
ATOM     18  O   UNL     1      -4.610  -6.366  -0.173  0.00  0.00    -0.352 OA
ATOM     19  C   UNL     1      -5.058  -6.493   1.086  0.00  0.00    +0.201 A 
ATOM     20  C   UNL     1      -1.370  -6.663   1.542  0.00  0.00    +0.070 C 
BRANCH  19  21
ATOM     21  C   UNL     1      -6.473  -6.500   1.516  0.00  0.00    +0.152 A 
ATOM     22  C   UNL     1      -7.604  -6.381   0.670  0.00  0.00    +0.079 A 
ATOM     23  C   UNL     1      -8.705  -6.432   1.439  0.00  0.00    +0.135 A 
ATOM     24  O   UNL     1      -8.322  -6.576   2.716  0.00  0.00    -0.359 OA
ATOM     25  N   UNL     1      -6.907  -6.622   2.749  0.00  0.00    -0.075 NA
ATOM     26  C   UNL     1     -10.128  -6.342   0.949  0.00  0.00    +0.089 C 
ENDBRANCH  19  21
ENDBRANCH  11  15
BRANCH   1  28
ATOM     27  N   UNL     1      -0.669  -2.595   4.636  0.00  0.00    -0.311 N 
ATOM     28  C   UNL     1      -1.531  -3.536   4.205  0.00  0.00    +0.218 C 
ATOM     29  O   UNL     1      -1.184  -4.337   3.362  0.00  0.00    -0.275 OA
ATOM     30  H   UNL     1      -0.946  -1.955   5.310  0.00  0.00    +0.149 HD
BRANCH  27  31
ATOM     31  C   UNL     1       0.688  -2.538   4.086  0.00  0.00    +0.139 C 
BRANCH  31  37
ATOM     32  C   UNL     1       3.289  -0.704   7.948  0.00  0.00    +0.044 C 
ATOM     33  C   UNL     1       2.688  -0.526   6.578  0.00  0.00    -0.047 A 
ATOM     34  C   UNL     1       2.829   0.677   5.912  0.00  0.00    +0.003 A 
ATOM     35  C   UNL     1       2.276   0.840   4.655  0.00  0.00    +0.001 A 
ATOM     36  C   UNL     1       1.584  -0.201   4.064  0.00  0.00    +0.005 A 
ATOM     37  C   UNL     1       1.444  -1.404   4.730  0.00  0.00    -0.027 A 
ATOM     38  C   UNL     1       1.999  -1.568   5.985  0.00  0.00    -0.043 A 
ATOM     39  C   UNL     1       1.851  -2.882   6.709  0.00  0.00    +0.044 C 
ENDBRANCH  31  37
ENDBRANCH  27  31
ENDBRANCH   1  28
TORSDOF 5
