REMARK  Name = ZINC12283072
REMARK  7 active torsions:
REMARK  status: ('A' for Active; 'I' for Inactive)
REMARK    1  A    between atoms: C_1  and  C_2
REMARK    2  A    between atoms: C_2  and  C_4
REMARK    3  A    between atoms: C_2  and  N_14
REMARK    4  A    between atoms: C_15  and  C_17
REMARK    5  A    between atoms: C_20  and  C_25
REMARK    6  A    between atoms: C_25  and  N_64
REMARK    7  A    between atoms: C_28  and  C_31
REMARK                            x       y       z     vdW  Elec       q    Type
REMARK                         _______ _______ _______ _____ _____    ______ ____
ROOT
ATOM      1  C   UNL     1       1.107   3.248   0.449  0.00  0.00    +0.101 A 
ATOM      2  C   UNL     1      -0.074   3.974   0.594  0.00  0.00    +0.020 A 
ATOM      3  C   UNL     1      -1.274   3.284   0.765  0.00  0.00    +0.020 A 
ATOM      4  C   UNL     1      -1.282   1.927   0.785  0.00  0.00    +0.003 A 
ATOM      5  N   UNL     1      -0.138   1.215   0.651  0.00  0.00    -0.327 N 
ATOM      6  H   UNL     1      -0.173   0.246   0.672  0.00  0.00    +0.169 HD
ATOM      7  C   UNL     1       1.047   1.831   0.482  0.00  0.00    +0.261 A 
ATOM      8  O   UNL     1       2.066   1.173   0.358  0.00  0.00    -0.267 OA
ENDROOT
BRANCH   1  10
ATOM      9  N   UNL     1       3.541   3.234   0.255  0.00  0.00    -0.305 N 
ATOM     10  C   UNL     1       2.392   3.939   0.266  0.00  0.00    +0.250 C 
ATOM     11  O   UNL     1       2.419   5.147   0.123  0.00  0.00    -0.270 OA
ATOM     12  H   UNL     1       3.516   2.265   0.293  0.00  0.00    +0.150 HD
BRANCH   9  14
ATOM     13  C   UNL     1       5.152   4.264  -1.270  0.00  0.00    +0.033 C 
ATOM     14  C   UNL     1       4.828   3.931   0.188  0.00  0.00    +0.101 C 
BRANCH  14  15
ATOM     15  C   UNL     1       5.909   3.046   0.753  0.00  0.00    -0.020 A 
ATOM     16  C   UNL     1       5.780   1.692   0.703  0.00  0.00    +0.006 A 
ATOM     17  C   UNL     1       6.771   0.858   1.216  0.00  0.00    +0.001 A 
ATOM     18  C   UNL     1       7.892   1.373   1.792  0.00  0.00    +0.008 A 
ATOM     19  C   UNL     1       8.057   2.766   1.867  0.00  0.00    -0.018 A 
ATOM     20  C   UNL     1       7.051   3.615   1.341  0.00  0.00    -0.013 A 
ATOM     21  C   UNL     1       7.217   5.008   1.416  0.00  0.00    +0.009 A 
ATOM     22  C   UNL     1       8.338   5.523   1.991  0.00  0.00    +0.001 A 
ATOM     23  C   UNL     1       9.327   4.688   2.509  0.00  0.00    +0.001 A 
ATOM     24  C   UNL     1       9.201   3.334   2.454  0.00  0.00    +0.008 A 
ENDBRANCH  14  15
ENDBRANCH   9  14
ENDBRANCH   1  10
BRANCH   4  25
ATOM     25  C   UNL     1      -2.589   1.198   0.965  0.00  0.00    -0.024 C 
BRANCH  25  31
ATOM     26  C   UNL     1      -4.030  -0.480  -0.028  0.00  0.00    -0.073 C 
ATOM     27  C   UNL     1      -4.499  -1.011  -1.385  0.00  0.00    +0.017 C 
ATOM     28  C   UNL     1      -3.319  -1.520  -2.165  0.00  0.00    -0.048 C 
ATOM     29  C   UNL     1      -2.078  -1.212  -1.858  0.00  0.00    -0.041 C 
ATOM     30  C   UNL     1      -1.717  -0.331  -0.697  0.00  0.00    -0.050 C 
ATOM     31  N   UNL     1      -2.899   0.440  -0.269  0.00  0.00    +0.386 N 
ATOM     32  H   UNL     1      -3.156   1.100  -1.011  0.00  0.00    -0.081 HD
BRANCH  28  33
ATOM     33  C   UNL     1      -3.564  -2.402  -3.325  0.00  0.00    -0.022 A 
ATOM     34  C   UNL     1      -4.243  -1.917  -4.444  0.00  0.00    +0.011 A 
ATOM     35  C   UNL     1      -4.463  -2.743  -5.526  0.00  0.00    +0.039 A 
ATOM     36  C   UNL     1      -4.023  -4.057  -5.499  0.00  0.00    +0.123 A 
ATOM     37  C   UNL     1      -3.354  -4.545  -4.388  0.00  0.00    +0.039 A 
ATOM     38  C   UNL     1      -3.122  -3.726  -3.304  0.00  0.00    +0.011 A 
ATOM     39  F   UNL     1      -4.247  -4.863  -6.559  0.00  0.00    -0.205 F 
ENDBRANCH  28  33
ENDBRANCH  25  31
ENDBRANCH   4  25
TORSDOF 6
