REMARK  Name = ZINC09360963
REMARK  7 active torsions:
REMARK  status: ('A' for Active; 'I' for Inactive)
REMARK    1  A    between atoms: C_1  and  N_55
REMARK    2  A    between atoms: C_2  and  C_3
REMARK    3  A    between atoms: C_2  and  N_55
REMARK    4  A    between atoms: C_9  and  C_10
REMARK    5  A    between atoms: C_9  and  N_55
REMARK    6  A    between atoms: C_11  and  O_31
REMARK    7  A    between atoms: C_18  and  C_21
REMARK                            x       y       z     vdW  Elec       q    Type
REMARK                         _______ _______ _______ _____ _____    ______ ____
ROOT
ATOM      1  C   UNL     1      -7.212  -3.041  -0.150  0.00  0.00    +0.020 A 
ATOM      2  C   UNL     1      -8.255  -2.815   0.732  0.00  0.00    +0.122 A 
ATOM      3  C   UNL     1      -8.157  -1.824   1.706  0.00  0.00    +0.046 A 
ATOM      4  C   UNL     1      -7.028  -1.062   1.804  0.00  0.00    +0.019 A 
ATOM      5  C   UNL     1      -5.969  -1.277   0.922  0.00  0.00    +0.065 A 
ATOM      6  C   UNL     1      -6.057  -2.275  -0.065  0.00  0.00    +0.143 A 
ATOM      7  O   UNL     1      -5.032  -2.482  -0.915  0.00  0.00    -0.462 OA
ATOM      8  C   UNL     1      -3.900  -1.774  -0.887  0.00  0.00    +0.208 A 
ATOM      9  C   UNL     1      -3.680  -0.785   0.018  0.00  0.00    +0.064 A 
ATOM     10  C   UNL     1      -4.735  -0.474   0.997  0.00  0.00    +0.200 A 
ATOM     11  O   UNL     1      -4.596   0.406   1.829  0.00  0.00    -0.286 OA
ENDROOT
BRANCH   9  12
ATOM     12  C   UNL     1      -2.403  -0.030   0.016  0.00  0.00    -0.008 A 
ATOM     13  C   UNL     1      -2.416   1.364   0.026  0.00  0.00    +0.012 A 
ATOM     14  C   UNL     1      -1.228   2.065   0.019  0.00  0.00    +0.050 A 
ATOM     15  C   UNL     1      -0.017   1.387   0.010  0.00  0.00    +0.162 A 
ATOM     16  C   UNL     1       0.002  -0.004   0.002  0.00  0.00    +0.163 A 
ATOM     17  C   UNL     1      -1.189  -0.712   0.004  0.00  0.00    +0.058 A 
ATOM     18  O   UNL     1       1.181  -0.685  -0.007  0.00  0.00    -0.485 OA
ATOM     19  C   UNL     1       2.347   0.053  -0.387  0.00  0.00    +0.270 C 
ATOM     20  C   UNL     1       2.335   1.391   0.365  0.00  0.00    +0.270 C 
ATOM     21  O   UNL     1       1.144   2.098   0.002  0.00  0.00    -0.485 OA
ENDBRANCH   9  12
BRANCH   2  22
ATOM     22  O   UNL     1      -9.382  -3.566   0.647  0.00  0.00    -0.506 OA
ATOM     23  H   UNL     1      -9.361  -4.370   1.184  0.00  0.00    +0.292 HD
ENDBRANCH   2  22
BRANCH   1  24
ATOM     24  C   UNL     1      -7.329  -4.116  -1.199  0.00  0.00    -0.035 C 
BRANCH  24  26
ATOM     25  C   UNL     1      -7.675  -5.869   0.434  0.00  0.00    -0.095 C 
ATOM     26  N   UNL     1      -6.796  -5.380  -0.649  0.00  0.00    +0.383 N 
ATOM     27  H   UNL     1      -5.859  -5.208  -0.266  0.00  0.00    -0.081 HD
BRANCH  26  28
ATOM     28  C   UNL     1      -6.699  -6.396  -1.718  0.00  0.00    -0.043 C 
BRANCH  28  29
ATOM     29  C   UNL     1      -5.954  -7.592  -1.186  0.00  0.00    -0.064 A 
ATOM     30  C   UNL     1      -4.577  -7.653  -1.295  0.00  0.00    +0.002 A 
ATOM     31  C   UNL     1      -3.893  -8.749  -0.802  0.00  0.00    +0.000 A 
ATOM     32  C   UNL     1      -4.586  -9.788  -0.210  0.00  0.00    +0.000 A 
ATOM     33  C   UNL     1      -5.963  -9.729  -0.106  0.00  0.00    +0.000 A 
ATOM     34  C   UNL     1      -6.647  -8.632  -0.594  0.00  0.00    +0.002 A 
ENDBRANCH  28  29
ENDBRANCH  26  28
ENDBRANCH  24  26
ENDBRANCH   1  24
TORSDOF 6
