REMARK  Name = ZINC33051397
REMARK  7 active torsions:
REMARK  status: ('A' for Active; 'I' for Inactive)
REMARK    1  A    between atoms: C_1  and  C_2
REMARK    2  A    between atoms: C_2  and  C_3
REMARK    3  A    between atoms: C_8  and  N_9
REMARK    4  A    between atoms: C_15  and  C_38
REMARK    5  A    between atoms: N_17  and  C_32
REMARK    6  A    between atoms: C_24  and  C_26
REMARK    7  A    between atoms: C_38  and  C_39
REMARK                            x       y       z     vdW  Elec       q    Type
REMARK                         _______ _______ _______ _____ _____    ______ ____
ROOT
ATOM      1  N   UNL     1      -2.292  -1.394  -2.640  0.00  0.00    -0.269 N 
ATOM      2  C   UNL     1      -1.222  -1.050  -1.897  0.00  0.00    +0.308 C 
ATOM      3  O   UNL     1      -0.103  -1.142  -2.363  0.00  0.00    -0.252 OA
ATOM      4  N   UNL     1      -1.393  -0.604  -0.637  0.00  0.00    -0.268 N 
ATOM      5  C   UNL     1      -2.737  -0.475  -0.026  0.00  0.00    +0.151 C 
ATOM      6  C   UNL     1      -2.846   0.766   0.810  0.00  0.00    +0.036 A 
ATOM      7  C   UNL     1      -3.552   1.938   0.557  0.00  0.00    +0.070 A 
ATOM      8  N   UNL     1      -3.393   2.745   1.580  0.00  0.00    -0.169 NA
ATOM      9  N   UNL     1      -2.574   2.108   2.527  0.00  0.00    -0.215 N 
ATOM     10  C   UNL     1      -2.226   0.911   2.018  0.00  0.00    +0.146 A 
ATOM     11  N   UNL     1      -1.348  -0.071   2.489  0.00  0.00    -0.303 N 
ATOM     12  C   UNL     1      -1.230  -0.628   3.717  0.00  0.00    +0.093 A 
ATOM     13  C   UNL     1      -0.300  -1.608   3.640  0.00  0.00    +0.020 A 
ATOM     14  C   UNL     1       0.188  -1.628   2.315  0.00  0.00    +0.025 A 
ATOM     15  C   UNL     1      -0.442  -0.655   1.639  0.00  0.00    +0.050 A 
ATOM     16  C   UNL     1      -0.247  -0.214   0.218  0.00  0.00    +0.155 C 
ATOM     17  H   UNL     1      -3.308  -1.255  -2.241  0.00  0.00    +0.156 HD
ENDROOT
BRANCH   1  23
ATOM     18  C   UNL     1      -3.070  -2.774  -4.464  0.00  0.00    -0.026 A 
ATOM     19  C   UNL     1      -2.889  -3.300  -5.728  0.00  0.00    +0.005 A 
ATOM     20  C   UNL     1      -1.755  -2.985  -6.453  0.00  0.00    +0.000 A 
ATOM     21  C   UNL     1      -0.798  -2.144  -5.916  0.00  0.00    +0.002 A 
ATOM     22  C   UNL     1      -0.976  -1.611  -4.654  0.00  0.00    +0.023 A 
ATOM     23  C   UNL     1      -2.112  -1.929  -3.921  0.00  0.00    +0.038 A 
BRANCH  18  25
ATOM     24  C   UNL     1      -5.362  -2.028  -3.881  0.00  0.00    +0.009 C 
ATOM     25  C   UNL     1      -4.308  -3.117  -3.674  0.00  0.00    +0.033 C 
ENDBRANCH  18  25
ENDBRANCH   1  23
BRANCH  16  26
ATOM     26  C   UNL     1      -0.096   1.285   0.185  0.00  0.00    -0.021 A 
ATOM     27  C   UNL     1      -0.590   2.006  -0.887  0.00  0.00    +0.006 A 
ATOM     28  C   UNL     1      -0.455   3.381  -0.915  0.00  0.00    +0.000 A 
ATOM     29  C   UNL     1       0.181   4.035   0.123  0.00  0.00    +0.000 A 
ATOM     30  C   UNL     1       0.679   3.314   1.192  0.00  0.00    +0.000 A 
ATOM     31  C   UNL     1       0.540   1.939   1.223  0.00  0.00    +0.006 A 
ENDBRANCH  16  26
BRANCH   9  32
ATOM     32  C   UNL     1      -2.190   2.623   3.773  0.00  0.00    +0.068 A 
ATOM     33  C   UNL     1      -3.099   3.339   4.540  0.00  0.00    +0.028 A 
ATOM     34  C   UNL     1      -2.719   3.841   5.769  0.00  0.00    +0.002 A 
ATOM     35  C   UNL     1      -1.431   3.640   6.231  0.00  0.00    +0.000 A 
ATOM     36  C   UNL     1      -0.521   2.933   5.467  0.00  0.00    +0.002 A 
ATOM     37  C   UNL     1      -0.897   2.423   4.239  0.00  0.00    +0.028 A 
ENDBRANCH   9  32
BRANCH   7  38
ATOM     38  C   UNL     1      -4.360   2.231  -0.680  0.00  0.00    +0.054 C 
ATOM     39  C   UNL     1      -5.802   1.762  -0.470  0.00  0.00    +0.010 C 
ENDBRANCH   7  38
TORSDOF 5
