REMARK  Name = ZINC34756639
REMARK  5 active torsions:
REMARK  status: ('A' for Active; 'I' for Inactive)
REMARK    1  A    between atoms: C_1  and  C_2
REMARK    2  A    between atoms: C_2  and  C_3
REMARK    3  A    between atoms: C_2  and  C_4
REMARK    4  A    between atoms: C_7  and  N_10
REMARK    5  A    between atoms: C_18  and  N_32
REMARK                            x       y       z     vdW  Elec       q    Type
REMARK                         _______ _______ _______ _____ _____    ______ ____
ROOT
ATOM      1  N   UNL     1       2.668  -1.826  -4.617  0.00  0.00    -0.269 N 
ATOM      2  C   UNL     1       3.843  -2.479  -4.523  0.00  0.00    +0.307 C 
ATOM      3  O   UNL     1       4.300  -2.753  -3.430  0.00  0.00    -0.252 OA
ATOM      4  N   UNL     1       4.511  -2.829  -5.640  0.00  0.00    -0.281 N 
ATOM      5  C   UNL     1       4.072  -2.371  -6.969  0.00  0.00    +0.116 C 
ATOM      6  C   UNL     1       5.168  -1.476  -7.547  0.00  0.00    +0.072 C 
ATOM      7  C   UNL     1       6.519  -2.119  -7.391  0.00  0.00    +0.028 A 
ATOM      8  C   UNL     1       6.770  -3.119  -6.482  0.00  0.00    +0.029 A 
ATOM      9  C   UNL     1       8.065  -3.644  -6.401  0.00  0.00    +0.131 A 
ATOM     10  N   UNL     1       9.009  -3.170  -7.206  0.00  0.00    -0.201 NA
ATOM     11  C   UNL     1       8.727  -2.212  -8.076  0.00  0.00    +0.198 A 
ATOM     12  N   UNL     1       7.513  -1.695  -8.169  0.00  0.00    -0.331 N 
ATOM     13  N   UNL     1       9.727  -1.739  -8.908  0.00  0.00    -0.296 N 
ATOM     14  C   UNL     1      11.068  -2.349  -8.916  0.00  0.00    +0.113 C 
ATOM     15  C   UNL     1      11.296  -2.964 -10.296  0.00  0.00    +0.054 C 
ATOM     16  C   UNL     1      10.917  -1.994 -11.384  0.00  0.00    -0.041 A 
ATOM     17  C   UNL     1      11.446  -2.209 -12.651  0.00  0.00    +0.004 A 
ATOM     18  C   UNL     1      11.132  -1.363 -13.695  0.00  0.00    +0.000 A 
ATOM     19  C   UNL     1      10.284  -0.293 -13.482  0.00  0.00    +0.000 A 
ATOM     20  C   UNL     1       9.760  -0.075 -12.224  0.00  0.00    +0.005 A 
ATOM     21  C   UNL     1      10.080  -0.922 -11.171  0.00  0.00    -0.027 A 
ATOM     22  C   UNL     1       9.493  -0.615  -9.821  0.00  0.00    +0.143 C 
ATOM     23  C   UNL     1       5.708  -3.676  -5.580  0.00  0.00    +0.149 C 
ATOM     24  H   UNL     1       2.236  -1.726  -5.480  0.00  0.00    +0.156 HD
ATOM     25  H   UNL     1       7.343  -0.994  -8.818  0.00  0.00    +0.168 HD
ENDROOT
BRANCH   1  29
ATOM     26  C   UNL     1       0.890  -0.234  -1.202  0.00  0.00    -0.045 A 
ATOM     27  C   UNL     1       0.597   0.298  -2.444  0.00  0.00    +0.006 A 
ATOM     28  C   UNL     1       1.185  -0.227  -3.578  0.00  0.00    +0.023 A 
ATOM     29  C   UNL     1       2.071  -1.291  -3.470  0.00  0.00    +0.035 A 
ATOM     30  C   UNL     1       2.362  -1.824  -2.221  0.00  0.00    +0.023 A 
ATOM     31  C   UNL     1       1.776  -1.290  -1.090  0.00  0.00    +0.006 A 
BRANCH  26  33
ATOM     32  C   UNL     1       0.620   1.819   0.161  0.00  0.00    +0.012 C 
ATOM     33  C   UNL     1       0.246   0.341   0.033  0.00  0.00    +0.013 C 
ATOM     34  C   UNL     1      -1.274   0.206  -0.073  0.00  0.00    +0.012 C 
ENDBRANCH  26  33
ENDBRANCH   1  29
BRANCH   9  35
ATOM     35  N   UNL     1       8.359  -4.646  -5.490  0.00  0.00    -0.315 N 
ATOM     36  C   UNL     1       8.175  -6.087  -5.713  0.00  0.00    +0.106 C 
ATOM     37  C   UNL     1       8.610  -6.810  -4.421  0.00  0.00    +0.020 C 
ATOM     38  C   UNL     1       8.480  -5.702  -3.343  0.00  0.00    +0.020 C 
ATOM     39  C   UNL     1       8.914  -4.443  -4.139  0.00  0.00    +0.106 C 
ENDBRANCH   9  35
TORSDOF 3
