REMARK  Name = ZINC09312515
REMARK  7 active torsions:
REMARK  status: ('A' for Active; 'I' for Inactive)
REMARK    1  A    between atoms: C_4  and  N_35
REMARK    2  A    between atoms: C_5  and  C_7
REMARK    3  A    between atoms: C_10  and  C_12
REMARK    4  A    between atoms: C_14  and  C_26
REMARK    5  A    between atoms: C_16  and  C_21
REMARK    6  A    between atoms: C_18  and  O_20
REMARK    7  A    between atoms: C_26  and  C_28
REMARK                            x       y       z     vdW  Elec       q    Type
REMARK                         _______ _______ _______ _____ _____    ______ ____
ROOT
ATOM      1  C   UNL     1       2.353  -5.401  -1.300  0.00  0.00    +0.156 C 
ATOM      2  C   UNL     1       1.610  -5.649  -2.622  0.00  0.00    +0.152 C 
ATOM      3  C   UNL     1       1.731  -4.393  -3.488  0.00  0.00    +0.284 C 
ATOM      4  N   UNL     1       3.119  -3.950  -3.558  0.00  0.00    -0.306 N 
ATOM      5  C   UNL     1       4.022  -4.284  -2.699  0.00  0.00    +0.256 C 
ATOM      6  N   UNL     1       3.756  -5.108  -1.632  0.00  0.00    -0.290 N 
ATOM      7  O   UNL     1       0.932  -3.352  -2.923  0.00  0.00    -0.194 OA
ATOM      8  H   UNL     1       4.477  -5.491  -1.109  0.00  0.00    +0.151 HD
ATOM      9  H   UNL     1       3.377  -3.372  -4.292  0.00  0.00    +0.167 HD
ENDROOT
BRANCH   1  13
ATOM     10  C   UNL     1       1.250  -2.160  -0.023  0.00  0.00    +0.137 A 
ATOM     11  C   UNL     1       0.561  -2.976   0.819  0.00  0.00    +0.050 A 
ATOM     12  C   UNL     1       0.882  -4.299   0.454  0.00  0.00    +0.047 A 
ATOM     13  C   UNL     1       1.740  -4.226  -0.582  0.00  0.00    +0.127 A 
ATOM     14  O   UNL     1       1.957  -2.932  -0.870  0.00  0.00    -0.458 OA
BRANCH  10  19
ATOM     15  C   UNL     1      -0.017   1.375   0.010  0.00  0.00    +0.001 A 
ATOM     16  C   UNL     1       1.170   2.086   0.002  0.00  0.00    +0.002 A 
ATOM     17  C   UNL     1       2.383   1.420  -0.013  0.00  0.00    +0.033 A 
ATOM     18  C   UNL     1       2.416   0.041  -0.021  0.00  0.00    +0.137 A 
ATOM     19  C   UNL     1       1.222  -0.682  -0.014  0.00  0.00    +0.047 A 
ATOM     20  C   UNL     1       0.002  -0.004   0.002  0.00  0.00    +0.014 A 
BRANCH  18  21
ATOM     21  N   UNL     1       3.714  -0.670  -0.038  0.00  0.00    +0.057 N 
ATOM     22  O   UNL     1       4.747  -0.042  -0.045  0.00  0.00    -0.126 OA
ATOM     23  O   UNL     1       3.741  -1.879  -0.045  0.00  0.00    -0.126 OA
ENDBRANCH  18  21
ENDBRANCH  10  19
ENDBRANCH   1  13
BRANCH   3  24
ATOM     24  C   UNL     1       1.229  -4.704  -4.900  0.00  0.00    +0.441 C 
ATOM     25  F   UNL     1      -0.110  -5.105  -4.841  0.00  0.00    -0.166 F 
ATOM     26  F   UNL     1       1.338  -3.559  -5.696  0.00  0.00    -0.166 F 
ATOM     27  F   UNL     1       2.000  -5.732  -5.453  0.00  0.00    -0.166 F 
ENDBRANCH   3  24
BRANCH   5  28
ATOM     28  O   UNL     1       5.276  -3.806  -2.855  0.00  0.00    -0.483 OA
ATOM     29  H   UNL     1       5.386  -3.234  -3.627  0.00  0.00    +0.295 HD
ENDBRANCH   5  28
BRANCH   2  30
ATOM     30  C   UNL     1       0.157  -5.934  -2.341  0.00  0.00    +0.173 C 
ATOM     31  O   UNL     1      -0.382  -5.442  -1.373  0.00  0.00    -0.292 OA
BRANCH  30  32
ATOM     32  C   UNL     1      -0.608  -6.811  -3.242  0.00  0.00    +0.018 A 
ATOM     33  C   UNL     1       0.012  -7.385  -4.357  0.00  0.00    +0.013 A 
ATOM     34  C   UNL     1      -0.711  -8.205  -5.196  0.00  0.00    +0.020 A 
ATOM     35  C   UNL     1      -2.048  -8.461  -4.938  0.00  0.00    +0.041 A 
ATOM     36  C   UNL     1      -2.668  -7.895  -3.836  0.00  0.00    +0.020 A 
ATOM     37  C   UNL     1      -1.957  -7.078  -2.985  0.00  0.00    +0.013 A 
ATOM     38 CL   UNL     1      -2.951  -9.494  -6.002  0.00  0.00    -0.084 Cl
ENDBRANCH  30  32
ENDBRANCH   2  30
TORSDOF 7
