REMARK  Name = ZINC39477379
REMARK  6 active torsions:
REMARK  status: ('A' for Active; 'I' for Inactive)
REMARK    1  A    between atoms: C_1  and  C_2
REMARK    2  A    between atoms: C_12  and  C_14
REMARK    3  A    between atoms: C_14  and  C_16
REMARK    4  A    between atoms: C_14  and  S_17
REMARK    5  A    between atoms: S_17  and  C_18
REMARK    6  A    between atoms: C_21  and  C_23
REMARK                            x       y       z     vdW  Elec       q    Type
REMARK                         _______ _______ _______ _____ _____    ______ ____
ROOT
ATOM      1  C   UNL     1       1.045  -0.768   3.499  0.00  0.00    +0.139 C 
ATOM      2  C   UNL     1       1.992   0.358   3.920  0.00  0.00    +0.029 C 
ENDROOT
BRANCH   1  13
ATOM      3  C   UNL     1       1.861  -2.647   1.158  0.00  0.00    +0.029 C 
ATOM      4  C   UNL     1       1.952  -1.182   0.727  0.00  0.00    +0.083 C 
ATOM      5  C   UNL     1       2.069  -1.083  -0.803  0.00  0.00    +0.059 C 
ATOM      6  C   UNL     1       0.847  -0.301  -1.229  0.00  0.00    -0.024 A 
ATOM      7  C   UNL     1       0.416   0.096  -2.480  0.00  0.00    +0.005 A 
ATOM      8  C   UNL     1      -0.757   0.816  -2.615  0.00  0.00    +0.000 A 
ATOM      9  C   UNL     1      -1.499   1.137  -1.493  0.00  0.00    +0.002 A 
ATOM     10  C   UNL     1      -1.073   0.743  -0.243  0.00  0.00    +0.024 A 
ATOM     11  C   UNL     1       0.110   0.015  -0.099  0.00  0.00    +0.040 A 
ATOM     12  N   UNL     1       0.714  -0.475   1.066  0.00  0.00    -0.267 N 
ATOM     13  C   UNL     1       0.229  -0.321   2.314  0.00  0.00    +0.233 C 
ATOM     14  O   UNL     1      -0.864   0.176   2.482  0.00  0.00    -0.274 OA
ENDBRANCH   1  13
BRANCH   1  15
ATOM     15  S   UNL     1      -0.063  -1.173   4.878  0.00  0.00    -0.053 S 
BRANCH  15  16
ATOM     16  C   UNL     1       1.015  -1.810   6.118  0.00  0.00    +0.278 A 
ATOM     17  N   UNL     1       2.318  -1.937   6.024  0.00  0.00    -0.101 NA
ATOM     18  N   UNL     1       2.780  -2.436   7.116  0.00  0.00    -0.106 NA
ATOM     19  C   UNL     1       1.791  -2.647   7.950  0.00  0.00    +0.249 A 
ATOM     20  O   UNL     1       0.653  -2.250   7.338  0.00  0.00    -0.411 OA
BRANCH  19  21
ATOM     21  C   UNL     1       1.901  -3.211   9.312  0.00  0.00    +0.039 A 
ATOM     22  C   UNL     1       0.756  -3.387  10.091  0.00  0.00    +0.014 A 
ATOM     23  C   UNL     1       0.865  -3.914  11.362  0.00  0.00    +0.016 A 
ATOM     24  C   UNL     1       2.106  -4.267  11.864  0.00  0.00    +0.018 A 
ATOM     25  C   UNL     1       3.245  -4.095  11.095  0.00  0.00    +0.016 A 
ATOM     26  C   UNL     1       3.148  -3.575   9.821  0.00  0.00    +0.014 A 
ATOM     27 BR   UNL     1       2.246  -4.988  13.606  0.00  0.00    -0.050 Br
ENDBRANCH  19  21
ENDBRANCH  15  16
ENDBRANCH   1  15
TORSDOF 4
