REMARK  Name = ZINC12568990
REMARK  7 active torsions:
REMARK  status: ('A' for Active; 'I' for Inactive)
REMARK    1  A    between atoms: C_1  and  C_2
REMARK    2  A    between atoms: C_2  and  C_27
REMARK    3  A    between atoms: N_5  and  C_9
REMARK    4  A    between atoms: C_9  and  C_10
REMARK    5  A    between atoms: N_12  and  C_13
REMARK    6  A    between atoms: C_13  and  C_15
REMARK    7  A    between atoms: C_13  and  C_22
REMARK                            x       y       z     vdW  Elec       q    Type
REMARK                         _______ _______ _______ _____ _____    ______ ____
ROOT
ATOM      1  C   UNL     1      -1.585   5.895   7.845  0.00  0.00    +0.050 C 
ATOM      2  C   UNL     1      -2.243   5.119   6.703  0.00  0.00    +0.168 C 
ATOM      3  C   UNL     1      -1.461   5.298   5.417  0.00  0.00    +0.254 C 
ATOM      4  O   UNL     1      -0.311   4.976   5.208  0.00  0.00    -0.272 OA
ATOM      5  N   UNL     1      -2.310   5.889   4.553  0.00  0.00    -0.215 N 
ATOM      6  C   UNL     1      -3.506   6.110   5.110  0.00  0.00    +0.310 C 
ATOM      7  O   UNL     1      -4.436   6.635   4.529  0.00  0.00    -0.252 OA
ATOM      8  N   UNL     1      -3.567   5.683   6.384  0.00  0.00    -0.279 N 
ATOM      9  H   UNL     1      -4.331   5.738   6.979  0.00  0.00    +0.152 HD
ENDROOT
BRANCH   2  10
ATOM     10  C   UNL     1      -2.359   3.658   7.054  0.00  0.00    +0.138 A 
ATOM     11  C   UNL     1      -3.379   3.110   7.728  0.00  0.00    +0.056 A 
ATOM     12  C   UNL     1      -3.075   1.678   7.837  0.00  0.00    +0.020 A 
ATOM     13  C   UNL     1      -3.724   0.585   8.408  0.00  0.00    +0.011 A 
ATOM     14  C   UNL     1      -3.152  -0.655   8.338  0.00  0.00    +0.001 A 
ATOM     15  C   UNL     1      -1.932  -0.831   7.702  0.00  0.00    +0.004 A 
ATOM     16  C   UNL     1      -1.276   0.238   7.131  0.00  0.00    +0.047 A 
ATOM     17  C   UNL     1      -1.839   1.507   7.192  0.00  0.00    +0.135 A 
ATOM     18  O   UNL     1      -1.452   2.717   6.741  0.00  0.00    -0.457 OA
ENDBRANCH   2  10
BRANCH   5  19
ATOM     19  C   UNL     1      -1.965   6.249   3.175  0.00  0.00    +0.213 C 
BRANCH  19  20
ATOM     20  C   UNL     1      -2.283   5.096   2.259  0.00  0.00    +0.232 C 
ATOM     21  O   UNL     1      -2.752   4.073   2.712  0.00  0.00    -0.274 OA
ATOM     22  N   UNL     1      -2.046   5.201   0.937  0.00  0.00    -0.303 N 
ATOM     23  H   UNL     1      -1.671   6.019   0.575  0.00  0.00    +0.150 HD
BRANCH  22  24
ATOM     24  C   UNL     1      -2.355   4.080   0.046  0.00  0.00    +0.140 C 
BRANCH  24  25
ATOM     25  C   UNL     1      -2.596   4.598  -1.349  0.00  0.00    -0.022 A 
ATOM     26  C   UNL     1      -1.808   5.615  -1.853  0.00  0.00    +0.008 A 
ATOM     27  C   UNL     1      -2.026   6.088  -3.134  0.00  0.00    +0.038 A 
ATOM     28  C   UNL     1      -3.040   5.549  -3.907  0.00  0.00    +0.123 A 
ATOM     29  C   UNL     1      -3.832   4.533  -3.399  0.00  0.00    +0.038 A 
ATOM     30  C   UNL     1      -3.609   4.059  -2.120  0.00  0.00    +0.008 A 
ATOM     31  F   UNL     1      -3.256   6.013  -5.157  0.00  0.00    -0.205 F 
ENDBRANCH  24  25
BRANCH  24  32
ATOM     32  C   UNL     1      -1.196   3.116   0.030  0.00  0.00    +0.014 A 
ATOM     33  C   UNL     1      -1.213   1.761   0.017  0.00  0.00    +0.013 A 
ATOM     34  C   UNL     1      -0.013   1.076   0.008  0.00  0.00    +0.008 A 
ATOM     35  C   UNL     1       1.146   1.780   0.001  0.00  0.00    +0.045 A 
ATOM     36  S   UNL     1       0.555   3.464   0.015  0.00  0.00    -0.099 S 
ENDBRANCH  24  32
ENDBRANCH  22  24
ENDBRANCH  19  20
ENDBRANCH   5  19
TORSDOF 6
