REMARK  Name = ZINC39352894
REMARK  7 active torsions:
REMARK  status: ('A' for Active; 'I' for Inactive)
REMARK    1  A    between atoms: C_1  and  C_2
REMARK    2  A    between atoms: C_5  and  C_38
REMARK    3  A    between atoms: C_6  and  N_8
REMARK    4  A    between atoms: C_9  and  C_35
REMARK    5  A    between atoms: C_13  and  S_15
REMARK    6  A    between atoms: S_15  and  C_16
REMARK    7  A    between atoms: C_18  and  C_29
REMARK                            x       y       z     vdW  Elec       q    Type
REMARK                         _______ _______ _______ _____ _____    ______ ____
ROOT
ATOM      1  C   UNL     1      -3.659  -4.521   2.813  0.00  0.00    +0.167 C 
ATOM      2  C   UNL     1      -4.452  -5.583   2.076  0.00  0.00    -0.009 C 
ATOM      3  C   UNL     1      -5.630  -5.172   1.446  0.00  0.00    +0.003 A 
ATOM      4  C   UNL     1      -6.428  -6.095   0.738  0.00  0.00    +0.030 A 
ATOM      5  C   UNL     1      -7.571  -5.669   0.133  0.00  0.00    +0.042 A 
ATOM      6  C   UNL     1      -7.970  -4.335   0.199  0.00  0.00    +0.022 A 
ATOM      7  C   UNL     1      -7.241  -3.399   0.866  0.00  0.00    +0.025 A 
ATOM      8  C   UNL     1      -6.050  -3.768   1.515  0.00  0.00    +0.041 A 
ATOM      9  N   UNL     1      -5.335  -2.847   2.171  0.00  0.00    -0.284 N 
ATOM     10  C   UNL     1      -4.210  -3.113   2.803  0.00  0.00    +0.235 C 
ATOM     11  O   UNL     1      -3.612  -2.223   3.380  0.00  0.00    -0.274 OA
ATOM     12 CL   UNL     1      -8.550  -6.809  -0.736  0.00  0.00    -0.084 Cl
ATOM     13  H   UNL     1      -5.664  -1.935   2.183  0.00  0.00    +0.155 HD
ENDROOT
BRANCH   2  14
ATOM     14  C   UNL     1      -4.018  -6.932   2.028  0.00  0.00    -0.020 A 
ATOM     15  C   UNL     1      -3.644  -7.511   0.804  0.00  0.00    +0.008 A 
ATOM     16  C   UNL     1      -3.223  -8.822   0.768  0.00  0.00    +0.001 A 
ATOM     17  C   UNL     1      -3.169  -9.569   1.934  0.00  0.00    +0.000 A 
ATOM     18  C   UNL     1      -3.536  -9.007   3.146  0.00  0.00    +0.001 A 
ATOM     19  C   UNL     1      -3.954  -7.696   3.204  0.00  0.00    +0.008 A 
ENDBRANCH   2  14
BRANCH   1  20
ATOM     20  S   UNL     1      -1.993  -4.473   2.098  0.00  0.00    -0.096 S 
BRANCH  20  25
ATOM     21  N   UNL     1       0.283  -3.183   2.771  0.00  0.00    -0.274 N 
ATOM     22  C   UNL     1       1.285  -3.883   3.594  0.00  0.00    +0.219 C 
ATOM     23  N   UNL     1       0.536  -4.665   4.578  0.00  0.00    -0.167 NA
ATOM     24  N   UNL     1      -0.678  -4.522   4.447  0.00  0.00    -0.156 NA
ATOM     25  C   UNL     1      -1.003  -3.610   3.349  0.00  0.00    +0.276 C 
BRANCH  21  31
ATOM     26  C   UNL     1       1.070   1.375   1.111  0.00  0.00    +0.044 C 
ATOM     27  C   UNL     1       0.886  -0.100   0.864  0.00  0.00    -0.049 A 
ATOM     28  C   UNL     1       0.934  -0.596  -0.426  0.00  0.00    +0.004 A 
ATOM     29  C   UNL     1       0.765  -1.948  -0.657  0.00  0.00    +0.005 A 
ATOM     30  C   UNL     1       0.549  -2.809   0.401  0.00  0.00    -0.029 A 
ATOM     31  C   UNL     1       0.501  -2.315   1.698  0.00  0.00    +0.037 A 
ATOM     32  C   UNL     1       0.676  -0.956   1.927  0.00  0.00    +0.027 A 
ATOM     33  C   UNL     1       0.365  -4.284   0.148  0.00  0.00    +0.045 C 
ENDBRANCH  21  31
BRANCH  22  34
ATOM     34  C   UNL     1       2.130  -4.811   2.717  0.00  0.00    +0.034 C 
ATOM     35  C   UNL     1       3.651  -4.692   2.825  0.00  0.00    +0.008 C 
ATOM     36  C   UNL     1       2.929  -4.173   1.580  0.00  0.00    +0.008 C 
ENDBRANCH  22  34
ENDBRANCH  20  25
ENDBRANCH   1  20
TORSDOF 5
