REMARK  Name = ZINC11427202
REMARK  15 active torsions:
REMARK  status: ('A' for Active; 'I' for Inactive)
REMARK    1  A    between atoms: C_1  and  C_2
REMARK    2  A    between atoms: C_2  and  C_3
REMARK    3  A    between atoms: C_2  and  N_65
REMARK    4  A    between atoms: C_4  and  C_5
REMARK    5  A    between atoms: C_4  and  N_65
REMARK    6  A    between atoms: C_5  and  N_6
REMARK    7  A    between atoms: C_16  and  S_17
REMARK    8  A    between atoms: S_17  and  C_18
REMARK    9  A    between atoms: C_18  and  C_20
REMARK   10  A    between atoms: C_18  and  C_21
REMARK   11  A    between atoms: N_23  and  C_24
REMARK   12  A    between atoms: C_29  and  C_30
REMARK   13  A    between atoms: C_32  and  C_33
REMARK   14  A    between atoms: C_32  and  C_34
REMARK   15  A    between atoms: C_32  and  N_65
REMARK                            x       y       z     vdW  Elec       q    Type
REMARK                         _______ _______ _______ _____ _____    ______ ____
ROOT
ATOM      1  N   UNL     1       0.081   2.514   0.655  0.00  0.00    -0.289 N 
ATOM      2  C   UNL     1       0.791   3.470   1.298  0.00  0.00    +0.262 A 
ATOM      3  O   UNL     1       0.271   4.511   1.655  0.00  0.00    -0.267 OA
ATOM      4  C   UNL     1       2.215   3.205   1.548  0.00  0.00    +0.065 A 
ATOM      5  C   UNL     1       3.032   4.126   2.202  0.00  0.00    +0.015 A 
ATOM      6  C   UNL     1       4.350   3.829   2.410  0.00  0.00    +0.001 A 
ATOM      7  C   UNL     1       4.882   2.621   1.977  0.00  0.00    +0.002 A 
ATOM      8  C   UNL     1       4.104   1.701   1.333  0.00  0.00    +0.028 A 
ATOM      9  C   UNL     1       2.752   1.975   1.105  0.00  0.00    +0.079 A 
ATOM     10  N   UNL     1       1.949   1.095   0.474  0.00  0.00    -0.223 NA
ATOM     11  C   UNL     1       0.682   1.352   0.262  0.00  0.00    +0.173 A 
ENDROOT
BRANCH   1  12
ATOM     12  C   UNL     1      -1.341   2.729   0.375  0.00  0.00    +0.109 C 
BRANCH  12  13
ATOM     13  C   UNL     1      -2.177   2.199   1.542  0.00  0.00    -0.056 C 
BRANCH  13  14
ATOM     14  N   UNL     1      -3.608   2.353   1.209  0.00  0.00    +0.384 N 
ATOM     15  H   UNL     1      -3.768   3.302   0.851  0.00  0.00    -0.081 HD
BRANCH  14  17
ATOM     16  C   UNL     1      -4.431   0.058   0.808  0.00  0.00    -0.014 C 
ATOM     17  C   UNL     1      -3.993   1.377   0.168  0.00  0.00    -0.074 C 
ATOM     18  C   UNL     1      -5.152   1.960  -0.643  0.00  0.00    -0.014 C 
ENDBRANCH  14  17
BRANCH  14  19
ATOM     19  C   UNL     1      -4.433   2.151   2.419  0.00  0.00    -0.074 C 
ATOM     20  C   UNL     1      -4.016   3.172   3.480  0.00  0.00    -0.014 C 
ATOM     21  C   UNL     1      -5.904   2.364   2.058  0.00  0.00    -0.014 C 
ENDBRANCH  14  19
ENDBRANCH  13  14
ENDBRANCH  12  13
ENDBRANCH   1  12
BRANCH  11  22
ATOM     22  S   UNL     1      -0.292   0.143  -0.570  0.00  0.00    -0.075 S 
BRANCH  22  23
ATOM     23  C   UNL     1       0.961  -1.134  -0.847  0.00  0.00    +0.137 C 
ATOM     24  C   UNL     1       1.427  -1.691   0.500  0.00  0.00    +0.029 C 
BRANCH  23  25
ATOM     25  C   UNL     1       0.369  -2.247  -1.673  0.00  0.00    +0.230 C 
ATOM     26  O   UNL     1      -0.834  -2.382  -1.737  0.00  0.00    -0.274 OA
ATOM     27  N   UNL     1       1.179  -3.093  -2.341  0.00  0.00    -0.284 N 
ATOM     28  H   UNL     1       2.136  -2.941  -2.352  0.00  0.00    +0.155 HD
BRANCH  27  29
ATOM     29  C   UNL     1       0.639  -4.187  -3.016  0.00  0.00    +0.051 A 
ATOM     30  C   UNL     1      -0.610  -4.090  -3.614  0.00  0.00    +0.024 A 
ATOM     31  C   UNL     1      -1.141  -5.173  -4.286  0.00  0.00    +0.002 A 
ATOM     32  C   UNL     1      -0.439  -6.365  -4.360  0.00  0.00    +0.001 A 
ATOM     33  C   UNL     1       0.800  -6.481  -3.768  0.00  0.00    +0.021 A 
ATOM     34  C   UNL     1       1.352  -5.392  -3.089  0.00  0.00    +0.073 A 
BRANCH  34  35
ATOM     35  C   UNL     1       2.639  -5.506  -2.471  0.00  0.00    +0.101 C 
ATOM     36  N   UNL     1       3.660  -5.597  -1.981  0.00  0.00    -0.191 NA
ENDBRANCH  34  35
ENDBRANCH  27  29
ENDBRANCH  23  25
ENDBRANCH  22  23
ENDBRANCH  11  22
TORSDOF 10
