REMARK  Name = ZINC36024767
REMARK  5 active torsions:
REMARK  status: ('A' for Active; 'I' for Inactive)
REMARK    1  A    between atoms: C_4  and  C_7
REMARK    2  A    between atoms: C_7  and  C_8
REMARK    3  A    between atoms: N_12  and  C_29
REMARK    4  A    between atoms: C_20  and  C_22
REMARK    5  A    between atoms: C_29  and  C_30
REMARK                            x       y       z     vdW  Elec       q    Type
REMARK                         _______ _______ _______ _____ _____    ______ ____
ROOT
ATOM      1  C   UNL     1       4.762  -0.298   2.280  0.00  0.00    +0.023 C 
ATOM      2  C   UNL     1       5.886  -1.306   2.169  0.00  0.00    +0.201 C 
ATOM      3  O   UNL     1       5.788  -2.431   1.728  0.00  0.00    -0.277 OA
ATOM      4  N   UNL     1       7.016  -0.740   2.642  0.00  0.00    -0.309 N 
ATOM      5  C   UNL     1       6.730   0.626   3.088  0.00  0.00    +0.006 C 
ATOM      6  N   UNL     1       5.439   1.007   2.473  0.00  0.00    +0.401 N 
ATOM      7  C   UNL     1       6.606   0.669   4.610  0.00  0.00    +0.025 C 
ATOM      8  C   UNL     1       7.934   0.234   5.240  0.00  0.00    +0.108 C 
ATOM      9  N   UNL     1       9.012   1.066   4.689  0.00  0.00    -0.297 N 
ATOM     10  C   UNL     1       9.166   1.150   3.231  0.00  0.00    +0.108 C 
ATOM     11  C   UNL     1       7.829   1.577   2.618  0.00  0.00    +0.025 C 
ATOM     12  C   UNL     1       9.846   1.739   5.508  0.00  0.00    +0.249 C 
ATOM     13  O   UNL     1      10.675   2.495   5.041  0.00  0.00    -0.270 OA
ATOM     14  H   UNL     1       5.589   1.466   1.587  0.00  0.00    -0.082 HD
ATOM     15  H   UNL     1       4.906   1.596   3.095  0.00  0.00    -0.082 HD
ENDROOT
BRANCH  12  16
ATOM     16  C   UNL     1       9.751   1.558   6.970  0.00  0.00    +0.072 A 
ATOM     17  C   UNL     1       9.866   0.282   7.528  0.00  0.00    +0.016 A 
ATOM     18  C   UNL     1       9.777   0.120   8.894  0.00  0.00    +0.001 A 
ATOM     19  C   UNL     1       9.573   1.217   9.715  0.00  0.00    +0.003 A 
ATOM     20  C   UNL     1       9.457   2.482   9.172  0.00  0.00    +0.039 A 
ATOM     21  C   UNL     1       9.550   2.662   7.804  0.00  0.00    +0.135 A 
ATOM     22  F   UNL     1       9.443   3.900   7.274  0.00  0.00    -0.205 F 
ENDBRANCH  12  16
BRANCH   1  23
ATOM     23  C   UNL     1       3.932  -0.282   0.995  0.00  0.00    +0.028 C 
BRANCH  23  27
ATOM     24  C   UNL     1       0.696   2.473   1.422  0.00  0.00    +0.000 A 
ATOM     25  C   UNL     1       1.909   2.905   0.919  0.00  0.00    +0.000 A 
ATOM     26  C   UNL     1       2.957   2.013   0.781  0.00  0.00    +0.003 A 
ATOM     27  C   UNL     1       2.791   0.690   1.146  0.00  0.00    -0.048 A 
ATOM     28  C   UNL     1       1.578   0.259   1.650  0.00  0.00    +0.003 A 
ATOM     29  C   UNL     1       0.530   1.151   1.787  0.00  0.00    +0.000 A 
ENDBRANCH  23  27
ENDBRANCH   1  23
BRANCH   4  30
ATOM     30  C   UNL     1       8.327  -1.392   2.701  0.00  0.00    +0.141 C 
BRANCH  30  31
ATOM     31  C   UNL     1       8.953  -1.385   1.330  0.00  0.00    -0.026 A 
ATOM     32  C   UNL     1       9.103  -2.571   0.635  0.00  0.00    +0.009 A 
ATOM     33  C   UNL     1       9.677  -2.570  -0.623  0.00  0.00    +0.050 A 
ATOM     34  C   UNL     1      10.104  -1.379  -1.190  0.00  0.00    +0.166 A 
ATOM     35  C   UNL     1       9.953  -0.185  -0.489  0.00  0.00    +0.167 A 
ATOM     36  C   UNL     1       9.372  -0.193   0.769  0.00  0.00    +0.054 A 
ATOM     37  O   UNL     1      10.445   0.834  -1.252  0.00  0.00    -0.453 OA
ATOM     38  C   UNL     1      11.268   0.203  -2.251  0.00  0.00    +0.466 C 
ATOM     39  O   UNL     1      10.690  -1.109  -2.392  0.00  0.00    -0.453 OA
ENDBRANCH  30  31
ENDBRANCH   4  30
TORSDOF 5
