REMARK  Name = ZINC02777914
REMARK  8 active torsions:
REMARK  status: ('A' for Active; 'I' for Inactive)
REMARK    1  A    between atoms: C_1  and  C_2
REMARK    2  A    between atoms: C_10  and  C_14
REMARK    3  A    between atoms: C_14  and  C_15
REMARK    4  A    between atoms: C_14  and  C_16
REMARK    5  A    between atoms: C_14  and  C_17
REMARK    6  A    between atoms: N_20  and  N_21
REMARK    7  A    between atoms: C_22  and  C_24
REMARK    8  A    between atoms: N_28  and  C_29
REMARK                            x       y       z     vdW  Elec       q    Type
REMARK                         _______ _______ _______ _____ _____    ______ ____
ROOT
ATOM      1  C   UNL     1       6.490  -3.445  -6.728  0.00  0.00    +0.088 C 
ATOM      2  C   UNL     1       5.427  -3.039  -5.741  0.00  0.00    +0.129 A 
ATOM      3  N   UNL     1       5.612  -1.947  -5.032  0.00  0.00    -0.225 NA
ATOM      4  C   UNL     1       4.660  -1.611  -4.167  0.00  0.00    +0.116 A 
ATOM      5  C   UNL     1       3.475  -2.355  -3.973  0.00  0.00    +0.077 A 
ATOM      6  C   UNL     1       2.547  -1.836  -2.984  0.00  0.00    -0.023 A 
ATOM      7  C   UNL     1       2.911  -0.696  -2.351  0.00  0.00    -0.004 A 
ATOM      8  S   UNL     1       4.491  -0.267  -3.037  0.00  0.00    -0.073 S 
ATOM      9  C   UNL     1       2.142   0.041  -1.298  0.00  0.00    +0.046 C 
ATOM     10  C   UNL     1       0.698  -0.479  -1.297  0.00  0.00    -0.000 C 
ATOM     11  C   UNL     1       0.725  -2.010  -1.301  0.00  0.00    +0.009 C 
ATOM     12  C   UNL     1       1.222  -2.518  -2.653  0.00  0.00    +0.037 C 
ATOM     13  C   UNL     1       3.312  -3.540  -4.767  0.00  0.00    +0.280 A 
ATOM     14  O   UNL     1       2.327  -4.252  -4.675  0.00  0.00    -0.265 OA
ATOM     15  N   UNL     1       4.324  -3.817  -5.623  0.00  0.00    -0.209 N 
ENDROOT
BRANCH  10  16
ATOM     16  C   UNL     1      -0.026   0.019  -0.044  0.00  0.00    -0.035 C 
ATOM     17  C   UNL     1      -0.044   1.548  -0.039  0.00  0.00    +0.011 C 
ATOM     18  C   UNL     1       0.704  -0.487   1.202  0.00  0.00    +0.011 C 
ATOM     19  C   UNL     1      -1.463  -0.508  -0.042  0.00  0.00    +0.011 C 
ENDBRANCH  10  16
BRANCH  15  20
ATOM     20  N   UNL     1       4.225  -4.961  -6.426  0.00  0.00    -0.213 N 
ATOM     21  C   UNL     1       4.421  -6.181  -5.888  0.00  0.00    +0.281 C 
ATOM     22  O   UNL     1       4.776  -6.284  -4.729  0.00  0.00    -0.267 OA
ATOM     23  H   UNL     1       4.014  -4.875  -7.369  0.00  0.00    +0.176 HD
BRANCH  21  24
ATOM     24  C   UNL     1       4.207  -7.387  -6.702  0.00  0.00    +0.138 A 
ATOM     25  C   UNL     1       5.177  -8.146  -7.335  0.00  0.00    +0.068 A 
ATOM     26  C   UNL     1       4.481  -9.176  -7.974  0.00  0.00    +0.150 A 
ATOM     27  N   UNL     1       3.207  -9.016  -7.724  0.00  0.00    -0.178 NA
ATOM     28  N   UNL     1       3.011  -7.987  -6.981  0.00  0.00    -0.261 N 
ATOM     29  C   UNL     1       1.704  -7.524  -6.508  0.00  0.00    +0.173 C 
ATOM     30 BR   UNL     1       7.045  -7.853  -7.333  0.00  0.00    -0.046 Br
ENDBRANCH  21  24
ENDBRANCH  15  20
TORSDOF 3
