REMARK  Name = ZINC38547089
REMARK  7 active torsions:
REMARK  status: ('A' for Active; 'I' for Inactive)
REMARK    1  A    between atoms: C_1  and  C_2
REMARK    2  A    between atoms: C_2  and  C_3
REMARK    3  A    between atoms: C_5  and  C_16
REMARK    4  A    between atoms: C_6  and  N_8
REMARK    5  A    between atoms: C_9  and  C_11
REMARK    6  A    between atoms: C_16  and  C_18
REMARK    7  A    between atoms: C_16  and  N_24
REMARK                            x       y       z     vdW  Elec       q    Type
REMARK                         _______ _______ _______ _____ _____    ______ ____
ROOT
ATOM      1  C   UNL     1      -1.238  -0.842  -0.115  0.00  0.00    -0.008 A 
ATOM      2  C   UNL     1      -2.114  -1.050  -1.127  0.00  0.00    +0.019 A 
ATOM      3  C   UNL     1      -3.420  -1.391  -0.827  0.00  0.00    +0.006 A 
ATOM      4  C   UNL     1      -3.784  -1.507   0.481  0.00  0.00    +0.078 A 
ATOM      5  S   UNL     1      -2.254  -1.136   1.323  0.00  0.00    -0.078 S 
ENDROOT
BRANCH   4   6
ATOM      6  N   UNL     1      -5.028  -1.837   1.022  0.00  0.00    -0.273 N 
ATOM      7  C   UNL     1      -5.186  -1.901   2.358  0.00  0.00    +0.284 C 
ATOM      8  O   UNL     1      -4.245  -1.671   3.095  0.00  0.00    -0.266 OA
ATOM      9  H   UNL     1      -5.779  -2.020   0.435  0.00  0.00    +0.156 HD
BRANCH   7  10
ATOM     10  C   UNL     1      -6.493  -2.247   2.926  0.00  0.00    +0.189 A 
ATOM     11  C   UNL     1      -6.791  -2.341   4.256  0.00  0.00    +0.054 A 
ATOM     12  C   UNL     1      -8.147  -2.692   4.341  0.00  0.00    +0.042 A 
ATOM     13  C   UNL     1      -8.612  -2.796   3.077  0.00  0.00    +0.196 A 
ATOM     14  O   UNL     1      -7.614  -2.522   2.227  0.00  0.00    -0.458 OA
ENDBRANCH   7  10
ENDBRANCH   4   6
BRANCH   1  16
ATOM     15  C   UNL     1       0.354   1.058  -0.176  0.00  0.00    +0.009 C 
ATOM     16  C   UNL     1       0.220  -0.466  -0.184  0.00  0.00    +0.039 C 
ENDBRANCH   1  16
BRANCH   3  17
ATOM     17  C   UNL     1      -4.422  -1.629  -1.927  0.00  0.00    +0.135 C 
BRANCH  17  18
ATOM     18  N   UNL     1      -4.037  -0.862  -3.113  0.00  0.00    -0.320 N 
ATOM     19  C   UNL     1      -5.001  -0.493  -4.045  0.00  0.00    +0.097 A 
ATOM     20  C   UNL     1      -6.330  -0.852  -3.842  0.00  0.00    +0.041 A 
ATOM     21  C   UNL     1      -7.277  -0.479  -4.778  0.00  0.00    +0.005 A 
ATOM     22  C   UNL     1      -6.864   0.243  -5.889  0.00  0.00    +0.018 A 
ATOM     23  C   UNL     1      -5.529   0.565  -6.027  0.00  0.00    +0.084 A 
ATOM     24  N   UNL     1      -4.646   0.201  -5.116  0.00  0.00    -0.350 N 
ATOM     25  H   UNL     1      -3.111  -0.610  -3.249  0.00  0.00    +0.148 HD
ATOM     26  H   UNL     1      -3.715   0.444  -5.235  0.00  0.00    +0.166 HD
ENDBRANCH  17  18
BRANCH  17  27
ATOM     27  C   UNL     1      -4.455  -3.097  -2.267  0.00  0.00    -0.023 A 
ATOM     28  C   UNL     1      -3.478  -3.640  -3.080  0.00  0.00    +0.006 A 
ATOM     29  C   UNL     1      -3.508  -4.987  -3.392  0.00  0.00    +0.000 A 
ATOM     30  C   UNL     1      -4.515  -5.790  -2.891  0.00  0.00    +0.000 A 
ATOM     31  C   UNL     1      -5.492  -5.247  -2.077  0.00  0.00    +0.000 A 
ATOM     32  C   UNL     1      -5.459  -3.901  -1.761  0.00  0.00    +0.006 A 
ENDBRANCH  17  27
ENDBRANCH   3  17
TORSDOF 6
