REMARK  Name = ZINC39500977
REMARK  7 active torsions:
REMARK  status: ('A' for Active; 'I' for Inactive)
REMARK    1  A    between atoms: C_1  and  C_2
REMARK    2  A    between atoms: C_5  and  C_9
REMARK    3  A    between atoms: C_6  and  O_8
REMARK    4  A    between atoms: C_9  and  O_11
REMARK    5  A    between atoms: O_11  and  C_12
REMARK    6  A    between atoms: C_12  and  C_14
REMARK    7  A    between atoms: C_12  and  C_15
REMARK                            x       y       z     vdW  Elec       q    Type
REMARK                         _______ _______ _______ _____ _____    ______ ____
ROOT
ATOM      1  C   UNL     1       0.045  -6.342  -1.169  0.00  0.00    +0.259 C 
ATOM      2  C   UNL     1      -1.450  -6.562  -1.406  0.00  0.00    +0.062 C 
ENDROOT
BRANCH   1   3
ATOM      3  C   UNL     1       0.816  -6.771  -2.392  0.00  0.00    +0.260 C 
ATOM      4  O   UNL     1       1.350  -5.939  -3.095  0.00  0.00    -0.271 OA
ATOM      5  N   UNL     1       0.910  -8.079  -2.704  0.00  0.00    -0.268 N 
ATOM      6  C   UNL     1       0.206  -9.090  -1.904  0.00  0.00    +0.114 C 
ATOM      7  C   UNL     1       1.180 -10.249  -1.651  0.00  0.00    +0.024 C 
ATOM      8  C   UNL     1       1.550 -10.885  -2.990  0.00  0.00    +0.038 C 
ATOM      9  C   UNL     1       2.011  -9.833  -3.964  0.00  0.00    -0.026 A 
ATOM     10  C   UNL     1       1.678  -8.496  -3.800  0.00  0.00    +0.040 A 
ATOM     11  C   UNL     1       2.111  -7.551  -4.722  0.00  0.00    +0.024 A 
ATOM     12  C   UNL     1       2.871  -7.941  -5.807  0.00  0.00    +0.002 A 
ATOM     13  C   UNL     1       3.201  -9.273  -5.974  0.00  0.00    +0.000 A 
ATOM     14  C   UNL     1       2.780 -10.216  -5.051  0.00  0.00    +0.005 A 
ENDBRANCH   1   3
BRANCH   1  15
ATOM     15  O   UNL     1       0.289  -4.957  -0.915  0.00  0.00    -0.449 OA
BRANCH  15  16
ATOM     16  C   UNL     1       0.235  -4.552   0.369  0.00  0.00    +0.343 C 
ATOM     17  O   UNL     1      -0.012  -5.353   1.249  0.00  0.00    -0.245 OA
BRANCH  16  22
ATOM     18  C   UNL     1       1.173   0.972   1.680  0.00  0.00    +0.044 C 
ATOM     19  C   UNL     1       0.927  -0.475   1.341  0.00  0.00    -0.047 A 
ATOM     20  C   UNL     1       0.983  -0.892   0.020  0.00  0.00    +0.004 A 
ATOM     21  C   UNL     1       0.760  -2.213  -0.302  0.00  0.00    +0.019 A 
ATOM     22  C   UNL     1       0.475  -3.138   0.707  0.00  0.00    +0.100 A 
ATOM     23  C   UNL     1       0.420  -2.712   2.041  0.00  0.00    +0.131 A 
ATOM     24  C   UNL     1       0.653  -1.379   2.348  0.00  0.00    +0.049 A 
BRANCH  23  25
ATOM     25  O   UNL     1       0.145  -3.600   3.029  0.00  0.00    -0.506 OA
ATOM     26  H   UNL     1       0.928  -4.025   3.405  0.00  0.00    +0.292 HD
ENDBRANCH  23  25
ENDBRANCH  16  22
ENDBRANCH  15  16
ENDBRANCH   1  15
TORSDOF 5
