REMARK  Name = ZINC01825132
REMARK  11 active torsions:
REMARK  status: ('A' for Active; 'I' for Inactive)
REMARK    1  A    between atoms: C_1  and  C_2
REMARK    2  A    between atoms: C_2  and  O_3
REMARK    3  A    between atoms: O_3  and  C_4
REMARK    4  A    between atoms: C_8  and  C_11
REMARK    5  A    between atoms: C_9  and  O_10
REMARK    6  A    between atoms: N_12  and  N_13
REMARK    7  A    between atoms: C_14  and  C_16
REMARK    8  A    between atoms: C_16  and  S_17
REMARK    9  A    between atoms: S_17  and  C_18
REMARK   10  A    between atoms: N_31  and  C_32
REMARK   11  A    between atoms: C_35  and  C_38
REMARK                            x       y       z     vdW  Elec       q    Type
REMARK                         _______ _______ _______ _____ _____    ______ ____
ROOT
ATOM      1  C   UNL     1     -12.066  -3.521   0.727  0.00  0.00    +0.178 A 
ATOM      2  N   UNL     1     -12.083  -4.838   0.744  0.00  0.00    -0.215 NA
ATOM      3  C   UNL     1     -13.031  -5.514   0.105  0.00  0.00    +0.117 A 
ATOM      4  C   UNL     1     -14.052  -4.870  -0.614  0.00  0.00    +0.076 A 
ATOM      5  C   UNL     1     -15.025  -5.749  -1.267  0.00  0.00    -0.023 A 
ATOM      6  C   UNL     1     -14.848  -7.077  -1.116  0.00  0.00    -0.004 A 
ATOM      7  S   UNL     1     -13.397  -7.237  -0.111  0.00  0.00    -0.073 S 
ATOM      8  C   UNL     1     -15.698  -8.175  -1.679  0.00  0.00    +0.043 C 
ATOM      9  C   UNL     1     -17.025  -7.567  -2.154  0.00  0.00    +0.005 C 
ATOM     10  C   UNL     1     -16.723  -6.319  -2.989  0.00  0.00    +0.005 C 
ATOM     11  C   UNL     1     -16.193  -5.205  -2.086  0.00  0.00    +0.037 C 
ATOM     12  C   UNL     1     -14.009  -3.441  -0.615  0.00  0.00    +0.268 A 
ATOM     13  O   UNL     1     -14.855  -2.797  -1.212  0.00  0.00    -0.267 OA
ATOM     14  N   UNL     1     -13.025  -2.815   0.056  0.00  0.00    -0.255 N 
ENDROOT
BRANCH  14  15
ATOM     15  C   UNL     1     -12.980  -1.415   0.064  0.00  0.00    +0.052 A 
ATOM     16  C   UNL     1     -13.637  -0.703   1.058  0.00  0.00    +0.026 A 
ATOM     17  C   UNL     1     -13.590   0.678   1.063  0.00  0.00    +0.005 A 
ATOM     18  C   UNL     1     -12.890   1.351   0.078  0.00  0.00    -0.050 A 
ATOM     19  C   UNL     1     -12.235   0.644  -0.914  0.00  0.00    +0.005 A 
ATOM     20  C   UNL     1     -12.273  -0.736  -0.921  0.00  0.00    +0.026 A 
ATOM     21  C   UNL     1     -12.841   2.857   0.086  0.00  0.00    +0.044 C 
ENDBRANCH  14  15
BRANCH   1  22
ATOM     22  S   UNL     1     -10.793  -2.657   1.587  0.00  0.00    -0.078 S 
BRANCH  22  23
ATOM     23  C   UNL     1      -9.776  -3.976   2.307  0.00  0.00    +0.174 C 
BRANCH  23  25
ATOM     24  N   UNL     1      -7.744  -4.160   3.705  0.00  0.00    -0.206 N 
ATOM     25  C   UNL     1      -8.636  -3.366   3.079  0.00  0.00    +0.242 C 
ATOM     26  O   UNL     1      -8.520  -2.160   3.139  0.00  0.00    -0.273 OA
ATOM     27  H   UNL     1      -7.837  -5.125   3.657  0.00  0.00    +0.177 HD
BRANCH  24  29
ATOM     28  C   UNL     1      -5.825  -4.358   5.026  0.00  0.00    +0.142 C 
ATOM     29  N   UNL     1      -6.684  -3.593   4.423  0.00  0.00    -0.188 NA
BRANCH  28  34
ATOM     30  C   UNL     1      -3.516  -1.818   6.567  0.00  0.00    +0.162 A 
ATOM     31  C   UNL     1      -2.606  -2.644   7.207  0.00  0.00    +0.049 A 
ATOM     32  C   UNL     1      -2.741  -4.020   7.138  0.00  0.00    +0.004 A 
ATOM     33  C   UNL     1      -3.784  -4.582   6.431  0.00  0.00    +0.013 A 
ATOM     34  C   UNL     1      -4.710  -3.761   5.782  0.00  0.00    +0.040 A 
ATOM     35  C   UNL     1      -4.575  -2.369   5.857  0.00  0.00    +0.167 A 
BRANCH  35  36
ATOM     36  O   UNL     1      -5.473  -1.562   5.233  0.00  0.00    -0.503 OA
ATOM     37  H   UNL     1      -5.237  -1.341   4.322  0.00  0.00    +0.292 HD
ENDBRANCH  35  36
BRANCH  30  38
ATOM     38  O   UNL     1      -3.377  -0.467   6.639  0.00  0.00    -0.489 OA
BRANCH  38  40
ATOM     39  C   UNL     1      -2.273   1.561   7.354  0.00  0.00    +0.048 C 
ATOM     40  C   UNL     1      -2.265   0.031   7.386  0.00  0.00    +0.226 C 
ENDBRANCH  38  40
ENDBRANCH  30  38
ENDBRANCH  28  34
ENDBRANCH  24  29
ENDBRANCH  23  25
ENDBRANCH  22  23
ENDBRANCH   1  22
TORSDOF 9
