REMARK  Name = ZINC18249764
REMARK  7 active torsions:
REMARK  status: ('A' for Active; 'I' for Inactive)
REMARK    1  A    between atoms: C_1  and  C_2
REMARK    2  A    between atoms: C_6  and  C_8
REMARK    3  A    between atoms: C_8  and  O_10
REMARK    4  A    between atoms: O_10  and  C_11
REMARK    5  A    between atoms: C_14  and  C_17
REMARK    6  A    between atoms: C_22  and  C_26
REMARK    7  A    between atoms: C_22  and  C_27
REMARK                            x       y       z     vdW  Elec       q    Type
REMARK                         _______ _______ _______ _____ _____    ______ ____
ROOT
ATOM      1  C   UNL     1       0.306  11.586   0.203  0.00  0.00    +0.089 C 
ATOM      2  C   UNL     1      -0.396  11.956   1.491  0.00  0.00    +0.024 C 
ATOM      3  C   UNL     1      -1.698  12.307   1.525  0.00  0.00    +0.016 C 
ATOM      4  C   UNL     1      -2.372  12.645   2.835  0.00  0.00    +0.058 C 
ATOM      5  C   UNL     1      -1.357  13.279   3.788  0.00  0.00    -0.023 C 
ATOM      6  C   UNL     1      -0.213  12.283   4.005  0.00  0.00    +0.086 C 
ATOM      7  C   UNL     1       0.375  11.919   2.670  0.00  0.00    +0.162 C 
ATOM      8  O   UNL     1       1.541  11.585   2.606  0.00  0.00    -0.292 OA
ATOM      9  C   UNL     1      -0.809  14.569   3.174  0.00  0.00    +0.011 C 
ATOM     10  C   UNL     1      -2.030  13.589   5.127  0.00  0.00    +0.011 C 
ATOM     11  N   UNL     1      -2.470  12.370   0.391  0.00  0.00    -0.317 N 
ATOM     12  C   UNL     1      -1.851  12.374  -0.837  0.00  0.00    +0.047 C 
ATOM     13  C   UNL     1      -0.535  12.012  -0.971  0.00  0.00    +0.033 C 
ATOM     14  C   UNL     1      -0.151  12.112  -2.327  0.00  0.00    +0.193 C 
ATOM     15  O   UNL     1       0.950  11.869  -2.783  0.00  0.00    -0.287 OA
ATOM     16  C   UNL     1      -1.333  12.566  -3.091  0.00  0.00    +0.031 A 
ATOM     17  C   UNL     1      -2.387  12.725  -2.155  0.00  0.00    +0.007 A 
ATOM     18  C   UNL     1      -3.643  13.145  -2.562  0.00  0.00    +0.010 A 
ATOM     19  C   UNL     1      -3.816  13.399  -3.926  0.00  0.00    +0.001 A 
ATOM     20  C   UNL     1      -2.792  13.245  -4.830  0.00  0.00    +0.001 A 
ATOM     21  C   UNL     1      -1.518  12.822  -4.436  0.00  0.00    +0.012 A 
ATOM     22  H   UNL     1      -3.566  12.416   0.474  0.00  0.00    +0.152 HD
ENDROOT
BRANCH   1  26
ATOM     23  C   UNL     1       0.899   7.357   0.068  0.00  0.00    +0.132 A 
ATOM     24  C   UNL     1      -0.385   7.876   0.150  0.00  0.00    +0.046 A 
ATOM     25  C   UNL     1      -0.574   9.244   0.199  0.00  0.00    +0.008 A 
ATOM     26  C   UNL     1       0.515  10.095   0.155  0.00  0.00    -0.035 A 
ATOM     27  C   UNL     1       1.795   9.580   0.067  0.00  0.00    +0.008 A 
ATOM     28  C   UNL     1       1.989   8.213   0.023  0.00  0.00    +0.046 A 
BRANCH  23  29
ATOM     29  O   UNL     1       1.087   6.011   0.024  0.00  0.00    -0.422 OA
BRANCH  29  30
ATOM     30  C   UNL     1       1.507   5.416   1.158  0.00  0.00    +0.344 C 
ATOM     31  O   UNL     1       1.785   6.089   2.130  0.00  0.00    -0.245 OA
BRANCH  30  37
ATOM     32  C   UNL     1       2.633   1.279   3.709  0.00  0.00    +0.044 C 
ATOM     33  C   UNL     1       2.170   1.950   2.442  0.00  0.00    -0.050 A 
ATOM     34  C   UNL     1       1.858   1.187   1.330  0.00  0.00    +0.003 A 
ATOM     35  C   UNL     1       1.427   1.796   0.165  0.00  0.00    +0.001 A 
ATOM     36  C   UNL     1       1.311   3.169   0.102  0.00  0.00    +0.015 A 
ATOM     37  C   UNL     1       1.629   3.945   1.218  0.00  0.00    +0.060 A 
ATOM     38  C   UNL     1       2.064   3.325   2.391  0.00  0.00    +0.018 A 
ENDBRANCH  30  37
ENDBRANCH  29  30
ENDBRANCH  23  29
ENDBRANCH   1  26
TORSDOF 4
