REMARK  Name = ZINC19533613
REMARK  7 active torsions:
REMARK  status: ('A' for Active; 'I' for Inactive)
REMARK    1  A    between atoms: C_1  and  N_2
REMARK    2  A    between atoms: N_2  and  C_3
REMARK    3  A    between atoms: N_2  and  C_21
REMARK    4  A    between atoms: C_3  and  C_4
REMARK    5  A    between atoms: C_11  and  C_15
REMARK    6  A    between atoms: C_21  and  C_22
REMARK    7  A    between atoms: N_24  and  C_25
REMARK                            x       y       z     vdW  Elec       q    Type
REMARK                         _______ _______ _______ _____ _____    ______ ____
ROOT
ATOM      1  C   UNL     1       1.133   2.061   0.031  0.00  0.00    +0.094 A 
ATOM      2  N   UNL     1      -0.016   1.337   0.049  0.00  0.00    -0.312 N 
ATOM      3  H   UNL     1      -0.989   1.849   0.068  0.00  0.00    +0.170 HD
ATOM      4  C   UNL     1       0.004  -0.009   0.043  0.00  0.00    +0.260 A 
ATOM      5  O   UNL     1      -1.037  -0.643   0.059  0.00  0.00    -0.267 OA
ATOM      6  C   UNL     1       1.270  -0.686   0.017  0.00  0.00    +0.073 A 
ATOM      7  C   UNL     1       1.531  -2.065   0.007  0.00  0.00    +0.031 A 
ATOM      8  C   UNL     1       2.814  -2.510  -0.017  0.00  0.00    +0.022 A 
ATOM      9  S   UNL     1       3.757  -0.996  -0.028  0.00  0.00    -0.068 S 
ATOM     10  C   UNL     1       2.403   0.152   0.001  0.00  0.00    +0.116 A 
ATOM     11  N   UNL     1       2.301   1.476   0.009  0.00  0.00    -0.229 NA
ENDROOT
BRANCH   8  12
ATOM     12  C   UNL     1       3.306  -3.904  -0.032  0.00  0.00    -0.011 A 
ATOM     13  C   UNL     1       2.402  -4.967  -0.014  0.00  0.00    +0.009 A 
ATOM     14  C   UNL     1       2.868  -6.265  -0.033  0.00  0.00    +0.001 A 
ATOM     15  C   UNL     1       4.229  -6.514  -0.058  0.00  0.00    +0.000 A 
ATOM     16  C   UNL     1       5.131  -5.465  -0.070  0.00  0.00    +0.001 A 
ATOM     17  C   UNL     1       4.678  -4.162  -0.057  0.00  0.00    +0.009 A 
ENDBRANCH   8  12
BRANCH   1  18
ATOM     18  C   UNL     1       1.058   3.566   0.039  0.00  0.00    -0.003 C 
BRANCH  18  20
ATOM     19  C   UNL     1       3.094   3.813  -1.249  0.00  0.00    -0.095 C 
ATOM     20  N   UNL     1       2.417   4.123   0.018  0.00  0.00    +0.388 N 
ATOM     21  H   UNL     1       2.989   3.652   0.831  0.00  0.00    -0.081 HD
BRANCH  20  22
ATOM     22  C   UNL     1       2.397   5.572   0.262  0.00  0.00    +0.019 C 
BRANCH  22  23
ATOM     23  C   UNL     1       3.804   6.065   0.477  0.00  0.00    +0.201 C 
ATOM     24  O   UNL     1       4.733   5.287   0.431  0.00  0.00    -0.278 OA
ATOM     25  N   UNL     1       4.030   7.371   0.721  0.00  0.00    -0.286 N 
ATOM     26  H   UNL     1       3.200   8.092   0.673  0.00  0.00    +0.155 HD
BRANCH  25  27
ATOM     27  C   UNL     1       5.322   7.811   1.034  0.00  0.00    +0.047 A 
ATOM     28  C   UNL     1       6.239   6.932   1.594  0.00  0.00    +0.024 A 
ATOM     29  C   UNL     1       7.514   7.368   1.899  0.00  0.00    +0.002 A 
ATOM     30  C   UNL     1       7.874   8.681   1.656  0.00  0.00    +0.001 A 
ATOM     31  C   UNL     1       6.962   9.561   1.103  0.00  0.00    +0.017 A 
ATOM     32  C   UNL     1       5.686   9.130   0.792  0.00  0.00    +0.039 A 
ATOM     33 BR   UNL     1       4.438  10.333   0.037  0.00  0.00    -0.048 Br
ENDBRANCH  25  27
ENDBRANCH  22  23
ENDBRANCH  20  22
ENDBRANCH  18  20
ENDBRANCH   1  18
TORSDOF 6
