REMARK  Name = ZINC33027611
REMARK  5 active torsions:
REMARK  status: ('A' for Active; 'I' for Inactive)
REMARK    1  A    between atoms: C_1  and  C_2
REMARK    2  A    between atoms: C_5  and  C_20
REMARK    3  A    between atoms: C_6  and  C_8
REMARK    4  A    between atoms: C_8  and  S_9
REMARK    5  A    between atoms: S_9  and  C_10
REMARK                            x       y       z     vdW  Elec       q    Type
REMARK                         _______ _______ _______ _____ _____    ______ ____
ROOT
ATOM      1  C   UNL     1       1.622  -4.015   4.517  0.00  0.00    +0.194 A 
ATOM      2  N   UNL     1       2.722  -4.378   5.156  0.00  0.00    -0.202 NA
ATOM      3  C   UNL     1       2.648  -5.048   6.301  0.00  0.00    +0.166 A 
ATOM      4  C   UNL     1       1.385  -5.367   6.827  0.00  0.00    +0.174 A 
ATOM      5  C   UNL     1       0.245  -4.962   6.114  0.00  0.00    +0.302 A 
ATOM      6  N   UNL     1       0.409  -4.292   4.981  0.00  0.00    -0.181 NA
ATOM      7  O   UNL     1      -0.997  -5.245   6.576  0.00  0.00    -0.263 OA
ATOM      8  N   UNL     1       1.593  -6.041   7.985  0.00  0.00    -0.229 NA
ATOM      9  C   UNL     1       2.871  -6.152   8.197  0.00  0.00    +0.199 A 
ATOM     10  N   UNL     1       3.566  -5.555   7.186  0.00  0.00    -0.329 N 
ATOM     11  H   UNL     1       4.531  -5.500   7.107  0.00  0.00    +0.168 HD
ENDROOT
BRANCH   1  12
ATOM     12  S   UNL     1       1.770  -3.127   3.002  0.00  0.00    -0.081 S 
BRANCH  12  13
ATOM     13  C   UNL     1       0.054  -2.845   2.489  0.00  0.00    +0.112 C 
BRANCH  13  19
ATOM     14  C   UNL     1      -0.018   1.503   0.010  0.00  0.00    +0.044 C 
ATOM     15  C   UNL     1       0.002  -0.004   0.002  0.00  0.00    -0.050 A 
ATOM     16  C   UNL     1       0.006  -0.689  -1.199  0.00  0.00    +0.003 A 
ATOM     17  C   UNL     1       0.025  -2.071  -1.207  0.00  0.00    +0.004 A 
ATOM     18  C   UNL     1       0.040  -2.768  -0.013  0.00  0.00    -0.046 A 
ATOM     19  C   UNL     1       0.037  -2.084   1.188  0.00  0.00    -0.034 A 
ATOM     20  C   UNL     1       0.023  -0.702   1.195  0.00  0.00    +0.008 A 
ATOM     21  C   UNL     1       0.059  -4.275  -0.021  0.00  0.00    +0.044 C 
ENDBRANCH  13  19
ENDBRANCH  12  13
ENDBRANCH   1  12
TORSDOF 3
