REMARK  Name = ZINC09041089
REMARK  10 active torsions:
REMARK  status: ('A' for Active; 'I' for Inactive)
REMARK    1  A    between atoms: C_1  and  C_2
REMARK    2  A    between atoms: C_2  and  O_3
REMARK    3  A    between atoms: O_3  and  C_4
REMARK    4  A    between atoms: C_4  and  C_6
REMARK    5  A    between atoms: C_11  and  N_12
REMARK    6  A    between atoms: C_13  and  C_15
REMARK    7  A    between atoms: C_15  and  S_16
REMARK    8  A    between atoms: S_16  and  C_17
REMARK    9  A    between atoms: C_23  and  C_29
REMARK   10  A    between atoms: C_24  and  C_28
REMARK                            x       y       z     vdW  Elec       q    Type
REMARK                         _______ _______ _______ _____ _____    ______ ____
ROOT
ATOM      1  C   UNL     1       1.722   2.117  -0.061  0.00  0.00    +0.170 A 
ATOM      2  N   UNL     1       2.166   3.408  -0.069  0.00  0.00    -0.301 N 
ATOM      3  H   UNL     1       1.521   4.133  -0.054  0.00  0.00    +0.171 HD
ATOM      4  C   UNL     1       3.480   3.692  -0.093  0.00  0.00    +0.261 A 
ATOM      5  O   UNL     1       3.861   4.851  -0.095  0.00  0.00    -0.267 OA
ATOM      6  C   UNL     1       4.425   2.621  -0.121  0.00  0.00    +0.080 A 
ATOM      7  C   UNL     1       5.883   2.679  -0.155  0.00  0.00    +0.007 A 
ATOM      8  C   UNL     1       6.581   1.519  -0.178  0.00  0.00    -0.003 A 
ATOM      9  S   UNL     1       5.309   0.271  -0.155  0.00  0.00    -0.073 S 
ATOM     10  C   UNL     1       3.882   1.325  -0.116  0.00  0.00    +0.117 A 
ATOM     11  N   UNL     1       2.572   1.110  -0.087  0.00  0.00    -0.216 NA
ATOM     12  C   UNL     1       8.075   1.329  -0.214  0.00  0.00    +0.052 C 
ENDROOT
BRANCH   7  13
ATOM     13  C   UNL     1       6.587   3.983  -0.164  0.00  0.00    -0.016 A 
ATOM     14  C   UNL     1       6.492   4.838   0.933  0.00  0.00    +0.008 A 
ATOM     15  C   UNL     1       7.154   6.048   0.921  0.00  0.00    +0.001 A 
ATOM     16  C   UNL     1       7.902   6.420  -0.182  0.00  0.00    +0.000 A 
ATOM     17  C   UNL     1       7.995   5.579  -1.276  0.00  0.00    +0.001 A 
ATOM     18  C   UNL     1       7.342   4.363  -1.273  0.00  0.00    +0.008 A 
ENDBRANCH   7  13
BRANCH   1  19
ATOM     19  S   UNL     1      -0.010   1.792  -0.022  0.00  0.00    -0.078 S 
BRANCH  19  20
ATOM     20  C   UNL     1       0.009  -0.017  -0.033  0.00  0.00    +0.173 C 
BRANCH  20  22
ATOM     21  N   UNL     1      -1.638  -1.862  -0.005  0.00  0.00    -0.284 N 
ATOM     22  C   UNL     1      -1.406  -0.535  -0.003  0.00  0.00    +0.228 C 
ATOM     23  O   UNL     1      -2.336   0.244   0.023  0.00  0.00    -0.275 OA
ATOM     24  H   UNL     1      -0.899  -2.484  -0.092  0.00  0.00    +0.155 HD
BRANCH  21  30
ATOM     25  C   UNL     1      -3.192  -3.525   0.827  0.00  0.00    +0.080 A 
ATOM     26  C   UNL     1      -4.503  -3.995   0.941  0.00  0.00    +0.017 A 
ATOM     27  C   UNL     1      -5.537  -3.296   0.357  0.00  0.00    +0.001 A 
ATOM     28  C   UNL     1      -5.285  -2.127  -0.343  0.00  0.00    +0.002 A 
ATOM     29  C   UNL     1      -3.996  -1.648  -0.461  0.00  0.00    +0.024 A 
ATOM     30  C   UNL     1      -2.940  -2.341   0.116  0.00  0.00    +0.047 A 
BRANCH  25  31
ATOM     31  C   UNL     1      -2.082  -4.267   1.449  0.00  0.00    +0.341 C 
ATOM     32  O   UNL     1      -0.958  -3.806   1.432  0.00  0.00    -0.245 OA
BRANCH  31  33
ATOM     33  O   UNL     1      -2.313  -5.457   2.037  0.00  0.00    -0.461 OA
BRANCH  33  35
ATOM     34  C   UNL     1      -1.626  -7.458   3.244  0.00  0.00    +0.048 C 
ATOM     35  C   UNL     1      -1.172  -6.133   2.630  0.00  0.00    +0.229 C 
ENDBRANCH  33  35
ENDBRANCH  31  33
ENDBRANCH  25  31
ENDBRANCH  21  30
ENDBRANCH  20  22
ENDBRANCH  19  20
ENDBRANCH   1  19
TORSDOF 8
