REMARK  Name = ZINC06651936
REMARK  8 active torsions:
REMARK  status: ('A' for Active; 'I' for Inactive)
REMARK    1  A    between atoms: C_1  and  C_2
REMARK    2  A    between atoms: C_5  and  S_8
REMARK    3  A    between atoms: S_8  and  N_11
REMARK    4  A    between atoms: N_11  and  C_12
REMARK    5  A    between atoms: N_11  and  C_13
REMARK    6  A    between atoms: C_16  and  C_19
REMARK    7  A    between atoms: N_21  and  C_22
REMARK    8  A    between atoms: C_23  and  C_27
REMARK                            x       y       z     vdW  Elec       q    Type
REMARK                         _______ _______ _______ _____ _____    ______ ____
ROOT
ATOM      1  C   UNL     1      -5.262  -0.455   0.302  0.00  0.00    +0.051 A 
ATOM      2  C   UNL     1      -5.460   0.918   0.415  0.00  0.00    +0.025 A 
ATOM      3  C   UNL     1      -4.392   1.751   0.657  0.00  0.00    +0.015 A 
ATOM      4  C   UNL     1      -3.107   1.217   0.789  0.00  0.00    +0.037 A 
ATOM      5  C   UNL     1      -2.910  -0.162   0.670  0.00  0.00    +0.015 A 
ATOM      6  C   UNL     1      -3.983  -0.990   0.433  0.00  0.00    +0.025 A 
ENDROOT
BRANCH   4   7
ATOM      7  C   UNL     1      -1.960   2.107   1.048  0.00  0.00    +0.249 C 
ATOM      8  O   UNL     1      -2.131   3.307   1.147  0.00  0.00    -0.270 OA
ATOM      9  N   UNL     1      -0.721   1.591   1.175  0.00  0.00    -0.275 N 
ATOM     10  H   UNL     1      -0.584   0.634   1.097  0.00  0.00    +0.156 HD
BRANCH   9  11
ATOM     11  C   UNL     1       0.358   2.429   1.413  0.00  0.00    +0.089 A 
ATOM     12  C   UNL     1       1.696   2.088   1.573  0.00  0.00    +0.080 A 
ATOM     13  C   UNL     1       2.618   3.173   1.808  0.00  0.00    +0.028 A 
ATOM     14  C   UNL     1       2.104   4.415   1.863  0.00  0.00    +0.048 A 
ATOM     15  S   UNL     1       0.364   4.151   1.591  0.00  0.00    -0.081 S 
BRANCH  12  16
ATOM     16  C   UNL     1       2.138   0.728   1.503  0.00  0.00    +0.102 C 
ATOM     17  N   UNL     1       2.489  -0.351   1.447  0.00  0.00    -0.191 NA
ENDBRANCH  12  16
ENDBRANCH   9  11
ENDBRANCH   4   7
BRANCH   1  18
ATOM     18  N   UNL     1      -6.343  -1.294   0.058  0.00  0.00    -0.206 N 
ATOM     19  C   UNL     1      -7.690  -0.893   0.472  0.00  0.00    +0.157 C 
BRANCH  18  20
ATOM     20  S   UNL     1      -6.109  -2.747  -0.702  0.00  0.00    +0.074 S 
ATOM     21  O   UNL     1      -7.340  -3.081  -1.328  0.00  0.00    -0.150 OA
ATOM     22  O   UNL     1      -4.891  -2.635  -1.425  0.00  0.00    -0.150 OA
BRANCH  20  27
ATOM     23  C   UNL     1      -5.186  -6.880   3.597  0.00  0.00    +0.044 C 
ATOM     24  C   UNL     1      -5.417  -5.848   2.523  0.00  0.00    -0.050 A 
ATOM     25  C   UNL     1      -6.705  -5.491   2.173  0.00  0.00    +0.005 A 
ATOM     26  C   UNL     1      -6.917  -4.544   1.188  0.00  0.00    +0.029 A 
ATOM     27  C   UNL     1      -5.840  -3.954   0.554  0.00  0.00    +0.109 A 
ATOM     28  C   UNL     1      -4.551  -4.314   0.901  0.00  0.00    +0.029 A 
ATOM     29  C   UNL     1      -4.340  -5.258   1.889  0.00  0.00    +0.005 A 
ENDBRANCH  20  27
ENDBRANCH  18  20
ENDBRANCH   1  18
TORSDOF 6
