REMARK  Name = ZINC38758113
REMARK  8 active torsions:
REMARK  status: ('A' for Active; 'I' for Inactive)
REMARK    1  A    between atoms: C_1  and  C_2
REMARK    2  A    between atoms: C_7  and  C_12
REMARK    3  A    between atoms: C_14  and  C_17
REMARK    4  A    between atoms: C_17  and  O_18
REMARK    5  A    between atoms: O_18  and  C_19
REMARK    6  A    between atoms: C_19  and  C_21
REMARK    7  A    between atoms: C_26  and  S_27
REMARK    8  A    between atoms: S_27  and  C_28
REMARK                            x       y       z     vdW  Elec       q    Type
REMARK                         _______ _______ _______ _____ _____    ______ ____
ROOT
ATOM      1  C   UNL     1      -2.443  -5.094   2.284  0.00  0.00    +0.168 A 
ATOM      2  C   UNL     1      -2.136  -6.142   3.097  0.00  0.00    +0.079 A 
ATOM      3  C   UNL     1      -3.206  -7.046   3.061  0.00  0.00    +0.121 A 
ATOM      4  N   UNL     1      -4.120  -6.567   2.263  0.00  0.00    -0.079 NA
ATOM      5  O   UNL     1      -3.661  -5.325   1.761  0.00  0.00    -0.354 OA
ENDROOT
BRANCH   1  11
ATOM      6  C   UNL     1      -0.019   1.526   0.010  0.00  0.00    +0.052 C 
ATOM      7  C   UNL     1       0.002  -0.004   0.002  0.00  0.00    +0.175 C 
ATOM      8  C   UNL     1      -1.435  -0.572   0.076  0.00  0.00    +0.083 C 
ATOM      9  C   UNL     1      -1.241  -1.803   0.940  0.00  0.00    -0.002 A 
ATOM     10  C   UNL     1      -2.037  -2.900   1.172  0.00  0.00    +0.019 A 
ATOM     11  C   UNL     1      -1.595  -3.911   2.028  0.00  0.00    +0.020 A 
ATOM     12  C   UNL     1      -0.345  -3.795   2.641  0.00  0.00    +0.015 A 
ATOM     13  C   UNL     1       0.442  -2.692   2.404  0.00  0.00    +0.046 A 
ATOM     14  C   UNL     1       0.001  -1.679   1.553  0.00  0.00    +0.124 A 
ATOM     15  O   UNL     1       0.612  -0.512   1.201  0.00  0.00    -0.488 OA
ENDBRANCH   1  11
BRANCH   3  16
ATOM     16  C   UNL     1      -3.287  -8.349   3.814  0.00  0.00    +0.291 C 
BRANCH  16  17
ATOM     17  O   UNL     1      -2.095  -8.530   4.582  0.00  0.00    -0.455 OA
BRANCH  17  18
ATOM     18  C   UNL     1      -2.007  -9.655   5.319  0.00  0.00    +0.341 C 
ATOM     19  O   UNL     1      -2.918 -10.460   5.310  0.00  0.00    -0.245 OA
BRANCH  18  20
ATOM     20  C   UNL     1      -0.808  -9.908   6.135  0.00  0.00    +0.072 A 
ATOM     21  C   UNL     1       0.239  -8.982   6.153  0.00  0.00    +0.016 A 
ATOM     22  C   UNL     1       1.357  -9.225   6.919  0.00  0.00    +0.001 A 
ATOM     23  C   UNL     1       1.452 -10.385   7.674  0.00  0.00    +0.001 A 
ATOM     24  C   UNL     1       0.428 -11.309   7.667  0.00  0.00    +0.015 A 
ATOM     25  C   UNL     1      -0.712 -11.079   6.905  0.00  0.00    +0.022 A 
BRANCH  25  26
ATOM     26  S   UNL     1      -2.025 -12.254   6.900  0.00  0.00    -0.128 S 
ATOM     27  C   UNL     1      -1.449 -13.561   8.018  0.00  0.00    +0.090 C 
ENDBRANCH  25  26
ENDBRANCH  18  20
ENDBRANCH  17  18
ENDBRANCH  16  17
ENDBRANCH   3  16
TORSDOF 6
