REMARK  Name = ZINC00875641
REMARK  5 active torsions:
REMARK  status: ('A' for Active; 'I' for Inactive)
REMARK    1  A    between atoms: C_1  and  C_2
REMARK    2  A    between atoms: C_3  and  O_28
REMARK    3  A    between atoms: C_11  and  C_13
REMARK    4  A    between atoms: C_21  and  C_26
REMARK    5  A    between atoms: C_21  and  C_27
REMARK                            x       y       z     vdW  Elec       q    Type
REMARK                         _______ _______ _______ _____ _____    ______ ____
ROOT
ATOM      1  C   UNL     1       0.778   2.108  -3.036  0.00  0.00    +0.051 C 
ATOM      2  C   UNL     1       1.225   3.363  -2.332  0.00  0.00    +0.033 A 
ATOM      3  C   UNL     1       2.438   3.945  -2.663  0.00  0.00    +0.123 A 
ATOM      4  C   UNL     1       2.848   5.101  -2.014  0.00  0.00    +0.046 A 
ATOM      5  C   UNL     1       2.049   5.665  -1.039  0.00  0.00    +0.011 A 
ATOM      6  C   UNL     1       0.837   5.083  -0.704  0.00  0.00    +0.002 A 
ATOM      7  C   UNL     1       0.420   3.933  -1.353  0.00  0.00    +0.133 A 
ATOM      8  O   UNL     1      -0.768   3.340  -1.067  0.00  0.00    -0.468 OA
ATOM      9  C   UNL     1      -1.416   3.695   0.154  0.00  0.00    +0.180 C 
ATOM     10  C   UNL     1      -1.444   5.223   0.269  0.00  0.00    +0.081 C 
ATOM     11  C   UNL     1      -0.003   5.727   0.370  0.00  0.00    +0.058 C 
ATOM     12  C   UNL     1      -0.644   3.108   1.338  0.00  0.00    +0.094 C 
ATOM     13  C   UNL     1      -0.729   1.579   1.267  0.00  0.00    +0.033 C 
ATOM     14  N   UNL     1      -2.135   1.176   1.219  0.00  0.00    -0.321 N 
ATOM     15  C   UNL     1      -3.071   1.972   0.676  0.00  0.00    +0.133 C 
ATOM     16  S   UNL     1      -4.693   1.427   0.640  0.00  0.00    -0.019 S 
ATOM     17  N   UNL     1      -2.784   3.177   0.161  0.00  0.00    -0.289 N 
ATOM     18  C   UNL     1      -0.013   1.086   0.008  0.00  0.00    +0.031 C 
ATOM     19  C   UNL     1      -0.065   0.972   2.504  0.00  0.00    +0.031 C 
ATOM     20  H   UNL     1      -2.396   0.318   1.588  0.00  0.00    +0.148 HD
ATOM     21  H   UNL     1      -3.498   3.716  -0.214  0.00  0.00    +0.151 HD
ENDROOT
BRANCH  11  22
ATOM     22  C   UNL     1       0.019   7.223   0.193  0.00  0.00    -0.039 A 
ATOM     23  C   UNL     1      -0.447   7.787  -0.980  0.00  0.00    +0.007 A 
ATOM     24  C   UNL     1      -0.432   9.160  -1.142  0.00  0.00    +0.038 A 
ATOM     25  C   UNL     1       0.059   9.970  -0.132  0.00  0.00    +0.123 A 
ATOM     26  C   UNL     1       0.530   9.404   1.041  0.00  0.00    +0.038 A 
ATOM     27  C   UNL     1       0.509   8.031   1.202  0.00  0.00    +0.007 A 
ATOM     28  F   UNL     1       0.078  11.311  -0.290  0.00  0.00    -0.205 F 
ENDBRANCH  11  22
BRANCH   3  29
ATOM     29  O   UNL     1       3.224   3.386  -3.620  0.00  0.00    -0.506 OA
ATOM     30  H   UNL     1       3.853   2.735  -3.281  0.00  0.00    +0.292 HD
ENDBRANCH   3  29
TORSDOF 2
