REMARK  Name = ZINC39365050
REMARK  9 active torsions:
REMARK  status: ('A' for Active; 'I' for Inactive)
REMARK    1  A    between atoms: C_1  and  N_2
REMARK    2  A    between atoms: N_2  and  C_3
REMARK    3  A    between atoms: C_3  and  N_5
REMARK    4  A    between atoms: C_6  and  C_30
REMARK    5  A    between atoms: C_9  and  C_11
REMARK    6  A    between atoms: C_13  and  C_24
REMARK    7  A    between atoms: C_33  and  N_36
REMARK    8  A    between atoms: N_36  and  C_37
REMARK    9  A    between atoms: N_36  and  C_38
REMARK                            x       y       z     vdW  Elec       q    Type
REMARK                         _______ _______ _______ _____ _____    ______ ____
ROOT
ATOM      1  N   UNL     1      -2.448  -1.602  -0.041  0.00  0.00    -0.197 N 
ATOM      2  C   UNL     1      -3.600  -2.510   0.085  0.00  0.00    +0.136 C 
ATOM      3  C   UNL     1      -2.945  -3.905   0.157  0.00  0.00    +0.083 C 
ATOM      4  C   UNL     1      -1.464  -3.613   0.061  0.00  0.00    +0.055 C 
ATOM      5  N   UNL     1      -1.279  -2.361  -0.048  0.00  0.00    -0.185 NA
ENDROOT
BRANCH   4   6
ATOM      6  C   UNL     1      -0.372  -4.652   0.085  0.00  0.00    +0.152 C 
ATOM      7  C   UNL     1       0.934  -3.961  -0.254  0.00  0.00    -0.014 C 
ATOM      8  C   UNL     1       1.963  -4.052   0.688  0.00  0.00    +0.002 A 
ATOM      9  C   UNL     1       3.212  -3.438   0.453  0.00  0.00    +0.030 A 
ATOM     10  C   UNL     1       4.196  -3.542   1.387  0.00  0.00    +0.042 A 
ATOM     11  C   UNL     1       3.997  -4.244   2.574  0.00  0.00    +0.022 A 
ATOM     12  C   UNL     1       2.814  -4.856   2.857  0.00  0.00    +0.025 A 
ATOM     13  C   UNL     1       1.752  -4.790   1.937  0.00  0.00    +0.041 A 
ATOM     14  N   UNL     1       0.591  -5.392   2.217  0.00  0.00    -0.284 N 
ATOM     15  C   UNL     1      -0.451  -5.376   1.409  0.00  0.00    +0.230 C 
ATOM     16  O   UNL     1      -1.477  -5.946   1.730  0.00  0.00    -0.274 OA
ATOM     17 CL   UNL     1       5.731  -2.785   1.093  0.00  0.00    -0.084 Cl
ATOM     18  H   UNL     1       0.511  -5.865   3.060  0.00  0.00    +0.155 HD
BRANCH   7  19
ATOM     19  C   UNL     1       1.105  -3.256  -1.472  0.00  0.00    -0.020 A 
ATOM     20  C   UNL     1       1.322  -1.868  -1.461  0.00  0.00    +0.008 A 
ATOM     21  C   UNL     1       1.487  -1.192  -2.650  0.00  0.00    +0.001 A 
ATOM     22  C   UNL     1       1.439  -1.876  -3.853  0.00  0.00    +0.000 A 
ATOM     23  C   UNL     1       1.226  -3.245  -3.875  0.00  0.00    +0.001 A 
ATOM     24  C   UNL     1       1.065  -3.941  -2.698  0.00  0.00    +0.008 A 
ENDBRANCH   7  19
ENDBRANCH   4   6
BRANCH   2  25
ATOM     25  C   UNL     1      -4.497  -2.402  -1.122  0.00  0.00    -0.025 A 
ATOM     26  C   UNL     1      -3.944  -2.255  -2.381  0.00  0.00    +0.007 A 
ATOM     27  C   UNL     1      -4.763  -2.155  -3.488  0.00  0.00    +0.023 A 
ATOM     28  C   UNL     1      -6.143  -2.203  -3.337  0.00  0.00    +0.029 A 
ATOM     29  C   UNL     1      -6.695  -2.351  -2.070  0.00  0.00    +0.023 A 
ATOM     30  C   UNL     1      -5.870  -2.455  -0.968  0.00  0.00    +0.007 A 
BRANCH  28  31
ATOM     31  N   UNL     1      -6.974  -2.102  -4.455  0.00  0.00    -0.336 N 
ATOM     32  C   UNL     1      -6.393  -2.066  -5.799  0.00  0.00    +0.129 C 
ATOM     33  C   UNL     1      -8.427  -2.032  -4.283  0.00  0.00    +0.129 C 
ENDBRANCH  28  31
ENDBRANCH   2  25
BRANCH   1  34
ATOM     34  C   UNL     1      -2.513  -0.260  -0.139  0.00  0.00    +0.153 C 
ATOM     35  S   UNL     1      -4.033   0.528  -0.115  0.00  0.00    -0.017 S 
BRANCH  34  37
ATOM     36  C   UNL     1      -1.452   1.923  -0.362  0.00  0.00    +0.127 C 
ATOM     37  N   UNL     1      -1.382   0.463  -0.255  0.00  0.00    -0.328 N 
ATOM     38  H   UNL     1      -0.520   0.017  -0.269  0.00  0.00    +0.147 HD
ENDBRANCH  34  37
ENDBRANCH   1  34
TORSDOF 6
