REMARK  Name = ZINC66703798
REMARK  9 active torsions:
REMARK  status: ('A' for Active; 'I' for Inactive)
REMARK    1  A    between atoms: C_1  and  C_2
REMARK    2  A    between atoms: C_2  and  C_4
REMARK    3  A    between atoms: C_2  and  N_21
REMARK    4  A    between atoms: C_4  and  N_5
REMARK    5  A    between atoms: N_8  and  C_9
REMARK    6  A    between atoms: C_9  and  C_10
REMARK    7  A    between atoms: C_14  and  C_16
REMARK    8  A    between atoms: N_21  and  C_22
REMARK    9  A    between atoms: N_21  and  C_23
REMARK                            x       y       z     vdW  Elec       q    Type
REMARK                         _______ _______ _______ _____ _____    ______ ____
ROOT
ATOM      1  N   UNL     1       0.988  -1.736  -1.620  0.00  0.00    -0.301 N 
ATOM      2  C   UNL     1       1.585  -2.261  -2.707  0.00  0.00    +0.300 C 
ATOM      3  O   UNL     1       1.962  -1.533  -3.605  0.00  0.00    -0.253 OA
ATOM      4  N   UNL     1       1.765  -3.594  -2.800  0.00  0.00    -0.292 N 
ATOM      5  H   UNL     1       0.687  -2.317  -0.903  0.00  0.00    +0.150 HD
ATOM      6  H   UNL     1       1.464  -4.175  -2.083  0.00  0.00    +0.151 HD
ENDROOT
BRANCH   1   7
ATOM      7  C   UNL     1       0.792  -0.287  -1.519  0.00  0.00    +0.090 C 
BRANCH   7   9
ATOM      8  C   UNL     1       1.224  -0.289   0.942  0.00  0.00    -0.012 C 
ATOM      9  C   UNL     1       0.206   0.054  -0.148  0.00  0.00    -0.054 C 
BRANCH   9  10
ATOM     10  N   UNL     1      -0.105   1.489  -0.092  0.00  0.00    +0.382 N 
ATOM     11  C   UNL     1      -0.760   1.798   1.186  0.00  0.00    -0.095 C 
ATOM     12  H   UNL     1       0.748   2.022  -0.170  0.00  0.00    -0.081 HD
BRANCH  10  13
ATOM     13  C   UNL     1      -1.004   1.838  -1.200  0.00  0.00    -0.069 C 
ATOM     14  C   UNL     1      -0.409   2.619  -2.373  0.00  0.00    -0.017 C 
ATOM     15  C   UNL     1      -1.351   3.316  -1.390  0.00  0.00    -0.017 C 
ENDBRANCH  10  13
ENDBRANCH   9  10
ENDBRANCH   7   9
ENDBRANCH   1   7
BRANCH   4  16
ATOM     16  C   UNL     1       2.414  -4.165  -3.982  0.00  0.00    +0.184 C 
BRANCH  16  17
ATOM     17  C   UNL     1       2.492  -5.663  -3.838  0.00  0.00    +0.168 A 
ATOM     18  N   UNL     1       3.479  -6.319  -3.285  0.00  0.00    -0.156 NA
ATOM     19  H   UNL     1       3.691  -8.426  -3.028  0.00  0.00    +0.191 HD
ATOM     20  N   UNL     1       3.157  -7.684  -3.354  0.00  0.00    -0.258 N 
ATOM     21  C   UNL     1       1.947  -7.757  -3.972  0.00  0.00    +0.163 A 
ATOM     22  N   UNL     1       1.565  -6.524  -4.249  0.00  0.00    -0.209 NA
BRANCH  21  23
ATOM     23  C   UNL     1       1.197  -8.988  -4.272  0.00  0.00    +0.056 A 
ATOM     24  C   UNL     1      -0.018  -9.130  -4.893  0.00  0.00    +0.019 A 
ATOM     25  C   UNL     1      -0.527 -10.396  -5.065  0.00  0.00    +0.008 A 
ATOM     26  C   UNL     1       0.184 -11.464  -4.617  0.00  0.00    +0.046 A 
ATOM     27  S   UNL     1       1.635 -10.684  -3.928  0.00  0.00    -0.094 S 
ENDBRANCH  21  23
ENDBRANCH  16  17
ENDBRANCH   4  16
TORSDOF 7
