REMARK  Name = ZINC49117635
REMARK  8 active torsions:
REMARK  status: ('A' for Active; 'I' for Inactive)
REMARK    1  A    between atoms: C_1  and  C_2
REMARK    2  A    between atoms: C_2  and  C_3
REMARK    3  A    between atoms: C_9  and  N_11
REMARK    4  A    between atoms: N_11  and  S_12
REMARK    5  A    between atoms: S_12  and  C_15
REMARK    6  A    between atoms: C_18  and  O_22
REMARK    7  A    between atoms: C_19  and  N_21
REMARK    8  A    between atoms: O_22  and  C_23
REMARK                            x       y       z     vdW  Elec       q    Type
REMARK                         _______ _______ _______ _____ _____    ______ ____
ROOT
ATOM      1  S   UNL     1      -1.261  -3.825  -0.626  0.00  0.00    +0.059 S 
ATOM      2  O   UNL     1      -2.664  -3.927  -0.826  0.00  0.00    -0.153 OA
ATOM      3  O   UNL     1      -0.357  -4.841  -1.036  0.00  0.00    -0.153 OA
ENDROOT
BRANCH   1   4
ATOM      4  C   UNL     1      -1.014  -3.599   1.104  0.00  0.00    +0.107 A 
ATOM      5  C   UNL     1       0.194  -3.945   1.679  0.00  0.00    +0.032 A 
ATOM      6  C   UNL     1       0.394  -3.770   3.036  0.00  0.00    +0.049 A 
ATOM      7  C   UNL     1      -0.618  -3.246   3.823  0.00  0.00    +0.141 A 
ATOM      8  C   UNL     1      -1.836  -2.897   3.244  0.00  0.00    +0.069 A 
ATOM      9  C   UNL     1      -2.027  -3.071   1.881  0.00  0.00    +0.055 A 
BRANCH   8  10
ATOM     10  N   UNL     1      -2.862  -2.368   4.035  0.00  0.00    -0.355 N 
ATOM     11  H   UNL     1      -2.726  -2.244   4.988  0.00  0.00    +0.142 HD
ATOM     12  H   UNL     1      -3.710  -2.125   3.631  0.00  0.00    +0.142 HD
ENDBRANCH   8  10
BRANCH   7  13
ATOM     13  O   UNL     1      -0.423  -3.074   5.158  0.00  0.00    -0.493 OA
ATOM     14  C   UNL     1       0.851  -3.454   5.682  0.00  0.00    +0.277 C 
ENDBRANCH   7  13
ENDBRANCH   1   4
BRANCH   1  15
ATOM     15  N   UNL     1      -0.776  -2.430  -1.376  0.00  0.00    -0.187 NA
ATOM     16  H   UNL     1      -1.424  -1.882  -1.847  0.00  0.00    +0.148 HD
BRANCH  15  22
ATOM     17  C   UNL     1       0.718  -0.497  -1.257  0.00  0.00    +0.007 C 
ATOM     18  C   UNL     1       2.187  -0.073  -1.207  0.00  0.00    +0.005 C 
ATOM     19  C   UNL     1       2.904  -0.566  -2.466  0.00  0.00    +0.000 C 
ATOM     20  C   UNL     1       2.816  -2.092  -2.538  0.00  0.00    +0.002 C 
ATOM     21  C   UNL     1       1.347  -2.517  -2.587  0.00  0.00    +0.020 C 
ATOM     22  C   UNL     1       0.630  -2.023  -1.329  0.00  0.00    +0.080 C 
BRANCH  17  24
ATOM     23  C   UNL     1      -0.019   1.526   0.010  0.00  0.00    +0.004 C 
ATOM     24  C   UNL     1       0.002  -0.004   0.002  0.00  0.00    +0.002 C 
ENDBRANCH  17  24
ENDBRANCH  15  22
ENDBRANCH   1  15
TORSDOF 6
