REMARK  Name = ZINC13278219
REMARK  9 active torsions:
REMARK  status: ('A' for Active; 'I' for Inactive)
REMARK    1  A    between atoms: C_1  and  C_2
REMARK    2  A    between atoms: C_5  and  C_30
REMARK    3  A    between atoms: C_7  and  O_8
REMARK    4  A    between atoms: O_8  and  C_9
REMARK    5  A    between atoms: C_12  and  S_18
REMARK    6  A    between atoms: C_14  and  N_15
REMARK    7  A    between atoms: S_18  and  N_21
REMARK    8  A    between atoms: N_21  and  C_22
REMARK    9  A    between atoms: C_25  and  C_28
REMARK                            x       y       z     vdW  Elec       q    Type
REMARK                         _______ _______ _______ _____ _____    ______ ____
ROOT
ATOM      1  C   UNL     1       2.707  -1.227   3.541  0.00  0.00    +0.159 A 
ATOM      2  C   UNL     1       3.270  -1.030   2.288  0.00  0.00    +0.050 A 
ATOM      3  C   UNL     1       2.470  -0.668   1.221  0.00  0.00    +0.032 A 
ATOM      4  C   UNL     1       1.111  -0.491   1.404  0.00  0.00    +0.111 A 
ATOM      5  C   UNL     1       0.547  -0.687   2.651  0.00  0.00    +0.065 A 
ATOM      6  C   UNL     1       1.342  -1.054   3.720  0.00  0.00    +0.170 A 
ENDROOT
BRANCH   6   7
ATOM      7  N   UNL     1       0.738  -1.263   5.055  0.00  0.00    +0.060 N 
ATOM      8  O   UNL     1      -0.460  -1.111   5.212  0.00  0.00    -0.126 OA
ATOM      9  O   UNL     1       1.440  -1.587   5.997  0.00  0.00    -0.126 OA
ENDBRANCH   6   7
BRANCH   4  10
ATOM     10  S   UNL     1       0.094  -0.023   0.043  0.00  0.00    +0.072 S 
ATOM     11  O   UNL     1      -1.242  -0.346   0.404  0.00  0.00    -0.150 OA
ATOM     12  O   UNL     1       0.715  -0.543  -1.125  0.00  0.00    -0.150 OA
BRANCH  10  13
ATOM     13  N   UNL     1       0.166   1.627  -0.076  0.00  0.00    -0.216 N 
ATOM     14  H   UNL     1       0.523   2.040  -0.878  0.00  0.00    +0.174 HD
BRANCH  13  15
ATOM     15  C   UNL     1      -0.281   2.420   0.974  0.00  0.00    +0.048 A 
ATOM     16  C   UNL     1      -1.487   2.126   1.603  0.00  0.00    +0.025 A 
ATOM     17  C   UNL     1      -1.928   2.903   2.643  0.00  0.00    +0.017 A 
ATOM     18  C   UNL     1      -1.169   3.999   3.064  0.00  0.00    +0.063 A 
ATOM     19  C   UNL     1       0.040   4.296   2.427  0.00  0.00    +0.017 A 
ATOM     20  C   UNL     1       0.477   3.511   1.392  0.00  0.00    +0.025 A 
BRANCH  18  21
ATOM     21  C   UNL     1      -1.643   4.840   4.178  0.00  0.00    +0.387 C 
ATOM     22  O   UNL     1      -0.982   5.793   4.544  0.00  0.00    -0.241 OA
ATOM     23  O   UNL     1      -2.808   4.554   4.791  0.00  0.00    -0.241 OA
ENDBRANCH  18  21
ENDBRANCH  13  15
ENDBRANCH  10  13
ENDBRANCH   4  10
BRANCH   1  24
ATOM     24  O   UNL     1       3.491  -1.587   4.590  0.00  0.00    -0.453 OA
BRANCH  24  31
ATOM     25  C   UNL     1       4.961  -2.298   6.891  0.00  0.00    +0.047 C 
ATOM     26  C   UNL     1       4.334  -3.323   5.982  0.00  0.00    -0.008 A 
ATOM     27  C   UNL     1       4.467  -4.670   6.267  0.00  0.00    +0.008 A 
ATOM     28  C   UNL     1       3.901  -5.615   5.437  0.00  0.00    +0.015 A 
ATOM     29  C   UNL     1       3.187  -5.211   4.306  0.00  0.00    +0.067 A 
ATOM     30  C   UNL     1       3.049  -3.852   4.022  0.00  0.00    +0.061 A 
ATOM     31  C   UNL     1       3.622  -2.912   4.863  0.00  0.00    +0.132 A 
BRANCH  29  32
ATOM     32  C   UNL     1       2.579  -6.220   3.414  0.00  0.00    +0.387 C 
ATOM     33  O   UNL     1       1.959  -5.867   2.431  0.00  0.00    -0.241 OA
ATOM     34  O   UNL     1       2.713  -7.532   3.690  0.00  0.00    -0.241 OA
ENDBRANCH  29  32
ENDBRANCH  24  31
ENDBRANCH   1  24
TORSDOF 8
