REMARK  Name = ZINC20879831
REMARK  6 active torsions:
REMARK  status: ('A' for Active; 'I' for Inactive)
REMARK    1  A    between atoms: C_9  and  O_25
REMARK    2  A    between atoms: C_10  and  C_11
REMARK    3  A    between atoms: C_11  and  N_12
REMARK    4  A    between atoms: N_12  and  C_13
REMARK    5  A    between atoms: O_25  and  C_26
REMARK    6  A    between atoms: C_26  and  C_27
REMARK                            x       y       z     vdW  Elec       q    Type
REMARK                         _______ _______ _______ _____ _____    ______ ____
ROOT
ATOM      1  C   UNL     1      -0.013   1.076   0.008  0.00  0.00    +0.001 A 
ATOM      2  C   UNL     1      -1.235   1.746   0.017  0.00  0.00    +0.001 A 
ATOM      3  C   UNL     1      -1.288   3.105   0.030  0.00  0.00    +0.009 A 
ATOM      4  C   UNL     1      -0.095   3.849   0.023  0.00  0.00    -0.010 A 
ATOM      5  C   UNL     1       1.148   3.167   0.008  0.00  0.00    -0.017 A 
ATOM      6  C   UNL     1       1.163   1.762   0.000  0.00  0.00    +0.008 A 
ATOM      7  C   UNL     1       2.342   3.909  -0.000  0.00  0.00    +0.012 A 
ATOM      8  C   UNL     1       2.292   5.268   0.006  0.00  0.00    +0.046 A 
ATOM      9  C   UNL     1       1.067   5.942   0.021  0.00  0.00    +0.126 A 
ATOM     10  C   UNL     1      -0.112   5.253   0.029  0.00  0.00    +0.019 A 
ENDROOT
BRANCH  10  11
ATOM     11  C   UNL     1      -1.424   5.995   0.045  0.00  0.00    +0.141 C 
BRANCH  11  12
ATOM     12  N   UNL     1      -1.862   6.242  -1.331  0.00  0.00    -0.340 N 
ATOM     13  H   UNL     1      -1.247   5.895  -2.174  0.00  0.00    +0.146 HD
BRANCH  12  14
ATOM     14  C   UNL     1      -3.061   6.921  -1.571  0.00  0.00    +0.029 A 
ATOM     15  C   UNL     1      -3.836   7.360  -0.504  0.00  0.00    +0.025 A 
ATOM     16  C   UNL     1      -5.021   8.030  -0.735  0.00  0.00    +0.029 A 
ATOM     17  C   UNL     1      -5.440   8.267  -2.036  0.00  0.00    +0.067 A 
ATOM     18  C   UNL     1      -4.663   7.827  -3.110  0.00  0.00    +0.069 A 
ATOM     19  C   UNL     1      -3.472   7.160  -2.875  0.00  0.00    +0.050 A 
ATOM     20  N   UNL     1      -5.332   8.205  -4.272  0.00  0.00    -0.306 N 
ATOM     21  H   UNL     1      -4.905   7.963  -5.256  0.00  0.00    +0.170 HD
ATOM     22  C   UNL     1      -6.464   8.845  -3.922  0.00  0.00    +0.325 A 
ATOM     23  O   UNL     1      -7.278   9.306  -4.700  0.00  0.00    -0.247 OA
ATOM     24  N   UNL     1      -6.558   8.899  -2.580  0.00  0.00    -0.306 N 
ATOM     25  H   UNL     1      -7.322   9.332  -1.917  0.00  0.00    +0.170 HD
ENDBRANCH  12  14
ENDBRANCH  11  12
ENDBRANCH  10  11
BRANCH   9  26
ATOM     26  O   UNL     1       1.050   7.301   0.028  0.00  0.00    -0.487 OA
BRANCH  26  27
ATOM     27  C   UNL     1       2.314   7.966   0.019  0.00  0.00    +0.264 C 
BRANCH  27  28
ATOM     28  C   UNL     1       2.098   9.457   0.028  0.00  0.00    -0.010 A 
ATOM     29  C   UNL     1       1.993  10.147  -1.165  0.00  0.00    +0.010 A 
ATOM     30  C   UNL     1       1.789  11.514  -1.158  0.00  0.00    +0.039 A 
ATOM     31  C   UNL     1       1.701  12.194   0.045  0.00  0.00    +0.123 A 
ATOM     32  C   UNL     1       1.812  11.503   1.240  0.00  0.00    +0.039 A 
ATOM     33  C   UNL     1       2.010  10.135   1.230  0.00  0.00    +0.010 A 
ATOM     34  F   UNL     1       1.507  13.531   0.053  0.00  0.00    -0.205 F 
ENDBRANCH  27  28
ENDBRANCH  26  27
ENDBRANCH   9  26
TORSDOF 6
