REMARK  Name = ZINC09306505
REMARK  5 active torsions:
REMARK  status: ('A' for Active; 'I' for Inactive)
REMARK    1  A    between atoms: C_5  and  C_7
REMARK    2  A    between atoms: C_7  and  N_8
REMARK    3  A    between atoms: C_16  and  C_20
REMARK    4  A    between atoms: C_16  and  N_24
REMARK    5  A    between atoms: C_25  and  C_27
REMARK                            x       y       z     vdW  Elec       q    Type
REMARK                         _______ _______ _______ _____ _____    ______ ____
ROOT
ATOM      1  N   UNL     1       1.485  -2.791   1.423  0.00  0.00    -0.275 N 
ATOM      2  C   UNL     1       0.333  -3.061   2.122  0.00  0.00    +0.121 A 
ATOM      3  C   UNL     1       0.450  -3.593   3.370  0.00  0.00    +0.098 A 
ATOM      4  C   UNL     1       1.722  -3.850   3.907  0.00  0.00    +0.284 A 
ATOM      5  N   UNL     1       2.815  -3.566   3.176  0.00  0.00    -0.153 NA
ATOM      6  C   UNL     1       2.698  -3.058   1.971  0.00  0.00    +0.353 A 
ATOM      7  O   UNL     1       3.813  -2.788   1.261  0.00  0.00    -0.244 OA
ATOM      8  O   UNL     1       1.835  -4.328   5.026  0.00  0.00    -0.265 OA
ATOM      9  C   UNL     1      -0.954  -3.782   3.894  0.00  0.00    +0.240 C 
ATOM     10  C   UNL     1      -1.827  -3.281   2.760  0.00  0.00    +0.256 C 
ATOM     11  O   UNL     1      -3.038  -3.242   2.739  0.00  0.00    -0.272 OA
ATOM     12  N   UNL     1      -0.990  -2.886   1.783  0.00  0.00    -0.269 N 
ATOM     13  H   UNL     1      -1.286  -2.519   0.936  0.00  0.00    +0.156 HD
ENDROOT
BRANCH   9  14
ATOM     14  C   UNL     1      -1.230  -5.261   4.172  0.00  0.00    +0.424 C 
ATOM     15  F   UNL     1      -0.377  -5.713   5.184  0.00  0.00    -0.167 F 
ATOM     16  F   UNL     1      -2.560  -5.419   4.579  0.00  0.00    -0.167 F 
ATOM     17  F   UNL     1      -1.008  -6.004   3.008  0.00  0.00    -0.167 F 
ENDBRANCH   9  14
BRANCH   9  18
ATOM     18  N   UNL     1      -1.166  -2.981   5.101  0.00  0.00    -0.286 N 
ATOM     19  C   UNL     1      -1.001  -1.644   5.060  0.00  0.00    +0.252 C 
ATOM     20  O   UNL     1      -0.740  -1.095   4.006  0.00  0.00    -0.270 OA
ATOM     21  H   UNL     1      -1.426  -3.412   5.930  0.00  0.00    +0.151 HD
BRANCH  19  22
ATOM     22  C   UNL     1      -1.135  -0.851   6.286  0.00  0.00    +0.074 A 
ATOM     23  C   UNL     1      -1.011   0.519   6.458  0.00  0.00    +0.021 A 
ATOM     24  C   UNL     1      -1.193   0.979   7.741  0.00  0.00    +0.008 A 
ATOM     25  C   UNL     1      -1.474   0.090   8.726  0.00  0.00    +0.046 A 
ATOM     26  S   UNL     1      -1.508  -1.396   7.942  0.00  0.00    -0.092 S 
ENDBRANCH  19  22
ENDBRANCH   9  18
BRANCH   1  27
ATOM     27  C   UNL     1       1.403  -2.218   0.078  0.00  0.00    +0.164 C 
BRANCH  27  32
ATOM     28  C   UNL     1       3.015  -4.553  -2.413  0.00  0.00    +0.000 A 
ATOM     29  C   UNL     1       1.933  -5.310  -2.822  0.00  0.00    +0.001 A 
ATOM     30  C   UNL     1       0.679  -5.067  -2.294  0.00  0.00    +0.020 A 
ATOM     31  C   UNL     1       0.507  -4.065  -1.355  0.00  0.00    +0.046 A 
ATOM     32  C   UNL     1       1.590  -3.309  -0.945  0.00  0.00    -0.009 A 
ATOM     33  C   UNL     1       2.844  -3.553  -1.474  0.00  0.00    +0.007 A 
ATOM     34 CL   UNL     1      -1.068  -3.759  -0.692  0.00  0.00    -0.083 Cl
ENDBRANCH  27  32
ENDBRANCH   1  27
TORSDOF 5
