REMARK  Name = ZINC08751215
REMARK  9 active torsions:
REMARK  status: ('A' for Active; 'I' for Inactive)
REMARK    1  A    between atoms: C_1  and  C_2
REMARK    2  A    between atoms: C_2  and  N_3
REMARK    3  A    between atoms: C_7  and  C_9
REMARK    4  A    between atoms: C_9  and  C_11
REMARK    5  A    between atoms: C_9  and  S_12
REMARK    6  A    between atoms: S_12  and  C_13
REMARK    7  A    between atoms: C_16  and  C_17
REMARK    8  A    between atoms: N_28  and  C_29
REMARK    9  A    between atoms: C_32  and  C_35
REMARK                            x       y       z     vdW  Elec       q    Type
REMARK                         _______ _______ _______ _____ _____    ______ ____
ROOT
ATOM      1  C   UNL     1      -0.679   3.026  -0.000  0.00  0.00    +0.169 C 
ATOM      2  N   UNL     1       0.614   3.217   0.001  0.00  0.00    -0.220 NA
ATOM      3  C   UNL     1       1.248   2.006  -0.026  0.00  0.00    +0.129 C 
ATOM      4  C   UNL     1       2.606   1.781  -0.034  0.00  0.00    +0.041 C 
ATOM      5  C   UNL     1       0.180   0.990  -0.046  0.00  0.00    +0.275 C 
ATOM      6  O   UNL     1       0.313  -0.220  -0.072  0.00  0.00    -0.268 OA
ATOM      7  N   UNL     1      -0.979   1.685  -0.033  0.00  0.00    -0.214 N 
ENDROOT
BRANCH   4   8
ATOM      8  C   UNL     1       3.535   2.910  -0.139  0.00  0.00    -0.019 A 
ATOM      9  C   UNL     1       4.910   2.679  -0.273  0.00  0.00    +0.012 A 
ATOM     10  C   UNL     1       5.780   3.742  -0.371  0.00  0.00    +0.050 A 
ATOM     11  C   UNL     1       5.300   5.045  -0.338  0.00  0.00    +0.166 A 
ATOM     12  C   UNL     1       3.931   5.284  -0.205  0.00  0.00    +0.167 A 
ATOM     13  C   UNL     1       3.050   4.225  -0.112  0.00  0.00    +0.057 A 
ATOM     14  O   UNL     1       3.723   6.633  -0.199  0.00  0.00    -0.453 OA
ATOM     15  C   UNL     1       4.927   7.209  -0.740  0.00  0.00    +0.466 C 
ATOM     16  O   UNL     1       5.945   6.244  -0.414  0.00  0.00    -0.453 OA
ENDBRANCH   4   8
BRANCH   7  17
ATOM     17  C   UNL     1      -2.267   1.133  -0.049  0.00  0.00    +0.044 A 
ATOM     18  C   UNL     1      -3.102   1.345  -1.138  0.00  0.00    +0.024 A 
ATOM     19  C   UNL     1      -4.369   0.795  -1.152  0.00  0.00    +0.005 A 
ATOM     20  C   UNL     1      -4.810   0.043  -0.079  0.00  0.00    -0.050 A 
ATOM     21  C   UNL     1      -3.983  -0.165   1.010  0.00  0.00    +0.005 A 
ATOM     22  C   UNL     1      -2.713   0.378   1.028  0.00  0.00    +0.024 A 
ATOM     23  C   UNL     1      -6.195  -0.550  -0.095  0.00  0.00    +0.044 C 
ENDBRANCH   7  17
BRANCH   1  24
ATOM     24  S   UNL     1      -1.878   4.316   0.030  0.00  0.00    -0.077 S 
BRANCH  24  25
ATOM     25  C   UNL     1      -0.786   5.759   0.057  0.00  0.00    +0.137 C 
ATOM     26  C   UNL     1       0.011   5.771   1.363  0.00  0.00    +0.029 C 
BRANCH  25  31
ATOM     27  N   UNL     1      -1.261  10.399  -1.111  0.00  0.00    -0.299 N 
ATOM     28  C   UNL     1      -1.806   9.269  -0.617  0.00  0.00    +0.306 C 
ATOM     29  O   UNL     1      -2.964   9.264  -0.249  0.00  0.00    -0.252 OA
ATOM     30  N   UNL     1      -1.067   8.145  -0.532  0.00  0.00    -0.239 N 
ATOM     31  C   UNL     1      -1.613   7.016  -0.038  0.00  0.00    +0.233 C 
ATOM     32  O   UNL     1      -2.768   7.011   0.329  0.00  0.00    -0.274 OA
ATOM     33  H   UNL     1      -0.336  10.402  -1.405  0.00  0.00    +0.150 HD
ATOM     34  H   UNL     1      -0.143   8.149  -0.826  0.00  0.00    +0.159 HD
BRANCH  27  36
ATOM     35  C   UNL     1      -1.213  12.746  -1.794  0.00  0.00    +0.024 C 
ATOM     36  C   UNL     1      -2.064  11.620  -1.204  0.00  0.00    +0.102 C 
ENDBRANCH  27  36
ENDBRANCH  25  31
ENDBRANCH  24  25
ENDBRANCH   1  24
TORSDOF 6
