REMARK  Name = ZINC23259818
REMARK  14 active torsions:
REMARK  status: ('A' for Active; 'I' for Inactive)
REMARK    1  A    between atoms: C_1  and  C_2
REMARK    2  A    between atoms: C_2  and  C_4
REMARK    3  A    between atoms: C_2  and  N_14
REMARK    4  A    between atoms: C_7  and  S_10
REMARK    5  A    between atoms: S_10  and  N_13
REMARK    6  A    between atoms: N_14  and  C_15
REMARK    7  A    between atoms: N_14  and  C_16
REMARK    8  A    between atoms: C_16  and  C_17
REMARK    9  A    between atoms: N_19  and  C_20
REMARK   10  A    between atoms: C_23  and  C_26
REMARK   11  A    between atoms: C_26  and  O_28
REMARK   12  A    between atoms: O_28  and  C_29
REMARK   13  A    between atoms: C_29  and  C_30
REMARK   14  A    between atoms: C_29  and  C_31
REMARK                            x       y       z     vdW  Elec       q    Type
REMARK                         _______ _______ _______ _____ _____    ______ ____
ROOT
ATOM      1  N   UNL     1      -1.375  -0.514   0.014  0.00  0.00    +0.388 N 
ATOM      2  C   UNL     1      -1.363  -1.983  -0.004  0.00  0.00    -0.095 C 
ATOM      3  H   UNL     1      -1.861  -0.172  -0.802  0.00  0.00    -0.081 HD
ENDROOT
BRANCH   1   5
ATOM      4  C   UNL     1      -0.008   1.518   0.026  0.00  0.00    -0.008 C 
ATOM      5  C   UNL     1       0.005  -0.012   0.008  0.00  0.00    -0.041 C 
BRANCH   5   6
ATOM      6  C   UNL     1       0.710  -0.494  -1.234  0.00  0.00    -0.061 A 
ATOM      7  C   UNL     1       0.041  -0.514  -2.444  0.00  0.00    +0.004 A 
ATOM      8  C   UNL     1       0.688  -0.956  -3.583  0.00  0.00    +0.029 A 
ATOM      9  C   UNL     1       2.002  -1.377  -3.513  0.00  0.00    +0.105 A 
ATOM     10  C   UNL     1       2.671  -1.356  -2.303  0.00  0.00    +0.029 A 
ATOM     11  C   UNL     1       2.026  -0.910  -1.165  0.00  0.00    +0.004 A 
BRANCH   9  12
ATOM     12  S   UNL     1       2.826  -1.942  -4.965  0.00  0.00    +0.056 S 
ATOM     13  O   UNL     1       3.877  -2.793  -4.530  0.00  0.00    -0.153 OA
ATOM     14  O   UNL     1       1.814  -2.378  -5.862  0.00  0.00    -0.153 OA
BRANCH  12  15
ATOM     15  N   UNL     1       3.543  -0.623  -5.665  0.00  0.00    -0.204 NA
ATOM     16  H   UNL     1       4.359  -0.730  -6.178  0.00  0.00    +0.144 HD
ATOM     17  H   UNL     1       3.146   0.256  -5.562  0.00  0.00    +0.144 HD
ENDBRANCH  12  15
ENDBRANCH   9  12
ENDBRANCH   5   6
ENDBRANCH   1   5
BRANCH   1  18
ATOM     18  C   UNL     1      -2.062  -0.044   1.224  0.00  0.00    +0.019 C 
BRANCH  18  19
ATOM     19  C   UNL     1      -3.511  -0.455   1.171  0.00  0.00    +0.201 C 
ATOM     20  O   UNL     1      -3.930  -1.077   0.219  0.00  0.00    -0.278 OA
ATOM     21  N   UNL     1      -4.341  -0.130   2.182  0.00  0.00    -0.287 N 
ATOM     22  H   UNL     1      -3.992   0.309   2.974  0.00  0.00    +0.155 HD
BRANCH  21  23
ATOM     23  C   UNL     1      -5.700  -0.425   2.090  0.00  0.00    +0.033 A 
ATOM     24  C   UNL     1      -6.117  -1.588   1.450  0.00  0.00    +0.024 A 
ATOM     25  C   UNL     1      -7.458  -1.882   1.357  0.00  0.00    +0.017 A 
ATOM     26  C   UNL     1      -8.403  -1.011   1.908  0.00  0.00    +0.059 A 
ATOM     27  C   UNL     1      -7.981   0.156   2.551  0.00  0.00    +0.017 A 
ATOM     28  C   UNL     1      -6.638   0.442   2.644  0.00  0.00    +0.024 A 
BRANCH  26  29
ATOM     29  C   UNL     1      -9.841  -1.323   1.810  0.00  0.00    +0.339 C 
ATOM     30  O   UNL     1     -10.206  -2.337   1.250  0.00  0.00    -0.245 OA
BRANCH  29  31
ATOM     31  O   UNL     1     -10.750  -0.482   2.341  0.00  0.00    -0.458 OA
BRANCH  31  32
ATOM     32  C   UNL     1     -12.126  -0.846   2.210  0.00  0.00    +0.171 C 
ATOM     33  C   UNL     1     -12.546  -1.692   3.414  0.00  0.00    +0.052 C 
ATOM     34  C   UNL     1     -12.985   0.418   2.149  0.00  0.00    +0.052 C 
ENDBRANCH  31  32
ENDBRANCH  29  31
ENDBRANCH  26  29
ENDBRANCH  21  23
ENDBRANCH  18  19
ENDBRANCH   1  18
TORSDOF 10
