REMARK  Name = ZINC50439243
REMARK  6 active torsions:
REMARK  status: ('A' for Active; 'I' for Inactive)
REMARK    1  A    between atoms: C_1  and  C_2
REMARK    2  A    between atoms: C_4  and  N_20
REMARK    3  A    between atoms: C_5  and  N_9
REMARK    4  A    between atoms: C_7  and  C_8
REMARK    5  A    between atoms: C_10  and  C_12
REMARK    6  A    between atoms: C_17  and  O_18
REMARK                            x       y       z     vdW  Elec       q    Type
REMARK                         _______ _______ _______ _____ _____    ______ ____
ROOT
ATOM      1  N   UNL     1       0.058  -4.176  -0.007  0.00  0.00    -0.280 N 
ATOM      2  C   UNL     1      -0.421  -4.858   1.051  0.00  0.00    +0.252 C 
ATOM      3  O   UNL     1      -0.953  -4.263   1.969  0.00  0.00    -0.270 OA
ATOM      4  H   UNL     1       0.409  -4.655  -0.774  0.00  0.00    +0.155 HD
ENDROOT
BRANCH   1   9
ATOM      5  C   UNL     1       0.023   1.503   0.029  0.00  0.00    +0.044 C 
ATOM      6  C   UNL     1       0.033  -0.004   0.016  0.00  0.00    -0.046 A 
ATOM      7  C   UNL     1       0.029  -0.682  -1.189  0.00  0.00    +0.028 A 
ATOM      8  C   UNL     1       0.037  -2.069  -1.203  0.00  0.00    +0.046 A 
ATOM      9  C   UNL     1       0.050  -2.775   0.000  0.00  0.00    +0.055 A 
ATOM     10  C   UNL     1       0.053  -2.086   1.203  0.00  0.00    +0.028 A 
ATOM     11  C   UNL     1       0.050  -0.703   1.208  0.00  0.00    -0.046 A 
ATOM     12  C   UNL     1       0.060   0.043   2.517  0.00  0.00    +0.044 C 
BRANCH   8  13
ATOM     13  N   UNL     1       0.033  -2.758  -2.421  0.00  0.00    -0.357 N 
ATOM     14  H   UNL     1       0.025  -2.266  -3.257  0.00  0.00    +0.142 HD
ATOM     15  H   UNL     1       0.040  -3.728  -2.429  0.00  0.00    +0.142 HD
ENDBRANCH   8  13
ENDBRANCH   1   9
BRANCH   2  16
ATOM     16  C   UNL     1      -0.302  -6.327   1.097  0.00  0.00    +0.078 A 
ATOM     17  C   UNL     1       0.313  -7.015   0.048  0.00  0.00    +0.018 A 
ATOM     18  C   UNL     1       0.422  -8.388   0.096  0.00  0.00    +0.016 A 
ATOM     19  C   UNL     1      -0.075  -9.091   1.183  0.00  0.00    +0.021 A 
ATOM     20  C   UNL     1      -0.686  -8.423   2.227  0.00  0.00    +0.061 A 
ATOM     21  C   UNL     1      -0.799  -7.041   2.196  0.00  0.00    +0.130 A 
ATOM     22 BR   UNL     1       0.082 -10.974   1.236  0.00  0.00    -0.050 Br
BRANCH  21  23
ATOM     23  O   UNL     1      -1.393  -6.383   3.223  0.00  0.00    -0.506 OA
ATOM     24  H   UNL     1      -2.348  -6.269   3.118  0.00  0.00    +0.292 HD
ENDBRANCH  21  23
ENDBRANCH   2  16
TORSDOF 4
