REMARK  Name = ZINC09065154
REMARK  9 active torsions:
REMARK  status: ('A' for Active; 'I' for Inactive)
REMARK    1  A    between atoms: C_2  and  C_3
REMARK    2  A    between atoms: C_3  and  O_4
REMARK    3  A    between atoms: O_4  and  C_5
REMARK    4  A    between atoms: C_8  and  C_11
REMARK    5  A    between atoms: C_11  and  C_13
REMARK    6  A    between atoms: N_17  and  C_29
REMARK    7  A    between atoms: C_18  and  C_20
REMARK    8  A    between atoms: C_23  and  N_26
REMARK    9  A    between atoms: C_29  and  C_30
REMARK                            x       y       z     vdW  Elec       q    Type
REMARK                         _______ _______ _______ _____ _____    ______ ____
ROOT
ATOM      1  C   UNL     1       3.398   0.147  -3.524  0.00  0.00    +0.076 C 
ATOM      2  C   UNL     1       3.818   1.405  -3.252  0.00  0.00    +0.249 C 
ATOM      3  C   UNL     1       3.492   1.733  -1.849  0.00  0.00    +0.288 C 
ATOM      4  O   UNL     1       3.741   2.790  -1.304  0.00  0.00    -0.266 OA
ATOM      5  N   UNL     1       2.879   0.689  -1.263  0.00  0.00    -0.279 N 
ATOM      6  C   UNL     1       2.774  -0.387  -2.256  0.00  0.00    +0.145 C 
ATOM      7  O   UNL     1       4.437   2.231  -4.127  0.00  0.00    -0.282 OA
ENDROOT
BRANCH   6   8
ATOM      8  C   UNL     1       3.523  -1.605  -1.780  0.00  0.00    -0.022 A 
ATOM      9  C   UNL     1       4.785  -1.471  -1.233  0.00  0.00    +0.008 A 
ATOM     10  C   UNL     1       5.471  -2.587  -0.793  0.00  0.00    +0.033 A 
ATOM     11  C   UNL     1       4.898  -3.840  -0.909  0.00  0.00    +0.126 A 
ATOM     12  C   UNL     1       3.638  -3.976  -1.461  0.00  0.00    +0.033 A 
ATOM     13  C   UNL     1       2.951  -2.858  -1.897  0.00  0.00    +0.008 A 
BRANCH  11  14
ATOM     14  N   UNL     1       5.634  -5.037  -0.442  0.00  0.00    +0.056 N 
ATOM     15  O   UNL     1       5.130  -6.141  -0.545  0.00  0.00    -0.126 OA
ATOM     16  O   UNL     1       6.745  -4.918   0.044  0.00  0.00    -0.126 OA
ENDBRANCH  11  14
ENDBRANCH   6   8
BRANCH   1  17
ATOM     17  C   UNL     1       3.528  -0.562  -4.801  0.00  0.00    +0.195 C 
ATOM     18  O   UNL     1       4.632  -0.838  -5.234  0.00  0.00    -0.287 OA
BRANCH  17  22
ATOM     19  C   UNL     1       0.055  -1.652  -6.988  0.00  0.00    +0.121 A 
ATOM     20  C   UNL     1       1.311  -2.038  -7.443  0.00  0.00    +0.046 A 
ATOM     21  C   UNL     1       2.439  -1.687  -6.738  0.00  0.00    +0.015 A 
ATOM     22  C   UNL     1       2.321  -0.941  -5.561  0.00  0.00    +0.022 A 
ATOM     23  C   UNL     1       1.056  -0.559  -5.104  0.00  0.00    +0.015 A 
ATOM     24  C   UNL     1      -0.067  -0.910  -5.818  0.00  0.00    +0.046 A 
BRANCH  19  25
ATOM     25  O   UNL     1      -1.055  -2.001  -7.686  0.00  0.00    -0.488 OA
BRANCH  25  26
ATOM     26  C   UNL     1      -2.313  -1.572  -7.162  0.00  0.00    +0.256 C 
BRANCH  26  28
ATOM     27  C   UNL     1      -4.499  -2.589  -7.549  0.00  0.00    +0.007 C 
ATOM     28  C   UNL     1      -3.422  -2.049  -8.064  0.00  0.00    +0.006 C 
ENDBRANCH  26  28
ENDBRANCH  25  26
ENDBRANCH  19  25
ENDBRANCH  17  22
ENDBRANCH   1  17
BRANCH   5  29
ATOM     29  C   UNL     1       2.405   0.633   0.122  0.00  0.00    +0.145 C 
BRANCH  29  30
ATOM     30  C   UNL     1       0.982   1.123   0.186  0.00  0.00    -0.012 A 
ATOM     31  C   UNL     1      -0.074   0.236   0.037  0.00  0.00    +0.008 A 
ATOM     32  C   UNL     1      -1.367   0.733   0.098  0.00  0.00    +0.020 A 
ATOM     33  C   UNL     1      -1.560   2.084   0.314  0.00  0.00    +0.111 A 
ATOM     34  N   UNL     1      -0.532   2.899   0.452  0.00  0.00    -0.263 NA
ATOM     35  C   UNL     1       0.712   2.462   0.394  0.00  0.00    +0.115 A 
ENDBRANCH  29  30
ENDBRANCH   5  29
TORSDOF 9
