REMARK  Name = ZINC65298238
REMARK  12 active torsions:
REMARK  status: ('A' for Active; 'I' for Inactive)
REMARK    1  A    between atoms: C_1  and  C_2
REMARK    2  A    between atoms: C_2  and  C_3
REMARK    3  A    between atoms: C_2  and  N_4
REMARK    4  A    between atoms: C_11  and  C_26
REMARK    5  A    between atoms: C_14  and  C_16
REMARK    6  A    between atoms: C_19  and  O_24
REMARK    7  A    between atoms: C_20  and  O_22
REMARK    8  A    between atoms: O_22  and  C_23
REMARK    9  A    between atoms: O_24  and  C_25
REMARK   10  A    between atoms: C_30  and  O_33
REMARK   11  A    between atoms: C_31  and  O_32
REMARK   12  A    between atoms: O_33  and  C_34
REMARK                            x       y       z     vdW  Elec       q    Type
REMARK                         _______ _______ _______ _____ _____    ______ ____
ROOT
ATOM      1  N   UNL     1      -1.376  -0.512   0.012  0.00  0.00    +0.381 N 
ATOM      2  C   UNL     1      -2.087  -0.018  -1.172  0.00  0.00    -0.075 C 
ATOM      3  C   UNL     1      -3.546  -0.479  -1.127  0.00  0.00    +0.027 C 
ATOM      4  C   UNL     1      -3.589  -2.011  -1.109  0.00  0.00    +0.109 C 
ATOM      5  C   UNL     1      -2.785  -2.516   0.095  0.00  0.00    +0.027 C 
ATOM      6  C   UNL     1      -1.355  -1.980   0.004  0.00  0.00    -0.075 C 
ATOM      7  N   UNL     1      -4.983  -2.454  -0.979  0.00  0.00    -0.286 NA
ATOM      8  C   UNL     1      -5.070  -3.914  -1.149  0.00  0.00    +0.095 C 
ATOM      9  C   UNL     1      -4.729  -4.247  -2.605  0.00  0.00    +0.079 C 
ATOM     10  C   UNL     1      -3.481  -3.510  -3.007  0.00  0.00    +0.047 C 
ATOM     11  N   UNL     1      -3.001  -2.529  -2.339  0.00  0.00    -0.266 NA
ATOM     12  H   UNL     1      -5.372  -2.170  -0.092  0.00  0.00    +0.125 HD
ATOM     13  H   UNL     1      -1.847  -0.189   0.844  0.00  0.00    -0.081 HD
ENDROOT
BRANCH  10  14
ATOM     14  C   UNL     1      -2.777  -3.938  -4.230  0.00  0.00    -0.000 A 
ATOM     15  C   UNL     1      -3.273  -5.001  -4.988  0.00  0.00    +0.013 A 
ATOM     16  C   UNL     1      -2.614  -5.400  -6.131  0.00  0.00    +0.050 A 
ATOM     17  C   UNL     1      -1.456  -4.748  -6.531  0.00  0.00    +0.162 A 
ATOM     18  C   UNL     1      -0.954  -3.687  -5.779  0.00  0.00    +0.162 A 
ATOM     19  C   UNL     1      -1.614  -3.278  -4.636  0.00  0.00    +0.059 A 
BRANCH  18  20
ATOM     20  O   UNL     1       0.181  -3.050  -6.173  0.00  0.00    -0.491 OA
ATOM     21  C   UNL     1       0.637  -1.971  -5.355  0.00  0.00    +0.277 C 
ENDBRANCH  18  20
BRANCH  17  22
ATOM     22  O   UNL     1      -0.809  -5.145  -7.658  0.00  0.00    -0.491 OA
ATOM     23  C   UNL     1      -1.377  -6.239  -8.380  0.00  0.00    +0.277 C 
ENDBRANCH  17  22
ENDBRANCH  10  14
BRANCH   8  24
ATOM     24  C   UNL     1      -6.468  -4.381  -0.835  0.00  0.00    +0.015 A 
ATOM     25  C   UNL     1      -7.534  -3.509  -0.966  0.00  0.00    +0.009 A 
ATOM     26  C   UNL     1      -8.817  -3.934  -0.678  0.00  0.00    +0.004 A 
ATOM     27  C   UNL     1      -9.042  -5.232  -0.258  0.00  0.00    +0.049 A 
ATOM     28  C   UNL     1      -7.979  -6.110  -0.124  0.00  0.00    +0.162 A 
ATOM     29  C   UNL     1      -6.687  -5.684  -0.420  0.00  0.00    +0.163 A 
BRANCH  29  30
ATOM     30  O   UNL     1      -5.641  -6.544  -0.296  0.00  0.00    -0.503 OA
ATOM     31  H   UNL     1      -5.232  -6.543   0.581  0.00  0.00    +0.292 HD
ENDBRANCH  29  30
BRANCH  28  32
ATOM     32  O   UNL     1      -8.198  -7.387   0.289  0.00  0.00    -0.491 OA
ATOM     33  C   UNL     1      -9.550  -7.756   0.569  0.00  0.00    +0.277 C 
ENDBRANCH  28  32
ENDBRANCH   8  24
BRANCH   1  35
ATOM     34  C   UNL     1      -0.019   1.526   0.010  0.00  0.00    -0.014 C 
ATOM     35  C   UNL     1       0.002  -0.004   0.002  0.00  0.00    -0.075 C 
ATOM     36  C   UNL     1       0.742  -0.511   1.242  0.00  0.00    -0.014 C 
ENDBRANCH   1  35
TORSDOF 7
