REMARK  Name = ZINC35785390
REMARK  10 active torsions:
REMARK  status: ('A' for Active; 'I' for Inactive)
REMARK    1  A    between atoms: C_1  and  C_2
REMARK    2  A    between atoms: C_2  and  N_3
REMARK    3  A    between atoms: N_3  and  C_4
REMARK    4  A    between atoms: N_3  and  C_29
REMARK    5  A    between atoms: C_4  and  C_5
REMARK    6  A    between atoms: C_8  and  C_20
REMARK    7  A    between atoms: C_11  and  C_13
REMARK    8  A    between atoms: C_23  and  O_26
REMARK    9  A    between atoms: O_26  and  C_27
REMARK   10  A    between atoms: C_27  and  C_28
REMARK                            x       y       z     vdW  Elec       q    Type
REMARK                         _______ _______ _______ _____ _____    ______ ____
ROOT
ATOM      1  C   UNL     1      -0.417   1.454   2.394  0.00  0.00    +0.219 C 
ATOM      2  O   UNL     1       0.149   2.158   1.584  0.00  0.00    -0.276 OA
ATOM      3  N   UNL     1      -1.255   2.004   3.295  0.00  0.00    -0.187 N 
ATOM      4  C   UNL     1      -1.577   3.436   3.402  0.00  0.00    +0.137 C 
ATOM      5  C   UNL     1      -2.567   3.497   4.582  0.00  0.00    +0.087 C 
ATOM      6  C   UNL     1      -2.698   2.057   5.022  0.00  0.00    +0.069 C 
ATOM      7  N   UNL     1      -1.963   1.309   4.274  0.00  0.00    -0.181 NA
ENDROOT
BRANCH   6   8
ATOM      8  C   UNL     1      -3.543   1.580   6.133  0.00  0.00    -0.002 A 
ATOM      9  C   UNL     1      -4.309   2.486   6.870  0.00  0.00    +0.012 A 
ATOM     10  C   UNL     1      -5.097   2.034   7.908  0.00  0.00    +0.039 A 
ATOM     11  C   UNL     1      -5.129   0.684   8.220  0.00  0.00    +0.123 A 
ATOM     12  C   UNL     1      -4.371  -0.220   7.492  0.00  0.00    +0.039 A 
ATOM     13  C   UNL     1      -3.584   0.219   6.449  0.00  0.00    +0.012 A 
ATOM     14  F   UNL     1      -5.903   0.247   9.237  0.00  0.00    -0.205 F 
ENDBRANCH   6   8
BRANCH   4  15
ATOM     15  C   UNL     1      -2.226   3.930   2.135  0.00  0.00    -0.024 A 
ATOM     16  C   UNL     1      -3.132   3.129   1.466  0.00  0.00    +0.009 A 
ATOM     17  C   UNL     1      -3.728   3.579   0.304  0.00  0.00    +0.046 A 
ATOM     18  C   UNL     1      -3.417   4.837  -0.191  0.00  0.00    +0.121 A 
ATOM     19  C   UNL     1      -2.508   5.640   0.483  0.00  0.00    +0.046 A 
ATOM     20  C   UNL     1      -1.918   5.187   1.647  0.00  0.00    +0.009 A 
BRANCH  18  21
ATOM     21  O   UNL     1      -4.001   5.283  -1.334  0.00  0.00    -0.492 OA
BRANCH  21  22
ATOM     22  C   UNL     1      -3.634   6.588  -1.785  0.00  0.00    +0.225 C 
ATOM     23  C   UNL     1      -4.388   6.913  -3.076  0.00  0.00    +0.048 C 
ENDBRANCH  21  22
ENDBRANCH  18  21
ENDBRANCH   4  15
BRANCH   1  24
ATOM     24  C   UNL     1      -0.183  -0.034   2.393  0.00  0.00    +0.021 C 
BRANCH  24  25
ATOM     25  N   UNL     1       0.642  -0.400   1.234  0.00  0.00    +0.387 N 
ATOM     26  H   UNL     1       1.480   0.161   1.228  0.00  0.00    -0.081 HD
BRANCH  25  27
ATOM     27  C   UNL     1       1.004  -1.821   1.320  0.00  0.00    -0.068 C 
ATOM     28  C   UNL     1       1.794  -2.069   2.607  0.00  0.00    -0.015 C 
ATOM     29  C   UNL     1       2.171  -3.549   2.696  0.00  0.00    -0.002 C 
ATOM     30  C   UNL     1       3.031  -3.930   1.488  0.00  0.00    -0.000 C 
ATOM     31  C   UNL     1       2.241  -3.681   0.202  0.00  0.00    -0.002 C 
ATOM     32  C   UNL     1       1.864  -2.201   0.113  0.00  0.00    -0.015 C 
ENDBRANCH  25  27
BRANCH  25  34
ATOM     33  C   UNL     1      -1.315  -1.111  -0.055  0.00  0.00    -0.017 C 
ATOM     34  C   UNL     1      -0.116  -0.161  -0.001  0.00  0.00    -0.081 C 
ENDBRANCH  25  34
ENDBRANCH  24  25
ENDBRANCH   1  24
TORSDOF 8
