REMARK  Name = ZINC12603223
REMARK  9 active torsions:
REMARK  status: ('A' for Active; 'I' for Inactive)
REMARK    1  A    between atoms: C_1  and  O_2
REMARK    2  A    between atoms: O_2  and  C_3
REMARK    3  A    between atoms: C_3  and  C_4
REMARK    4  A    between atoms: C_4  and  N_5
REMARK    5  A    between atoms: N_5  and  C_6
REMARK    6  A    between atoms: C_9  and  C_32
REMARK    7  A    between atoms: C_12  and  C_28
REMARK    8  A    between atoms: C_28  and  O_30
REMARK    9  A    between atoms: O_30  and  C_31
REMARK                            x       y       z     vdW  Elec       q    Type
REMARK                         _______ _______ _______ _____ _____    ______ ____
ROOT
ATOM      1  C   UNL     1       1.876  -0.401  -1.560  0.00  0.00    -0.068 C 
ATOM      2  C   UNL     1       0.900  -0.203  -0.398  0.00  0.00    +0.008 C 
ATOM      3  C   UNL     1       0.517   1.276  -0.299  0.00  0.00    +0.087 C 
ATOM      4  N   UNL     1       1.729   2.078  -0.094  0.00  0.00    -0.274 NA
ATOM      5  C   UNL     1       1.421   3.483   0.197  0.00  0.00    +0.172 C 
ATOM      6  C   UNL     1       2.661   4.179   0.776  0.00  0.00    +0.068 C 
ATOM      7  C   UNL     1       3.839   3.849  -0.105  0.00  0.00    -0.016 A 
ATOM      8  C   UNL     1       5.137   4.484  -0.174  0.00  0.00    +0.003 A 
ATOM      9  C   UNL     1       5.707   5.559   0.515  0.00  0.00    +0.010 A 
ATOM     10  C   UNL     1       6.995   5.898   0.180  0.00  0.00    +0.001 A 
ATOM     11  C   UNL     1       7.707   5.216  -0.792  0.00  0.00    +0.002 A 
ATOM     12  C   UNL     1       7.168   4.148  -1.489  0.00  0.00    +0.026 A 
ATOM     13  C   UNL     1       5.862   3.781  -1.171  0.00  0.00    +0.047 A 
ATOM     14  N   UNL     1       5.045   2.798  -1.653  0.00  0.00    -0.356 N 
ATOM     15  H   UNL     1       5.405   2.122  -2.442  0.00  0.00    +0.166 HD
ATOM     16  C   UNL     1       3.837   2.845  -1.013  0.00  0.00    +0.038 A 
ATOM     17  C   UNL     1       2.645   1.948  -1.236  0.00  0.00    +0.103 C 
ATOM     18  C   UNL     1       3.103   0.492  -1.351  0.00  0.00    +0.009 C 
ENDROOT
BRANCH   3  19
ATOM     19  C   UNL     1      -0.422   1.477   0.862  0.00  0.00    -0.030 A 
ATOM     20  C   UNL     1       0.077   1.551   2.149  0.00  0.00    +0.008 A 
ATOM     21  C   UNL     1      -0.782   1.740   3.215  0.00  0.00    +0.038 A 
ATOM     22  C   UNL     1      -2.145   1.844   2.994  0.00  0.00    +0.123 A 
ATOM     23  C   UNL     1      -2.645   1.765   1.705  0.00  0.00    +0.038 A 
ATOM     24  C   UNL     1      -1.783   1.581   0.641  0.00  0.00    +0.008 A 
ATOM     25  F   UNL     1      -2.987   2.024   4.035  0.00  0.00    -0.205 F 
ENDBRANCH   3  19
BRANCH   1  26
ATOM     26  N   UNL     1       2.297  -1.808  -1.611  0.00  0.00    +0.382 N 
ATOM     27  H   UNL     1       2.374  -2.191  -0.583  0.00  0.00    -0.085 HD
ATOM     28  H   UNL     1       3.283  -1.863  -2.097  0.00  0.00    -0.085 HD
BRANCH  26  29
ATOM     29  C   UNL     1       1.333  -2.619  -2.365  0.00  0.00    -0.054 C 
BRANCH  29  30
ATOM     30  C   UNL     1       1.805  -4.074  -2.397  0.00  0.00    +0.140 C 
BRANCH  30  32
ATOM     31  C   UNL     1       2.219  -5.969  -0.989  0.00  0.00    +0.193 C 
ATOM     32  O   UNL     1       1.793  -4.608  -1.071  0.00  0.00    -0.385 OA
ENDBRANCH  30  32
ENDBRANCH  29  30
ENDBRANCH  26  29
ENDBRANCH   1  26
BRANCH   5  33
ATOM     33  C   UNL     1       1.007   4.174  -1.077  0.00  0.00    +0.325 C 
ATOM     34  O   UNL     1       0.786   3.525  -2.072  0.00  0.00    -0.249 OA
BRANCH  33  35
ATOM     35  O   UNL     1       0.883   5.510  -1.106  0.00  0.00    -0.467 OA
ATOM     36  C   UNL     1       0.480   6.107  -2.367  0.00  0.00    +0.280 C 
ENDBRANCH  33  35
ENDBRANCH   5  33
TORSDOF 7
