REMARK  Name = ZINC13526830
REMARK  10 active torsions:
REMARK  status: ('A' for Active; 'I' for Inactive)
REMARK    1  A    between atoms: C_1  and  C_2
REMARK    2  A    between atoms: C_2  and  C_4
REMARK    3  A    between atoms: C_2  and  O_10
REMARK    4  A    between atoms: O_10  and  C_11
REMARK    5  A    between atoms: C_11  and  C_13
REMARK    6  A    between atoms: C_24  and  C_34
REMARK    7  A    between atoms: C_28  and  C_29
REMARK    8  A    between atoms: C_34  and  C_35
REMARK    9  A    between atoms: C_34  and  C_36
REMARK   10  A    between atoms: C_34  and  C_37
REMARK                            x       y       z     vdW  Elec       q    Type
REMARK                         _______ _______ _______ _____ _____    ______ ____
ROOT
ATOM      1  C   UNL     1       3.641  -1.454   1.894  0.00  0.00    +0.073 A 
ATOM      2  C   UNL     1       3.623  -2.857   2.309  0.00  0.00    +0.015 A 
ATOM      3  C   UNL     1       3.179  -3.868   1.451  0.00  0.00    +0.011 A 
ATOM      4  C   UNL     1       3.179  -5.163   1.878  0.00  0.00    +0.001 A 
ATOM      5  C   UNL     1       3.618  -5.492   3.159  0.00  0.00    +0.002 A 
ATOM      6  C   UNL     1       4.056  -4.533   4.019  0.00  0.00    +0.028 A 
ATOM      7  C   UNL     1       4.069  -3.185   3.614  0.00  0.00    +0.072 A 
ATOM      8  N   UNL     1       4.491  -2.224   4.434  0.00  0.00    -0.247 NA
ATOM      9  C   UNL     1       4.517  -0.947   4.084  0.00  0.00    +0.072 A 
ATOM     10  C   UNL     1       4.106  -0.518   2.808  0.00  0.00    -0.007 A 
ATOM     11  C   UNL     1       4.156   0.929   2.402  0.00  0.00    +0.042 C 
ATOM     12  C   UNL     1       4.153   1.847   3.622  0.00  0.00    +0.003 C 
ATOM     13  C   UNL     1       5.298   1.445   4.561  0.00  0.00    +0.041 C 
ATOM     14  C   UNL     1       4.996   0.048   5.065  0.00  0.00    -0.020 C 
ATOM     15  C   UNL     1       5.174  -0.282   6.362  0.00  0.00    +0.020 C 
ENDROOT
BRANCH  15  16
ATOM     16  C   UNL     1       5.849   0.649   7.267  0.00  0.00    +0.013 A 
ATOM     17  C   UNL     1       6.007   0.571   8.643  0.00  0.00    +0.015 A 
ATOM     18  C   UNL     1       6.689   1.580   9.279  0.00  0.00    +0.008 A 
ATOM     19  C   UNL     1       7.183   2.614   8.547  0.00  0.00    +0.046 A 
ATOM     20  S   UNL     1       6.691   2.177   6.888  0.00  0.00    -0.097 S 
ENDBRANCH  15  16
BRANCH  12  21
ATOM     21  C   UNL     1       4.346   3.296   3.171  0.00  0.00    -0.034 C 
ATOM     22  C   UNL     1       3.205   3.694   2.232  0.00  0.00    +0.011 C 
ATOM     23  C   UNL     1       4.343   4.215   4.395  0.00  0.00    +0.011 C 
ATOM     24  C   UNL     1       5.681   3.429   2.437  0.00  0.00    +0.011 C 
ENDBRANCH  12  21
BRANCH   1  25
ATOM     25  C   UNL     1       3.186  -1.048   0.548  0.00  0.00    +0.341 C 
ATOM     26  O   UNL     1       3.976  -1.008  -0.374  0.00  0.00    -0.245 OA
BRANCH  25  27
ATOM     27  O   UNL     1       1.895  -0.723   0.343  0.00  0.00    -0.449 OA
BRANCH  27  29
ATOM     28  C   UNL     1       1.689   1.173  -1.142  0.00  0.00    +0.062 C 
ATOM     29  C   UNL     1       1.525  -0.340  -0.984  0.00  0.00    +0.259 C 
BRANCH  29  30
ATOM     30  C   UNL     1       0.087  -0.718  -1.233  0.00  0.00    +0.261 C 
ATOM     31  O   UNL     1      -0.583  -1.179  -0.334  0.00  0.00    -0.271 OA
ATOM     32  N   UNL     1      -0.453  -0.545  -2.455  0.00  0.00    -0.237 N 
ATOM     33  C   UNL     1      -1.738  -0.883  -2.679  0.00  0.00    +0.303 C 
ATOM     34  O   UNL     1      -2.410  -1.344  -1.777  0.00  0.00    -0.253 OA
ATOM     35  N   UNL     1      -2.278  -0.710  -3.901  0.00  0.00    -0.313 N 
ATOM     36  H   UNL     1       0.084  -0.177  -3.175  0.00  0.00    +0.159 HD
ATOM     37  H   UNL     1      -1.741  -0.341  -4.620  0.00  0.00    +0.146 HD
ATOM     38  H   UNL     1      -3.203  -0.953  -4.062  0.00  0.00    +0.146 HD
ENDBRANCH  29  30
ENDBRANCH  27  29
ENDBRANCH  25  27
ENDBRANCH   1  25
TORSDOF 6
