REMARK  Name = ZINC10389894
REMARK  7 active torsions:
REMARK  status: ('A' for Active; 'I' for Inactive)
REMARK    1  A    between atoms: C_1  and  C_2
REMARK    2  A    between atoms: C_5  and  C_8
REMARK    3  A    between atoms: C_8  and  C_10
REMARK    4  A    between atoms: C_15  and  C_16
REMARK    5  A    between atoms: C_16  and  O_18
REMARK    6  A    between atoms: O_18  and  C_19
REMARK    7  A    between atoms: C_19  and  C_20
REMARK                            x       y       z     vdW  Elec       q    Type
REMARK                         _______ _______ _______ _____ _____    ______ ____
ROOT
ATOM      1  C   UNL     1       1.244   1.908   0.238  0.00  0.00    +0.328 C 
ENDROOT
BRANCH   1   2
ATOM      2  C   UNL     1       1.022   3.338   0.659  0.00  0.00    +0.258 C 
ATOM      3  O   UNL     1      -0.107   3.763   0.788  0.00  0.00    -0.271 OA
ATOM      4  N   UNL     1       2.076   4.143   0.894  0.00  0.00    -0.252 N 
ATOM      5  C   UNL     1       3.388   3.639   0.927  0.00  0.00    +0.059 A 
ATOM      6  C   UNL     1       3.648   2.341   1.319  0.00  0.00    +0.025 A 
ATOM      7  C   UNL     1       4.952   1.880   1.345  0.00  0.00    +0.002 A 
ATOM      8  C   UNL     1       5.992   2.713   0.977  0.00  0.00    +0.002 A 
ATOM      9  C   UNL     1       5.738   4.012   0.574  0.00  0.00    +0.025 A 
ATOM     10  C   UNL     1       4.435   4.481   0.540  0.00  0.00    +0.055 A 
ATOM     11  N   UNL     1       4.155   5.788   0.124  0.00  0.00    -0.282 N 
ATOM     12  C   UNL     1       2.961   6.353   0.395  0.00  0.00    +0.241 C 
ATOM     13  O   UNL     1       2.741   7.492   0.044  0.00  0.00    -0.273 OA
ATOM     14  C   UNL     1       1.900   5.581   1.130  0.00  0.00    +0.118 C 
ATOM     15  C   UNL     1       1.983   5.875   2.638  0.00  0.00    +0.036 C 
ATOM     16  C   UNL     1       0.927   6.987   2.865  0.00  0.00    +0.003 C 
ATOM     17  C   UNL     1      -0.220   6.571   1.910  0.00  0.00    +0.003 C 
ATOM     18  C   UNL     1       0.506   6.021   0.663  0.00  0.00    +0.036 C 
ATOM     19  H   UNL     1       4.826   6.292  -0.363  0.00  0.00    +0.155 HD
ENDBRANCH   1   2
BRANCH   1  20
ATOM     20  O   UNL     1       0.014   1.368  -0.311  0.00  0.00    -0.452 OA
BRANCH  20  21
ATOM     21  C   UNL     1       0.043   0.091  -0.738  0.00  0.00    +0.340 C 
ATOM     22  O   UNL     1       1.069  -0.554  -0.654  0.00  0.00    -0.245 OA
BRANCH  21  28
ATOM     23  C   UNL     1      -1.113  -1.811  -1.882  0.00  0.00    +0.036 A 
ATOM     24  C   UNL     1      -2.268  -2.382  -2.413  0.00  0.00    +0.012 A 
ATOM     25  C   UNL     1      -3.460  -1.683  -2.385  0.00  0.00    +0.001 A 
ATOM     26  C   UNL     1      -3.517  -0.418  -1.826  0.00  0.00    +0.001 A 
ATOM     27  C   UNL     1      -2.383   0.163  -1.290  0.00  0.00    +0.016 A 
ATOM     28  C   UNL     1      -1.173  -0.526  -1.310  0.00  0.00    +0.070 A 
BRANCH  23  29
ATOM     29  C   UNL     1       0.166  -2.552  -1.915  0.00  0.00    +0.194 C 
ATOM     30  O   UNL     1       0.362  -3.460  -1.131  0.00  0.00    -0.287 OA
BRANCH  29  35
ATOM     31  C   UNL     1       4.211  -1.141  -5.755  0.00  0.00    +0.044 C 
ATOM     32  C   UNL     1       3.151  -1.510  -4.750  0.00  0.00    -0.050 A 
ATOM     33  C   UNL     1       3.343  -2.599  -3.916  0.00  0.00    +0.004 A 
ATOM     34  C   UNL     1       2.378  -2.943  -2.993  0.00  0.00    +0.012 A 
ATOM     35  C   UNL     1       1.204  -2.190  -2.901  0.00  0.00    +0.022 A 
ATOM     36  C   UNL     1       1.015  -1.096  -3.749  0.00  0.00    +0.012 A 
ATOM     37  C   UNL     1       1.992  -0.760  -4.664  0.00  0.00    +0.004 A 
ENDBRANCH  29  35
ENDBRANCH  23  29
ENDBRANCH  21  28
ENDBRANCH  20  21
ENDBRANCH   1  20
TORSDOF 6
