REMARK  Name = ZINC38626645
REMARK  6 active torsions:
REMARK  status: ('A' for Active; 'I' for Inactive)
REMARK    1  A    between atoms: C_1  and  C_2
REMARK    2  A    between atoms: C_3  and  C_14
REMARK    3  A    between atoms: C_4  and  C_8
REMARK    4  A    between atoms: N_19  and  N_20
REMARK    5  A    between atoms: C_21  and  C_23
REMARK    6  A    between atoms: C_26  and  C_28
REMARK                            x       y       z     vdW  Elec       q    Type
REMARK                         _______ _______ _______ _____ _____    ______ ____
ROOT
ATOM      1  C   UNL     1      -2.701  -0.242   0.149  0.00  0.00    +0.251 C 
ATOM      2  O   UNL     1      -2.895   0.958   0.213  0.00  0.00    -0.270 OA
ATOM      3  N   UNL     1      -3.744  -1.095   0.150  0.00  0.00    -0.259 N 
ATOM      4  C   UNL     1      -5.041  -0.604   0.106  0.00  0.00    +0.189 C 
ATOM      5  S   UNL     1      -5.329   1.132   0.191  0.00  0.00    -0.012 SA
ATOM      6  N   UNL     1      -6.046  -1.427   0.001  0.00  0.00    -0.156 NA
ATOM      7  H   UNL     1      -3.589  -2.052   0.181  0.00  0.00    +0.157 HD
ENDROOT
BRANCH   1  10
ATOM      8  C   UNL     1      -1.983  -3.184   0.212  0.00  0.00    +0.089 C 
ATOM      9  C   UNL     1      -1.013  -2.037   0.095  0.00  0.00    +0.132 C 
ATOM     10  C   UNL     1      -1.377  -0.743   0.075  0.00  0.00    +0.078 C 
ATOM     11  C   UNL     1      -0.110   0.084  -0.042  0.00  0.00    +0.161 C 
ATOM     12  N   UNL     1       0.949  -0.892   0.324  0.00  0.00    -0.144 NA
ATOM     13  O   UNL     1       0.322  -2.184   0.004  0.00  0.00    -0.410 OA
ATOM     14  H   UNL     1       1.782  -0.745  -0.227  0.00  0.00    +0.168 HD
BRANCH  11  15
ATOM     15  C   UNL     1      -0.134   1.240   0.925  0.00  0.00    -0.023 A 
ATOM     16  C   UNL     1       0.265   1.053   2.236  0.00  0.00    +0.005 A 
ATOM     17  C   UNL     1       0.242   2.113   3.123  0.00  0.00    +0.000 A 
ATOM     18  C   UNL     1      -0.178   3.360   2.699  0.00  0.00    +0.000 A 
ATOM     19  C   UNL     1      -0.576   3.547   1.389  0.00  0.00    +0.000 A 
ATOM     20  C   UNL     1      -0.550   2.488   0.501  0.00  0.00    +0.005 A 
ENDBRANCH  11  15
ENDBRANCH   1  10
BRANCH   6  21
ATOM     21  N   UNL     1      -5.826  -2.810   0.043  0.00  0.00    -0.200 N 
ATOM     22  C   UNL     1      -6.849  -3.662  -0.168  0.00  0.00    +0.280 C 
ATOM     23  O   UNL     1      -7.945  -3.231  -0.485  0.00  0.00    -0.267 OA
ATOM     24  H   UNL     1      -4.938  -3.155   0.224  0.00  0.00    +0.178 HD
BRANCH  22  25
ATOM     25  C   UNL     1      -6.645  -5.101  -0.017  0.00  0.00    +0.132 C 
ATOM     26  N   UNL     1      -5.567  -5.713   0.406  0.00  0.00    -0.148 NA
ATOM     27  N   UNL     1      -5.661  -6.985   0.440  0.00  0.00    -0.150 NA
ATOM     28  C   UNL     1      -6.830  -7.449   0.043  0.00  0.00    +0.112 C 
ATOM     29  C   UNL     1      -7.641  -6.212  -0.309  0.00  0.00    +0.123 C 
BRANCH  28  30
ATOM     30  C   UNL     1      -7.239  -8.794  -0.032  0.00  0.00    +0.151 A 
ATOM     31  C   UNL     1      -6.478  -9.900   0.308  0.00  0.00    +0.051 A 
ATOM     32  C   UNL     1      -7.282 -11.023   0.076  0.00  0.00    +0.042 A 
ATOM     33  C   UNL     1      -8.473 -10.576  -0.386  0.00  0.00    +0.196 A 
ATOM     34  O   UNL     1      -8.447  -9.238  -0.444  0.00  0.00    -0.462 OA
ENDBRANCH  28  30
ENDBRANCH  22  25
ENDBRANCH   6  21
TORSDOF 5
