REMARK  Name = ZINC36048646
REMARK  11 active torsions:
REMARK  status: ('A' for Active; 'I' for Inactive)
REMARK    1  A    between atoms: C_1  and  C_2
REMARK    2  A    between atoms: C_2  and  O_3
REMARK    3  A    between atoms: O_3  and  C_4
REMARK    4  A    between atoms: C_4  and  C_6
REMARK    5  A    between atoms: C_7  and  C_30
REMARK    6  A    between atoms: C_11  and  C_13
REMARK    7  A    between atoms: C_16  and  O_21
REMARK    8  A    between atoms: C_17  and  O_19
REMARK    9  A    between atoms: O_19  and  C_20
REMARK   10  A    between atoms: O_21  and  C_22
REMARK   11  A    between atoms: C_23  and  C_26
REMARK                            x       y       z     vdW  Elec       q    Type
REMARK                         _______ _______ _______ _____ _____    ______ ____
ROOT
ATOM      1  C   UNL     1       1.321  -1.938  -2.698  0.00  0.00    +0.091 C 
ATOM      2  C   UNL     1       1.407  -3.285  -2.891  0.00  0.00    +0.158 C 
ATOM      3  N   UNL     1       2.043  -3.783  -3.948  0.00  0.00    -0.220 NA
ATOM      4  C   UNL     1       2.626  -3.067  -4.870  0.00  0.00    +0.166 C 
ATOM      5  N   UNL     1       2.655  -1.696  -4.864  0.00  0.00    -0.267 N 
ATOM      6  C   UNL     1       1.966  -1.034  -3.726  0.00  0.00    +0.150 C 
ATOM      7  C   UNL     1       3.310  -1.103  -5.908  0.00  0.00    +0.050 C 
ATOM      8  C   UNL     1       3.904  -1.991  -6.911  0.00  0.00    +0.072 C 
ATOM      9  S   UNL     1       3.516  -3.523  -6.341  0.00  0.00    -0.060 S 
ENDROOT
BRANCH   6  10
ATOM     10  C   UNL     1       0.899  -0.129  -4.285  0.00  0.00    -0.018 A 
ATOM     11  C   UNL     1      -0.028  -0.629  -5.181  0.00  0.00    +0.009 A 
ATOM     12  C   UNL     1      -1.010   0.197  -5.697  0.00  0.00    +0.050 A 
ATOM     13  C   UNL     1      -1.066   1.528  -5.317  0.00  0.00    +0.162 A 
ATOM     14  C   UNL     1      -0.134   2.030  -4.415  0.00  0.00    +0.162 A 
ATOM     15  C   UNL     1       0.845   1.196  -3.897  0.00  0.00    +0.055 A 
BRANCH  14  16
ATOM     16  O   UNL     1      -0.185   3.336  -4.038  0.00  0.00    -0.491 OA
ATOM     17  C   UNL     1       0.865   3.809  -3.191  0.00  0.00    +0.277 C 
ENDBRANCH  14  16
BRANCH  13  18
ATOM     18  O   UNL     1      -2.031   2.341  -5.824  0.00  0.00    -0.491 OA
ATOM     19  C   UNL     1      -2.954   1.757  -6.745  0.00  0.00    +0.277 C 
ENDBRANCH  13  18
ENDBRANCH   6  10
BRANCH   7  20
ATOM     20  C   UNL     1       3.407   0.268  -6.012  0.00  0.00    +0.119 C 
ATOM     21  C   UNL     1       3.963   0.852  -7.176  0.00  0.00    +0.381 C 
ATOM     22  O   UNL     1       4.270   0.087  -8.226  0.00  0.00    -0.241 OA
ATOM     23  O   UNL     1       4.181   2.168  -7.224  0.00  0.00    -0.241 OA
ENDBRANCH   7  20
BRANCH   2  24
ATOM     24  C   UNL     1       0.773  -4.221  -1.895  0.00  0.00    +0.435 C 
ATOM     25  F   UNL     1       0.039  -3.482  -0.962  0.00  0.00    -0.164 F 
ATOM     26  F   UNL     1      -0.080  -5.106  -2.564  0.00  0.00    -0.164 F 
ATOM     27  F   UNL     1       1.772  -4.945  -1.235  0.00  0.00    -0.164 F 
ENDBRANCH   2  24
BRANCH   1  28
ATOM     28  C   UNL     1       0.647  -1.403  -1.578  0.00  0.00    +0.339 C 
ATOM     29  O   UNL     1      -0.499  -1.008  -1.689  0.00  0.00    -0.245 OA
BRANCH  28  30
ATOM     30  O   UNL     1       1.273  -1.331  -0.384  0.00  0.00    -0.462 OA
BRANCH  30  32
ATOM     31  C   UNL     1       1.403  -0.744   1.957  0.00  0.00    +0.048 C 
ATOM     32  C   UNL     1       0.501  -0.871   0.727  0.00  0.00    +0.229 C 
ENDBRANCH  30  32
ENDBRANCH  28  30
ENDBRANCH   1  28
TORSDOF 8
