REMARK  Name = ZINC35498933
REMARK  16 active torsions:
REMARK  status: ('A' for Active; 'I' for Inactive)
REMARK    1  A    between atoms: C_1  and  C_2
REMARK    2  A    between atoms: C_2  and  C_3
REMARK    3  A    between atoms: C_2  and  C_4
REMARK    4  A    between atoms: C_2  and  C_5
REMARK    5  A    between atoms: C_8  and  C_11
REMARK    6  A    between atoms: C_11  and  N_12
REMARK    7  A    between atoms: C_16  and  C_17
REMARK    8  A    between atoms: C_17  and  N_18
REMARK    9  A    between atoms: N_18  and  C_19
REMARK   10  A    between atoms: N_18  and  C_26
REMARK   11  A    between atoms: C_19  and  C_20
REMARK   12  A    between atoms: C_26  and  C_27
REMARK   13  A    between atoms: C_27  and  C_29
REMARK   14  A    between atoms: C_27  and  O_37
REMARK   15  A    between atoms: C_29  and  O_30
REMARK   16  A    between atoms: O_30  and  C_31
REMARK                            x       y       z     vdW  Elec       q    Type
REMARK                         _______ _______ _______ _____ _____    ______ ____
ROOT
ATOM      1  N   UNL     1       4.131   1.517  -3.936  0.00  0.00    +0.388 N 
ATOM      2  H   UNL     1       3.377   1.563  -3.267  0.00  0.00    -0.081 HD
ENDROOT
BRANCH   1   3
ATOM      3  C   UNL     1       3.579   1.337  -5.285  0.00  0.00    -0.024 C 
BRANCH   3   8
ATOM      4  N   UNL     1       3.131  -1.166  -5.555  0.00  0.00    -0.348 N 
ATOM      5  C   UNL     1       2.058  -2.004  -5.490  0.00  0.00    +0.086 A 
ATOM      6  C   UNL     1       0.963  -1.266  -5.215  0.00  0.00    +0.019 A 
ATOM      7  C   UNL     1       1.376   0.077  -5.106  0.00  0.00    +0.021 A 
ATOM      8  C   UNL     1       2.708   0.107  -5.313  0.00  0.00    +0.003 A 
BRANCH   4   9
ATOM      9  C   UNL     1       4.513  -1.568  -5.832  0.00  0.00    +0.156 C 
BRANCH   9  13
ATOM     10  C   UNL     1       5.231  -1.389 -10.040  0.00  0.00    -0.042 A 
ATOM     11  C   UNL     1       5.597  -0.330  -9.230  0.00  0.00    +0.004 A 
ATOM     12  C   UNL     1       5.365  -0.388  -7.869  0.00  0.00    +0.005 A 
ATOM     13  C   UNL     1       4.765  -1.505  -7.317  0.00  0.00    -0.028 A 
ATOM     14  C   UNL     1       4.398  -2.563  -8.126  0.00  0.00    +0.005 A 
ATOM     15  C   UNL     1       4.627  -2.504  -9.488  0.00  0.00    +0.004 A 
BRANCH  10  17
ATOM     16  C   UNL     1       4.149  -1.315 -12.269  0.00  0.00    +0.015 C 
ATOM     17  C   UNL     1       5.485  -1.326 -11.524  0.00  0.00    -0.013 C 
ATOM     18  C   UNL     1       6.299  -2.548 -11.954  0.00  0.00    +0.015 C 
ATOM     19  C   UNL     1       6.264  -0.051 -11.854  0.00  0.00    +0.015 C 
ENDBRANCH  10  17
ENDBRANCH   9  13
ENDBRANCH   4   9
ENDBRANCH   3   8
ENDBRANCH   1   3
BRANCH   1  20
ATOM     20  C   UNL     1       5.004   0.382  -3.610  0.00  0.00    -0.042 C 
BRANCH  20  21
ATOM     21  C   UNL     1       5.436   0.477  -2.169  0.00  0.00    -0.064 A 
ATOM     22  C   UNL     1       6.636   1.082  -1.845  0.00  0.00    +0.002 A 
ATOM     23  C   UNL     1       7.031   1.170  -0.523  0.00  0.00    +0.000 A 
ATOM     24  C   UNL     1       6.226   0.653   0.475  0.00  0.00    +0.000 A 
ATOM     25  C   UNL     1       5.025   0.050   0.151  0.00  0.00    +0.000 A 
ATOM     26  C   UNL     1       4.628  -0.034  -1.170  0.00  0.00    +0.002 A 
ENDBRANCH  20  21
ENDBRANCH   1  20
BRANCH   1  27
ATOM     27  C   UNL     1       4.907   2.763  -3.886  0.00  0.00    -0.043 C 
BRANCH  27  28
ATOM     28  C   UNL     1       4.400   3.634  -2.736  0.00  0.00    +0.135 C 
BRANCH  28  29
ATOM     29  O   UNL     1       4.459   2.893  -1.515  0.00  0.00    -0.390 OA
ATOM     30  H   UNL     1       5.358   2.705  -1.212  0.00  0.00    +0.210 HD
ENDBRANCH  28  29
BRANCH  28  31
ATOM     31  C   UNL     1       5.276   4.883  -2.617  0.00  0.00    +0.258 C 
BRANCH  31  32
ATOM     32  O   UNL     1       4.734   5.752  -1.621  0.00  0.00    -0.489 OA
BRANCH  32  33
ATOM     33  C   UNL     1       5.398   6.915  -1.390  0.00  0.00    +0.121 A 
ATOM     34  C   UNL     1       6.544   7.217  -2.111  0.00  0.00    +0.045 A 
ATOM     35  C   UNL     1       7.216   8.400  -1.875  0.00  0.00    +0.004 A 
ATOM     36  C   UNL     1       6.748   9.284  -0.920  0.00  0.00    +0.000 A 
ATOM     37  C   UNL     1       5.607   8.986  -0.199  0.00  0.00    +0.004 A 
ATOM     38  C   UNL     1       4.927   7.806  -0.436  0.00  0.00    +0.045 A 
ENDBRANCH  32  33
ENDBRANCH  31  32
ENDBRANCH  28  31
ENDBRANCH  27  28
ENDBRANCH   1  27
TORSDOF 13
