REMARK  Name = ZINC02302076
REMARK  6 active torsions:
REMARK  status: ('A' for Active; 'I' for Inactive)
REMARK    1  A    between atoms: N_12  and  C_16
REMARK    2  A    between atoms: C_16  and  C_17
REMARK    3  A    between atoms: C_17  and  C_18
REMARK    4  A    between atoms: C_18  and  C_19
REMARK    5  A    between atoms: N_23  and  C_24
REMARK    6  A    between atoms: C_24  and  C_25
REMARK                            x       y       z     vdW  Elec       q    Type
REMARK                         _______ _______ _______ _____ _____    ______ ____
ROOT
ATOM      1  C   UNL     1      -2.914  10.736   0.158  0.00  0.00    +0.017 A 
ATOM      2  C   UNL     1      -3.853   9.880  -0.384  0.00  0.00    +0.025 A 
ATOM      3  C   UNL     1      -3.674   8.505  -0.302  0.00  0.00    +0.045 A 
ATOM      4  C   UNL     1      -2.530   8.003   0.336  0.00  0.00    +0.011 A 
ATOM      5  C   UNL     1      -1.589   8.873   0.879  0.00  0.00    +0.025 A 
ATOM      6  C   UNL     1      -1.786  10.237   0.788  0.00  0.00    +0.019 A 
ATOM      7 BR   UNL     1      -0.513  11.426   1.524  0.00  0.00    -0.050 Br
ATOM      8  C   UNL     1      -2.623   6.530   0.264  0.00  0.00    +0.065 C 
ATOM      9  C   UNL     1      -1.724   5.606   0.759  0.00  0.00    +0.089 C 
ATOM     10  C   UNL     1      -1.769   4.119   0.713  0.00  0.00    +0.259 C 
ATOM     11  O   UNL     1      -2.687   3.521   0.187  0.00  0.00    -0.269 OA
ATOM     12  N   UNL     1      -0.755   3.484   1.277  0.00  0.00    -0.255 N 
ATOM     13  C   UNL     1       0.258   4.152   1.864  0.00  0.00    +0.121 C 
ATOM     14  S   UNL     1       1.640   3.511   2.645  0.00  0.00    -0.027 S 
ATOM     15  S   UNL     1      -0.185   5.866   1.631  0.00  0.00    -0.060 S 
ATOM     16  C   UNL     1      -3.883   6.261  -0.458  0.00  0.00    +0.253 C 
ATOM     17  O   UNL     1      -4.331   5.163  -0.733  0.00  0.00    -0.270 OA
ATOM     18  N   UNL     1      -4.450   7.443  -0.754  0.00  0.00    -0.256 N 
ENDROOT
BRANCH  12  19
ATOM     19  C   UNL     1      -0.735   2.019   1.269  0.00  0.00    +0.115 C 
BRANCH  19  20
ATOM     20  C   UNL     1      -0.019   1.526   0.010  0.00  0.00    +0.031 C 
BRANCH  20  21
ATOM     21  C   UNL     1       0.002  -0.004   0.002  0.00  0.00    +0.126 C 
BRANCH  21  22
ATOM     22  C   UNL     1       0.707  -0.490  -1.238  0.00  0.00    +0.356 C 
ATOM     23  O   UNL     1       1.148   0.305  -2.033  0.00  0.00    -0.246 OA
ATOM     24  O   UNL     1       0.846  -1.807  -1.459  0.00  0.00    -0.246 OA
ENDBRANCH  21  22
ENDBRANCH  20  21
ENDBRANCH  19  20
ENDBRANCH  12  19
BRANCH  18  25
ATOM     25  C   UNL     1      -5.720   7.593  -1.470  0.00  0.00    +0.239 C 
BRANCH  25  26
ATOM     26  C   UNL     1      -5.457   7.662  -2.952  0.00  0.00    +0.373 C 
ATOM     27  O   UNL     1      -4.324   7.591  -3.368  0.00  0.00    -0.245 OA
ATOM     28  O   UNL     1      -6.480   7.800  -3.809  0.00  0.00    -0.245 OA
ENDBRANCH  25  26
ENDBRANCH  18  25
TORSDOF 6
