REMARK  Name = ZINC14161155
REMARK  10 active torsions:
REMARK  status: ('A' for Active; 'I' for Inactive)
REMARK    1  A    between atoms: C_1  and  C_2
REMARK    2  A    between atoms: C_5  and  N_9
REMARK    3  A    between atoms: C_6  and  C_8
REMARK    4  A    between atoms: N_9  and  C_10
REMARK    5  A    between atoms: C_10  and  N_12
REMARK    6  A    between atoms: N_14  and  C_15
REMARK    7  A    between atoms: C_17  and  C_22
REMARK    8  A    between atoms: C_19  and  C_21
REMARK    9  A    between atoms: C_26  and  C_29
REMARK   10  A    between atoms: C_26  and  N_32
REMARK                            x       y       z     vdW  Elec       q    Type
REMARK                         _______ _______ _______ _____ _____    ______ ____
ROOT
ATOM      1  N   UNL     1       0.293  -6.125  -0.967  0.00  0.00    -0.269 N 
ATOM      2  C   UNL     1       0.281  -6.774  -2.179  0.00  0.00    +0.192 C 
ATOM      3  N   UNL     1       0.570  -6.117  -3.281  0.00  0.00    -0.181 NA
ATOM      4  N   UNL     1      -0.032  -8.105  -2.238  0.00  0.00    -0.303 N 
ATOM      5  C   UNL     1       0.994  -9.128  -1.992  0.00  0.00    +0.107 C 
ATOM      6  C   UNL     1       0.492 -10.078  -0.901  0.00  0.00    +0.016 C 
ATOM      7  C   UNL     1      -0.871 -10.642  -1.308  0.00  0.00    +0.015 C 
ATOM      8  C   UNL     1      -1.876  -9.497  -1.451  0.00  0.00    +0.016 C 
ATOM      9  C   UNL     1      -1.403  -8.540  -2.543  0.00  0.00    +0.107 C 
ATOM     10  H   UNL     1       0.129  -6.620  -0.150  0.00  0.00    +0.156 HD
ENDROOT
BRANCH   3  11
ATOM     11  C   UNL     1       0.627  -6.775  -4.471  0.00  0.00    +0.253 A 
ATOM     12  N   UNL     1       0.292  -8.062  -4.520  0.00  0.00    -0.216 NA
ATOM     13  C   UNL     1       0.338  -8.728  -5.661  0.00  0.00    +0.044 A 
ATOM     14  C   UNL     1       0.742  -8.071  -6.813  0.00  0.00    +0.046 A 
ATOM     15  C   UNL     1       1.085  -6.730  -6.729  0.00  0.00    +0.044 A 
ATOM     16  N   UNL     1       1.014  -6.117  -5.561  0.00  0.00    -0.216 NA
ATOM     17  C   UNL     1       1.530  -5.979  -7.958  0.00  0.00    +0.066 C 
ATOM     18  C   UNL     1      -0.044 -10.185  -5.708  0.00  0.00    +0.066 C 
ENDBRANCH   3  11
BRANCH   7  19
ATOM     19  N   UNL     1      -1.340 -11.579  -0.279  0.00  0.00    +0.389 N 
ATOM     20  C   UNL     1      -0.341 -12.638  -0.092  0.00  0.00    -0.077 C 
ATOM     21  C   UNL     1      -0.787 -13.572   1.035  0.00  0.00    -0.019 C 
ATOM     22  C   UNL     1      -2.136 -14.199   0.668  0.00  0.00    -0.004 C 
ATOM     23  C   UNL     1      -3.151 -13.083   0.403  0.00  0.00    -0.019 C 
ATOM     24  C   UNL     1      -2.617 -12.168  -0.701  0.00  0.00    -0.077 C 
ATOM     25  H   UNL     1      -1.470 -11.085   0.591  0.00  0.00    -0.080 HD
ENDBRANCH   7  19
BRANCH   7  26
ATOM     26  C   UNL     1      -0.743 -11.364  -2.624  0.00  0.00    +0.200 C 
ATOM     27  O   UNL     1       0.326 -11.829  -2.959  0.00  0.00    -0.278 OA
ATOM     28  N   UNL     1      -1.816 -11.494  -3.430  0.00  0.00    -0.330 N 
ATOM     29  H   UNL     1      -2.651 -11.060  -3.197  0.00  0.00    +0.145 HD
ATOM     30  H   UNL     1      -1.752 -12.021  -4.241  0.00  0.00    +0.145 HD
ENDBRANCH   7  26
BRANCH   1  31
ATOM     31  C   UNL     1       0.534  -4.800  -0.916  0.00  0.00    +0.141 C 
ATOM     32  S   UNL     1       0.824  -3.926  -2.359  0.00  0.00    -0.018 S 
BRANCH  31  33
ATOM     33  N   UNL     1       0.546  -4.163   0.272  0.00  0.00    -0.296 N 
ATOM     34  H   UNL     1       0.458  -4.669   1.095  0.00  0.00    +0.154 HD
BRANCH  33  39
ATOM     35  C   UNL     1       1.113   1.478   0.457  0.00  0.00    +0.044 C 
ATOM     36  C   UNL     1       0.962  -0.020   0.408  0.00  0.00    -0.050 A 
ATOM     37  C   UNL     1       1.823  -0.775  -0.367  0.00  0.00    +0.005 A 
ATOM     38  C   UNL     1       1.688  -2.148  -0.415  0.00  0.00    +0.024 A 
ATOM     39  C   UNL     1       0.686  -2.772   0.318  0.00  0.00    +0.036 A 
ATOM     40  C   UNL     1      -0.177  -2.011   1.096  0.00  0.00    -0.029 A 
ATOM     41  C   UNL     1      -0.033  -0.638   1.143  0.00  0.00    +0.008 A 
ATOM     42  C   UNL     1      -1.265  -2.683   1.892  0.00  0.00    +0.045 C 
ENDBRANCH  33  39
ENDBRANCH  31  33
ENDBRANCH   1  31
TORSDOF 6
