REMARK  Name = ZINC20813291
REMARK  11 active torsions:
REMARK  status: ('A' for Active; 'I' for Inactive)
REMARK    1  A    between atoms: C_1  and  C_2
REMARK    2  A    between atoms: C_5  and  C_8
REMARK    3  A    between atoms: C_10  and  N_13
REMARK    4  A    between atoms: C_14  and  C_16
REMARK    5  A    between atoms: C_16  and  N_17
REMARK    6  A    between atoms: N_17  and  C_18
REMARK    7  A    between atoms: N_17  and  C_19
REMARK    8  A    between atoms: C_19  and  C_20
REMARK    9  A    between atoms: C_21  and  C_32
REMARK   10  A    between atoms: N_23  and  C_26
REMARK   11  A    between atoms: C_24  and  C_25
REMARK                            x       y       z     vdW  Elec       q    Type
REMARK                         _______ _______ _______ _____ _____    ______ ____
ROOT
ATOM      1  C   UNL     1       2.211   1.585   0.111  0.00  0.00    +0.019 C 
ENDROOT
BRANCH   1   3
ATOM      2  N   UNL     1      -0.219   2.020   0.274  0.00  0.00    -0.256 N 
ATOM      3  C   UNL     1       1.033   2.517   0.237  0.00  0.00    +0.203 C 
ATOM      4  O   UNL     1       1.213   3.715   0.304  0.00  0.00    -0.277 OA
ATOM      5  H   UNL     1      -0.381   0.934   0.217  0.00  0.00    +0.158 HD
BRANCH   2   8
ATOM      6  C   UNL     1      -3.298   3.770   0.540  0.00  0.00    +0.115 A 
ATOM      7  C   UNL     1      -2.620   2.529   0.422  0.00  0.00    +0.097 A 
ATOM      8  C   UNL     1      -1.303   2.879   0.383  0.00  0.00    +0.224 A 
ATOM      9  O   UNL     1      -1.262   4.218   0.467  0.00  0.00    -0.339 OA
ATOM     10  N   UNL     1      -2.370   4.696   0.553  0.00  0.00    -0.076 NA
BRANCH   6  15
ATOM     11  C   UNL     1      -8.991   4.580   0.877  0.00  0.00    +0.044 C 
ATOM     12  C   UNL     1      -7.502   4.368   0.789  0.00  0.00    -0.050 A 
ATOM     13  C   UNL     1      -6.648   5.456   0.816  0.00  0.00    +0.004 A 
ATOM     14  C   UNL     1      -5.283   5.268   0.736  0.00  0.00    +0.010 A 
ATOM     15  C   UNL     1      -4.766   3.979   0.627  0.00  0.00    +0.004 A 
ATOM     16  C   UNL     1      -5.630   2.887   0.595  0.00  0.00    +0.010 A 
ATOM     17  C   UNL     1      -6.993   3.086   0.681  0.00  0.00    +0.004 A 
ENDBRANCH   6  15
ENDBRANCH   2   8
ENDBRANCH   1   3
BRANCH   1  18
ATOM     18  N   UNL     1       3.454   2.367   0.093  0.00  0.00    +0.386 N 
ATOM     19  C   UNL     1       3.674   3.036   1.382  0.00  0.00    -0.095 C 
ATOM     20  H   UNL     1       3.354   3.144  -0.679  0.00  0.00    -0.081 HD
BRANCH  18  21
ATOM     21  C   UNL     1       4.602   1.522  -0.264  0.00  0.00    -0.039 C 
BRANCH  21  22
ATOM     22  C   UNL     1       5.808   2.392  -0.513  0.00  0.00    -0.020 A 
ATOM     23  C   UNL     1       6.187   2.940  -1.743  0.00  0.00    +0.062 A 
ATOM     24  N   UNL     1       7.281   3.635  -1.561  0.00  0.00    -0.171 NA
ATOM     25  N   UNL     1       7.639   3.544  -0.209  0.00  0.00    -0.237 N 
ATOM     26  C   UNL     1       6.717   2.774   0.413  0.00  0.00    +0.043 A 
ATOM     27  C   UNL     1       6.706   2.409   1.875  0.00  0.00    +0.066 C 
ATOM     28  C   UNL     1       5.460   2.764  -3.050  0.00  0.00    +0.068 C 
BRANCH  25  29
ATOM     29  C   UNL     1       8.754   4.145   0.392  0.00  0.00    +0.066 A 
ATOM     30  C   UNL     1       9.106   5.446   0.060  0.00  0.00    +0.028 A 
ATOM     31  C   UNL     1      10.201   6.038   0.658  0.00  0.00    +0.002 A 
ATOM     32  C   UNL     1      10.954   5.331   1.578  0.00  0.00    +0.000 A 
ATOM     33  C   UNL     1      10.609   4.033   1.906  0.00  0.00    +0.002 A 
ATOM     34  C   UNL     1       9.511   3.438   1.315  0.00  0.00    +0.028 A 
ENDBRANCH  25  29
ENDBRANCH  21  22
ENDBRANCH  18  21
ENDBRANCH   1  18
TORSDOF 7
