REMARK  Name = ZINC12628179
REMARK  10 active torsions:
REMARK  status: ('A' for Active; 'I' for Inactive)
REMARK    1  A    between atoms: C_1  and  C_2
REMARK    2  A    between atoms: C_2  and  O_3
REMARK    3  A    between atoms: O_3  and  C_4
REMARK    4  A    between atoms: C_7  and  N_10
REMARK    5  A    between atoms: C_11  and  C_13
REMARK    6  A    between atoms: C_13  and  C_14
REMARK    7  A    between atoms: N_18  and  C_31
REMARK    8  A    between atoms: N_21  and  C_22
REMARK    9  A    between atoms: C_22  and  C_23
REMARK   10  A    between atoms: C_23  and  C_24
REMARK                            x       y       z     vdW  Elec       q    Type
REMARK                         _______ _______ _______ _____ _____    ______ ____
ROOT
ATOM      1  C   UNL     1       4.193  -1.884  -7.055  0.00  0.00    +0.171 C 
ATOM      2  C   UNL     1       4.671  -2.220  -8.454  0.00  0.00    +0.246 C 
ATOM      3  O   UNL     1       4.035  -2.756  -9.336  0.00  0.00    -0.273 OA
ATOM      4  N   UNL     1       5.953  -1.795  -8.509  0.00  0.00    -0.220 N 
ATOM      5  C   UNL     1       6.343  -1.249  -7.352  0.00  0.00    +0.147 C 
ATOM      6  S   UNL     1       7.909  -0.612  -7.080  0.00  0.00    -0.018 S 
ATOM      7  N   UNL     1       5.367  -1.255  -6.426  0.00  0.00    -0.300 N 
ENDROOT
BRANCH   4   8
ATOM      8  C   UNL     1       6.774  -1.916  -9.640  0.00  0.00    +0.043 A 
ATOM      9  C   UNL     1       7.145  -3.173 -10.098  0.00  0.00    +0.027 A 
ATOM     10  C   UNL     1       7.949  -3.289 -11.215  0.00  0.00    +0.040 A 
ATOM     11  C   UNL     1       8.394  -2.154 -11.871  0.00  0.00    +0.124 A 
ATOM     12  C   UNL     1       8.029  -0.899 -11.412  0.00  0.00    +0.040 A 
ATOM     13  C   UNL     1       7.221  -0.779 -10.299  0.00  0.00    +0.027 A 
ATOM     14  F   UNL     1       9.185  -2.270 -12.960  0.00  0.00    -0.205 F 
ENDBRANCH   4   8
BRANCH   1  15
ATOM     15  C   UNL     1       3.020  -0.903  -7.108  0.00  0.00    +0.128 C 
BRANCH  15  17
ATOM     16  N   UNL     1       0.664  -0.920  -7.860  0.00  0.00    -0.285 N 
ATOM     17  C   UNL     1       1.793  -1.614  -7.618  0.00  0.00    +0.219 C 
ATOM     18  O   UNL     1       1.822  -2.812  -7.811  0.00  0.00    -0.275 OA
ATOM     19  H   UNL     1       0.661   0.046  -7.777  0.00  0.00    +0.155 HD
BRANCH  16  23
ATOM     20  C   UNL     1      -2.820  -2.925  -8.967  0.00  0.00    +0.121 A 
ATOM     21  C   UNL     1      -2.550  -1.667  -9.485  0.00  0.00    +0.047 A 
ATOM     22  C   UNL     1      -1.399  -1.000  -9.114  0.00  0.00    +0.027 A 
ATOM     23  C   UNL     1      -0.507  -1.594  -8.232  0.00  0.00    +0.034 A 
ATOM     24  C   UNL     1      -0.775  -2.856  -7.719  0.00  0.00    +0.027 A 
ATOM     25  C   UNL     1      -1.929  -3.519  -8.086  0.00  0.00    +0.047 A 
BRANCH  20  26
ATOM     26  O   UNL     1      -3.957  -3.579  -9.328  0.00  0.00    -0.492 OA
BRANCH  26  28
ATOM     27  C   UNL     1      -6.045  -3.793 -10.525  0.00  0.00    +0.048 C 
ATOM     28  C   UNL     1      -4.830  -2.909 -10.239  0.00  0.00    +0.225 C 
ENDBRANCH  26  28
ENDBRANCH  20  26
ENDBRANCH  16  23
ENDBRANCH  15  17
ENDBRANCH   1  15
BRANCH   7  29
ATOM     29  C   UNL     1       5.455  -0.738  -5.058  0.00  0.00    +0.112 C 
BRANCH  29  30
ATOM     30  C   UNL     1       6.032  -1.819  -4.140  0.00  0.00    +0.057 C 
BRANCH  30  31
ATOM     31  C   UNL     1       6.012  -1.330  -2.715  0.00  0.00    -0.011 A 
ATOM     32  C   UNL     1       7.119  -0.691  -2.188  0.00  0.00    +0.006 A 
ATOM     33  C   UNL     1       7.099  -0.237  -0.883  0.00  0.00    +0.000 A 
ATOM     34  C   UNL     1       5.978  -0.432  -0.099  0.00  0.00    +0.003 A 
ATOM     35  C   UNL     1       4.872  -1.076  -0.621  0.00  0.00    +0.038 A 
ATOM     36  C   UNL     1       4.888  -1.526  -1.931  0.00  0.00    +0.127 A 
ATOM     37  F   UNL     1       3.808  -2.156  -2.442  0.00  0.00    -0.205 F 
ENDBRANCH  30  31
ENDBRANCH  29  30
ENDBRANCH   7  29
TORSDOF 9
