REMARK  Name = ZINC27101177
REMARK  10 active torsions:
REMARK  status: ('A' for Active; 'I' for Inactive)
REMARK    1  A    between atoms: C_1  and  O_2
REMARK    2  A    between atoms: O_2  and  C_3
REMARK    3  A    between atoms: C_5  and  O_38
REMARK    4  A    between atoms: C_6  and  C_11
REMARK    5  A    between atoms: C_7  and  O_9
REMARK    6  A    between atoms: O_9  and  C_10
REMARK    7  A    between atoms: C_18  and  O_22
REMARK    8  A    between atoms: O_22  and  C_23
REMARK    9  A    between atoms: C_23  and  C_24
REMARK   10  A    between atoms: C_23  and  C_31
REMARK                            x       y       z     vdW  Elec       q    Type
REMARK                         _______ _______ _______ _____ _____    ______ ____
ROOT
ATOM      1  C   UNL     1      -0.191   4.005   0.289  0.00  0.00    +0.065 C 
ATOM      2  C   UNL     1      -0.285   5.083   1.114  0.00  0.00    +0.176 C 
ATOM      3  C   UNL     1      -1.301   6.077   1.070  0.00  0.00    +0.231 C 
ATOM      4  O   UNL     1      -2.245   6.138   0.301  0.00  0.00    -0.283 OA
ATOM      5  C   UNL     1      -0.966   7.019   2.153  0.00  0.00    +0.068 A 
ATOM      6  C   UNL     1      -1.559   8.190   2.624  0.00  0.00    +0.019 A 
ATOM      7  C   UNL     1      -0.999   8.861   3.675  0.00  0.00    +0.046 A 
ATOM      8  C   UNL     1       0.161   8.378   4.276  0.00  0.00    +0.125 A 
ATOM      9  C   UNL     1       0.760   7.216   3.818  0.00  0.00    +0.092 A 
ATOM     10  C   UNL     1       0.204   6.524   2.752  0.00  0.00    +0.143 A 
ATOM     11  O   UNL     1       0.569   5.387   2.120  0.00  0.00    -0.451 OA
ENDROOT
BRANCH   1  15
ATOM     12  C   UNL     1       3.007   1.254   0.748  0.00  0.00    +0.127 A 
ATOM     13  C   UNL     1       3.273   2.616   0.675  0.00  0.00    +0.091 A 
ATOM     14  C   UNL     1       2.238   3.520   0.526  0.00  0.00    +0.131 A 
ATOM     15  C   UNL     1       0.911   3.057   0.447  0.00  0.00    +0.062 A 
ATOM     16  C   UNL     1       0.652   1.676   0.522  0.00  0.00    +0.134 A 
ATOM     17  C   UNL     1       1.700   0.788   0.677  0.00  0.00    +0.092 A 
BRANCH  12  19
ATOM     18  C   UNL     1       5.349   0.920   0.966  0.00  0.00    +0.277 C 
ATOM     19  O   UNL     1       4.030   0.375   0.894  0.00  0.00    -0.495 OA
ENDBRANCH  12  19
BRANCH  16  20
ATOM     20  O   UNL     1      -0.623   1.217   0.447  0.00  0.00    -0.494 OA
ATOM     21  C   UNL     1      -0.809  -0.197   0.530  0.00  0.00    +0.277 C 
ENDBRANCH  16  20
BRANCH  14  22
ATOM     22  O   UNL     1       2.500   4.849   0.455  0.00  0.00    -0.506 OA
ATOM     23  H   UNL     1       1.675   5.567   0.336  0.00  0.00    +0.292 HD
ENDBRANCH  14  22
ENDBRANCH   1  15
BRANCH   8  24
ATOM     24  O   UNL     1       0.709   9.053   5.319  0.00  0.00    -0.479 OA
BRANCH  24  25
ATOM     25  C   UNL     1      -0.020  10.175   5.820  0.00  0.00    +0.234 C 
BRANCH  25  26
ATOM     26  C   UNL     1       0.361  10.420   7.258  0.00  0.00    -0.003 A 
ATOM     27  C   UNL     1       1.678  10.284   7.656  0.00  0.00    +0.010 A 
ATOM     28  C   UNL     1       2.029  10.514   8.972  0.00  0.00    +0.039 A 
ATOM     29  C   UNL     1       1.060  10.869   9.895  0.00  0.00    +0.123 A 
ATOM     30  C   UNL     1      -0.260  10.999   9.496  0.00  0.00    +0.039 A 
ATOM     31  C   UNL     1      -0.608  10.775   8.178  0.00  0.00    +0.010 A 
ATOM     32  F   UNL     1       1.401  11.088  11.184  0.00  0.00    -0.205 F 
ENDBRANCH  25  26
BRANCH  25  33
ATOM     33  C   UNL     1       0.309  11.395   4.998  0.00  0.00    -0.003 A 
ATOM     34  C   UNL     1       1.586  11.567   4.498  0.00  0.00    +0.010 A 
ATOM     35  C   UNL     1       1.888  12.682   3.740  0.00  0.00    +0.039 A 
ATOM     36  C   UNL     1       0.913  13.633   3.491  0.00  0.00    +0.123 A 
ATOM     37  C   UNL     1      -0.364  13.463   3.997  0.00  0.00    +0.039 A 
ATOM     38  C   UNL     1      -0.665  12.344   4.750  0.00  0.00    +0.010 A 
ATOM     39  F   UNL     1       1.208  14.727   2.755  0.00  0.00    -0.205 F 
ENDBRANCH  25  33
ENDBRANCH  24  25
ENDBRANCH   8  24
TORSDOF 8
