REMARK  Name = ZINC35980672
REMARK  12 active torsions:
REMARK  status: ('A' for Active; 'I' for Inactive)
REMARK    1  A    between atoms: C_1  and  C_2
REMARK    2  A    between atoms: C_2  and  C_3
REMARK    3  A    between atoms: C_3  and  O_4
REMARK    4  A    between atoms: O_4  and  C_5
REMARK    5  A    between atoms: C_8  and  C_14
REMARK    6  A    between atoms: C_10  and  O_11
REMARK    7  A    between atoms: O_11  and  C_12
REMARK    8  A    between atoms: C_12  and  C_13
REMARK    9  A    between atoms: C_16  and  C_28
REMARK   10  A    between atoms: C_18  and  C_23
REMARK   11  A    between atoms: C_18  and  O_27
REMARK   12  A    between atoms: C_28  and  C_30
REMARK                            x       y       z     vdW  Elec       q    Type
REMARK                         _______ _______ _______ _____ _____    ______ ____
ROOT
ATOM      1  C   UNL     1       3.149  -4.101  -5.545  0.00  0.00    +0.120 C 
ATOM      2  C   UNL     1       2.092  -4.551  -6.558  0.00  0.00    +0.144 C 
ATOM      3  C   UNL     1       1.625  -3.327  -7.353  0.00  0.00    +0.243 C 
ATOM      4  N   UNL     1       2.787  -2.679  -7.963  0.00  0.00    -0.264 N 
ATOM      5  C   UNL     1       4.000  -2.744  -7.394  0.00  0.00    +0.302 C 
ATOM      6  O   UNL     1       4.930  -2.178  -7.936  0.00  0.00    -0.253 OA
ATOM      7  N   UNL     1       4.230  -3.410  -6.251  0.00  0.00    -0.292 N 
ATOM      8  H   UNL     1       2.678  -2.191  -8.794  0.00  0.00    +0.153 HD
ATOM      9  H   UNL     1       5.128  -3.435  -5.886  0.00  0.00    +0.151 HD
ENDROOT
BRANCH   1  13
ATOM     10  C   UNL     1       1.370  -1.437  -2.712  0.00  0.00    +0.162 A 
ATOM     11  C   UNL     1       2.082  -0.933  -3.788  0.00  0.00    +0.050 A 
ATOM     12  C   UNL     1       2.656  -1.797  -4.702  0.00  0.00    +0.009 A 
ATOM     13  C   UNL     1       2.522  -3.163  -4.545  0.00  0.00    -0.023 A 
ATOM     14  C   UNL     1       1.812  -3.673  -3.474  0.00  0.00    +0.055 A 
ATOM     15  C   UNL     1       1.240  -2.813  -2.550  0.00  0.00    +0.162 A 
BRANCH  10  16
ATOM     16  O   UNL     1       0.805  -0.588  -1.811  0.00  0.00    -0.488 OA
BRANCH  16  17
ATOM     17  C   UNL     1       0.980   0.811  -2.040  0.00  0.00    +0.229 C 
BRANCH  17  19
ATOM     18  C   UNL     1       0.467   3.099  -1.178  0.00  0.00    +0.007 C 
ATOM     19  C   UNL     1       0.280   1.601  -0.933  0.00  0.00    +0.038 C 
ENDBRANCH  17  19
ENDBRANCH  16  17
ENDBRANCH  10  16
BRANCH  15  20
ATOM     20  O   UNL     1       0.546  -3.312  -1.492  0.00  0.00    -0.489 OA
BRANCH  20  21
ATOM     21  C   UNL     1       0.453  -4.734  -1.391  0.00  0.00    +0.226 C 
ATOM     22  C   UNL     1      -0.357  -5.105  -0.147  0.00  0.00    +0.048 C 
ENDBRANCH  20  21
ENDBRANCH  15  20
ENDBRANCH   1  13
BRANCH   3  23
ATOM     23  C   UNL     1       0.653  -3.770  -8.449  0.00  0.00    +0.436 C 
ATOM     24  F   UNL     1      -0.368  -4.540  -7.884  0.00  0.00    -0.166 F 
ATOM     25  F   UNL     1       0.100  -2.642  -9.065  0.00  0.00    -0.166 F 
ATOM     26  F   UNL     1       1.339  -4.532  -9.401  0.00  0.00    -0.166 F 
ENDBRANCH   3  23
BRANCH   3  27
ATOM     27  O   UNL     1       0.971  -2.409  -6.476  0.00  0.00    -0.364 OA
ATOM     28  H   UNL     1       0.649  -1.609  -6.913  0.00  0.00    +0.212 HD
ENDBRANCH   3  27
BRANCH   2  29
ATOM     29  C   UNL     1       2.690  -5.570  -7.494  0.00  0.00    +0.173 C 
ATOM     30  O   UNL     1       3.485  -5.222  -8.341  0.00  0.00    -0.292 OA
BRANCH  29  31
ATOM     31  C   UNL     1       2.309  -6.986  -7.381  0.00  0.00    +0.018 A 
ATOM     32  C   UNL     1       1.472  -7.408  -6.342  0.00  0.00    +0.013 A 
ATOM     33  C   UNL     1       1.119  -8.736  -6.242  0.00  0.00    +0.020 A 
ATOM     34  C   UNL     1       1.591  -9.653  -7.167  0.00  0.00    +0.041 A 
ATOM     35  C   UNL     1       2.421  -9.243  -8.199  0.00  0.00    +0.020 A 
ATOM     36  C   UNL     1       2.777  -7.917  -8.314  0.00  0.00    +0.013 A 
ATOM     37 CL   UNL     1       1.142 -11.325  -7.033  0.00  0.00    -0.084 Cl
ENDBRANCH  29  31
ENDBRANCH   2  29
TORSDOF 10
