REMARK  Name = ZINC39335656
REMARK  10 active torsions:
REMARK  status: ('A' for Active; 'I' for Inactive)
REMARK    1  A    between atoms: C_1  and  C_2
REMARK    2  A    between atoms: C_4  and  C_12
REMARK    3  A    between atoms: C_12  and  C_14
REMARK    4  A    between atoms: C_14  and  N_15
REMARK    5  A    between atoms: N_15  and  C_16
REMARK    6  A    between atoms: N_15  and  C_17
REMARK    7  A    between atoms: C_17  and  C_18
REMARK    8  A    between atoms: N_20  and  C_21
REMARK    9  A    between atoms: C_26  and  S_27
REMARK   10  A    between atoms: S_27  and  C_28
REMARK                            x       y       z     vdW  Elec       q    Type
REMARK                         _______ _______ _______ _____ _____    ______ ____
ROOT
ATOM      1  N   UNL     1      -4.652  -0.605  -1.856  0.00  0.00    +0.388 N 
ATOM      2  C   UNL     1      -4.876   0.847  -1.835  0.00  0.00    -0.095 C 
ATOM      3  H   UNL     1      -4.217  -0.865  -2.728  0.00  0.00    -0.081 HD
ENDROOT
BRANCH   1   4
ATOM      4  C   UNL     1      -3.774  -0.981  -0.740  0.00  0.00    +0.002 C 
BRANCH   4   5
ATOM      5  C   UNL     1      -2.413  -0.364  -0.941  0.00  0.00    +0.146 C 
ATOM      6  O   UNL     1      -2.196   0.322  -1.919  0.00  0.00    -0.294 OA
BRANCH   5   9
ATOM      7  C   UNL     1       0.008   1.481  -0.015  0.00  0.00    +0.035 C 
ATOM      8  C   UNL     1       0.023  -0.049  -0.031  0.00  0.00    +0.110 C 
ATOM      9  C   UNL     1      -1.392  -0.584   0.007  0.00  0.00    +0.024 C 
ATOM     10  C   UNL     1      -1.474  -1.334   1.166  0.00  0.00    +0.006 A 
ATOM     11  C   UNL     1      -2.521  -2.080   1.758  0.00  0.00    +0.010 A 
ATOM     12  C   UNL     1      -2.318  -2.731   2.925  0.00  0.00    +0.001 A 
ATOM     13  C   UNL     1      -1.087  -2.704   3.599  0.00  0.00    +0.002 A 
ATOM     14  C   UNL     1      -0.024  -2.023   3.120  0.00  0.00    +0.026 A 
ATOM     15  C   UNL     1      -0.159  -1.286   1.852  0.00  0.00    +0.043 A 
ATOM     16  N   UNL     1       0.685  -0.560   1.174  0.00  0.00    -0.377 N 
ATOM     17  H   UNL     1       1.605  -0.384   1.425  0.00  0.00    +0.160 HD
ENDBRANCH   5   9
ENDBRANCH   4   5
ENDBRANCH   1   4
BRANCH   1  18
ATOM     18  C   UNL     1      -5.938  -1.301  -1.723  0.00  0.00    +0.019 C 
BRANCH  18  19
ATOM     19  C   UNL     1      -6.793  -1.012  -2.930  0.00  0.00    +0.201 C 
ATOM     20  O   UNL     1      -6.372  -0.296  -3.814  0.00  0.00    -0.278 OA
ATOM     21  N   UNL     1      -8.025  -1.548  -3.027  0.00  0.00    -0.286 N 
ATOM     22  H   UNL     1      -8.337  -2.172  -2.353  0.00  0.00    +0.155 HD
BRANCH  21  23
ATOM     23  C   UNL     1      -8.856  -1.206  -4.102  0.00  0.00    +0.047 A 
ATOM     24  C   UNL     1      -8.310  -0.962  -5.353  0.00  0.00    +0.024 A 
ATOM     25  C   UNL     1      -9.131  -0.624  -6.413  0.00  0.00    +0.002 A 
ATOM     26  C   UNL     1     -10.498  -0.528  -6.230  0.00  0.00    +0.001 A 
ATOM     27  C   UNL     1     -11.052  -0.769  -4.987  0.00  0.00    +0.016 A 
ATOM     28  C   UNL     1     -10.236  -1.115  -3.919  0.00  0.00    +0.029 A 
BRANCH  28  29
ATOM     29  S   UNL     1     -10.940  -1.429  -2.334  0.00  0.00    -0.127 S 
ATOM     30  C   UNL     1     -12.720  -1.192  -2.590  0.00  0.00    +0.090 C 
ENDBRANCH  28  29
ENDBRANCH  21  23
ENDBRANCH  18  19
ENDBRANCH   1  18
TORSDOF 7
