REMARK  Name = ZINC23431587
REMARK  2 active torsions:
REMARK  status: ('A' for Active; 'I' for Inactive)
REMARK    1  A    between atoms: C_2  and  C_18
REMARK    2  A    between atoms: C_4  and  C_9
REMARK                            x       y       z     vdW  Elec       q    Type
REMARK                         _______ _______ _______ _____ _____    ______ ____
ROOT
ATOM      1  C   UNL     1      -0.013   1.076   0.008  0.00  0.00    +0.093 A 
ATOM      2  C   UNL     1       1.153   1.785   0.001  0.00  0.00    +0.050 A 
ATOM      3  N   UNL     1       1.127   3.115   0.008  0.00  0.00    -0.234 NA
ATOM      4  C   UNL     1      -0.013   3.779   0.022  0.00  0.00    +0.142 A 
ATOM      5  N   UNL     1      -1.210   3.124   0.030  0.00  0.00    -0.307 N 
ATOM      6  H   UNL     1      -2.150   3.696   0.048  0.00  0.00    +0.170 HD
ATOM      7  C   UNL     1      -1.234   1.774   0.018  0.00  0.00    +0.252 A 
ATOM      8  O   UNL     1      -2.295   1.171   0.019  0.00  0.00    -0.268 OA
ENDROOT
BRANCH   4   9
ATOM      9  C   UNL     1       0.006   5.251   0.029  0.00  0.00    +0.028 A 
ATOM     10  C   UNL     1      -1.164   5.978   0.044  0.00  0.00    +0.057 A 
ATOM     11  S   UNL     1      -0.611   7.620   0.047  0.00  0.00    -0.101 S 
ATOM     12  C   UNL     1       1.136   7.331   0.028  0.00  0.00    -0.006 A 
ATOM     13  C   UNL     1       1.259   5.983   0.025  0.00  0.00    -0.027 A 
ATOM     14  C   UNL     1       2.631   5.322   0.000  0.00  0.00    +0.036 C 
ATOM     15  C   UNL     1       3.666   6.349  -0.463  0.00  0.00    +0.005 C 
ATOM     16  C   UNL     1       3.552   7.621   0.382  0.00  0.00    +0.005 C 
ATOM     17  C   UNL     1       2.243   8.339   0.022  0.00  0.00    +0.043 C 
ENDBRANCH   4   9
BRANCH   2  18
ATOM     18  C   UNL     1       2.474   1.060  -0.016  0.00  0.00    +0.021 C 
ATOM     19  C   UNL     1       3.259   1.454  -1.270  0.00  0.00    +0.006 C 
ATOM     20  C   UNL     1       4.623   0.760  -1.249  0.00  0.00    -0.018 C 
ATOM     21  C   UNL     1       5.369   1.150   0.030  0.00  0.00    -0.083 C 
ATOM     22  N   UNL     1       4.578   0.750   1.200  0.00  0.00    +0.379 N 
ATOM     23  C   UNL     1       3.282   1.441   1.227  0.00  0.00    -0.073 C 
ATOM     24  H   UNL     1       4.397  -0.334   1.168  0.00  0.00    -0.086 HD
ATOM     25  H   UNL     1       5.129   1.002   2.119  0.00  0.00    -0.086 HD
ENDBRANCH   2  18
TORSDOF 2
