REMARK  Name = ZINC64773618
REMARK  10 active torsions:
REMARK  status: ('A' for Active; 'I' for Inactive)
REMARK    1  A    between atoms: C_1  and  C_2
REMARK    2  A    between atoms: C_6  and  C_8
REMARK    3  A    between atoms: C_8  and  S_9
REMARK    4  A    between atoms: S_9  and  C_10
REMARK    5  A    between atoms: C_16  and  C_24
REMARK    6  A    between atoms: C_27  and  O_32
REMARK    7  A    between atoms: C_28  and  O_30
REMARK    8  A    between atoms: O_30  and  C_31
REMARK    9  A    between atoms: O_32  and  C_33
REMARK   10  A    between atoms: C_33  and  C_34
REMARK                            x       y       z     vdW  Elec       q    Type
REMARK                         _______ _______ _______ _____ _____    ______ ____
ROOT
ATOM      1  C   UNL     1       2.232  -4.037   4.623  0.00  0.00    +0.182 C 
ATOM      2  N   UNL     1       0.953  -4.140   4.941  0.00  0.00    -0.154 NA
ATOM      3  C   UNL     1       0.548  -4.729   6.068  0.00  0.00    +0.249 C 
ATOM      4  O   UNL     1      -0.632  -4.843   6.339  0.00  0.00    -0.273 OA
ATOM      5  C   UNL     1       1.630  -5.249   6.992  0.00  0.00    +0.148 C 
ATOM      6  C   UNL     1       1.361  -6.732   7.257  0.00  0.00    +0.047 C 
ATOM      7  C   UNL     1       2.345  -7.224   8.322  0.00  0.00    +0.105 C 
ATOM      8  C   UNL     1       3.750  -6.816   7.986  0.00  0.00    +0.219 C 
ATOM      9  O   UNL     1       4.667  -7.406   8.517  0.00  0.00    -0.275 OA
ATOM     10  N   UNL     1       4.037  -5.828   7.122  0.00  0.00    -0.273 N 
ATOM     11  C   UNL     1       3.049  -5.164   6.462  0.00  0.00    +0.117 C 
ATOM     12  N   UNL     1       3.246  -4.553   5.328  0.00  0.00    -0.212 NA
ATOM     13  H   UNL     1       4.961  -5.572   6.976  0.00  0.00    +0.156 HD
ENDROOT
BRANCH   6  14
ATOM     14  C   UNL     1       1.554  -7.516   5.984  0.00  0.00    -0.039 A 
ATOM     15  C   UNL     1       2.830  -7.782   5.525  0.00  0.00    +0.008 A 
ATOM     16  C   UNL     1       3.012  -8.502   4.358  0.00  0.00    +0.050 A 
ATOM     17  C   UNL     1       1.913  -8.958   3.647  0.00  0.00    +0.163 A 
ATOM     18  C   UNL     1       0.629  -8.690   4.110  0.00  0.00    +0.162 A 
ATOM     19  C   UNL     1       0.454  -7.973   5.283  0.00  0.00    +0.053 A 
BRANCH  18  20
ATOM     20  O   UNL     1      -0.452  -9.135   3.416  0.00  0.00    -0.491 OA
ATOM     21  C   UNL     1      -1.740  -8.823   3.951  0.00  0.00    +0.277 C 
ENDBRANCH  18  20
BRANCH  17  22
ATOM     22  O   UNL     1       2.091  -9.665   2.499  0.00  0.00    -0.479 OA
BRANCH  22  23
ATOM     23  C   UNL     1       3.437  -9.901   2.084  0.00  0.00    +0.324 C 
BRANCH  23  24
ATOM     24  C   UNL     1       3.436 -10.694   0.802  0.00  0.00    +0.248 C 
ATOM     25  O   UNL     1       2.385 -11.024   0.294  0.00  0.00    -0.272 OA
ATOM     26  N   UNL     1       4.603 -11.036   0.220  0.00  0.00    -0.327 N 
ATOM     27  H   UNL     1       5.443 -10.772   0.626  0.00  0.00    +0.145 HD
ATOM     28  H   UNL     1       4.602 -11.546  -0.605  0.00  0.00    +0.145 HD
ENDBRANCH  23  24
ENDBRANCH  22  23
ENDBRANCH  17  22
ENDBRANCH   6  14
BRANCH   1  29
ATOM     29  S   UNL     1       2.634  -3.157   3.150  0.00  0.00    -0.084 S 
BRANCH  29  30
ATOM     30  C   UNL     1       1.024  -2.629   2.502  0.00  0.00    +0.112 C 
BRANCH  30  36
ATOM     31  C   UNL     1       1.769   1.723   0.145  0.00  0.00    +0.044 C 
ATOM     32  C   UNL     1       1.582   0.228   0.098  0.00  0.00    -0.050 A 
ATOM     33  C   UNL     1       1.595  -0.432  -1.117  0.00  0.00    +0.003 A 
ATOM     34  C   UNL     1       1.424  -1.803  -1.160  0.00  0.00    +0.001 A 
ATOM     35  C   UNL     1       1.239  -2.514   0.011  0.00  0.00    +0.004 A 
ATOM     36  C   UNL     1       1.226  -1.854   1.225  0.00  0.00    -0.037 A 
ATOM     37  C   UNL     1       1.402  -0.483   1.269  0.00  0.00    +0.007 A 
ENDBRANCH  30  36
ENDBRANCH  29  30
ENDBRANCH   1  29
TORSDOF 8
