REMARK  Name = ZINC58459668
REMARK  11 active torsions:
REMARK  status: ('A' for Active; 'I' for Inactive)
REMARK    1  A    between atoms: C_1  and  C_2
REMARK    2  A    between atoms: C_3  and  C_9
REMARK    3  A    between atoms: C_4  and  C_8
REMARK    4  A    between atoms: N_5  and  C_7
REMARK    5  A    between atoms: C_10  and  C_11
REMARK    6  A    between atoms: N_13  and  C_14
REMARK    7  A    between atoms: N_13  and  C_15
REMARK    8  A    between atoms: C_15  and  C_16
REMARK    9  A    between atoms: C_16  and  C_17
REMARK   10  A    between atoms: C_17  and  C_18
REMARK   11  A    between atoms: C_20  and  C_24
REMARK                            x       y       z     vdW  Elec       q    Type
REMARK                         _______ _______ _______ _____ _____    ______ ____
ROOT
ATOM      1  C   UNL     1      -1.850   2.327  -6.103  0.00  0.00    +0.108 C 
ENDROOT
BRANCH   1   4
ATOM      2  C   UNL     1      -0.928   0.969  -4.302  0.00  0.00    +0.239 C 
ATOM      3  O   UNL     1      -0.118   0.522  -5.094  0.00  0.00    -0.271 OA
ATOM      4  N   UNL     1      -1.837   1.877  -4.709  0.00  0.00    -0.301 N 
ATOM      5  C   UNL     1      -2.812   2.415  -3.756  0.00  0.00    +0.132 C 
BRANCH   2   7
ATOM      6  C   UNL     1      -0.005  -0.377  -2.546  0.00  0.00    +0.016 C 
ATOM      7  C   UNL     1      -0.916   0.533  -2.953  0.00  0.00    +0.068 C 
BRANCH   6  10
ATOM      8  C   UNL     1      -0.018   1.503   0.010  0.00  0.00    +0.068 C 
ATOM      9  C   UNL     1       0.002  -0.004   0.002  0.00  0.00    +0.067 A 
ATOM     10  C   UNL     1       0.008  -0.829  -1.147  0.00  0.00    +0.018 A 
ATOM     11  C   UNL     1       0.028  -2.140  -0.707  0.00  0.00    +0.043 A 
ATOM     12  N   UNL     1       0.034  -2.112   0.636  0.00  0.00    -0.271 N 
ATOM     13  N   UNL     1       0.023  -0.776   1.053  0.00  0.00    -0.176 NA
ATOM     14  C   UNL     1       0.053  -3.283   1.517  0.00  0.00    +0.172 C 
ATOM     15  C   UNL     1       0.040  -3.372  -1.574  0.00  0.00    +0.066 C 
ENDBRANCH   6  10
ENDBRANCH   2   7
ENDBRANCH   1   4
BRANCH   1  16
ATOM     16  C   UNL     1      -2.769   1.420  -6.923  0.00  0.00    +0.025 C 
BRANCH  16  17
ATOM     17  C   UNL     1      -2.783   1.890  -8.379  0.00  0.00    +0.056 C 
BRANCH  17  18
ATOM     18  C   UNL     1      -3.688   0.996  -9.187  0.00  0.00    +0.037 A 
ATOM     19  C   UNL     1      -3.344  -0.183  -9.749  0.00  0.00    +0.052 A 
ATOM     20  C   UNL     1      -4.478  -0.693 -10.411  0.00  0.00    +0.093 A 
ATOM     21  N   UNL     1      -5.464   0.163 -10.243  0.00  0.00    -0.174 NA
ATOM     22  N   UNL     1      -4.987   1.230  -9.471  0.00  0.00    -0.281 N 
ATOM     23  H   UNL     1      -5.501   2.004  -9.191  0.00  0.00    +0.189 HD
BRANCH  20  24
ATOM     24  C   UNL     1      -4.549  -1.970 -11.165  0.00  0.00    +0.002 A 
ATOM     25  C   UNL     1      -3.425  -2.788 -11.260  0.00  0.00    +0.010 A 
ATOM     26  C   UNL     1      -3.497  -3.974 -11.962  0.00  0.00    +0.001 A 
ATOM     27  C   UNL     1      -4.681  -4.351 -12.570  0.00  0.00    +0.000 A 
ATOM     28  C   UNL     1      -5.799  -3.542 -12.479  0.00  0.00    +0.001 A 
ATOM     29  C   UNL     1      -5.740  -2.356 -11.775  0.00  0.00    +0.010 A 
ENDBRANCH  20  24
ENDBRANCH  17  18
ENDBRANCH  16  17
ENDBRANCH   1  16
TORSDOF 7
