REMARK  Name = ZINC65062021
REMARK  9 active torsions:
REMARK  status: ('A' for Active; 'I' for Inactive)
REMARK    1  A    between atoms: C_1  and  O_2
REMARK    2  A    between atoms: O_2  and  C_3
REMARK    3  A    between atoms: C_9  and  C_12
REMARK    4  A    between atoms: C_12  and  C_13
REMARK    5  A    between atoms: C_13  and  N_14
REMARK    6  A    between atoms: C_15  and  C_17
REMARK    7  A    between atoms: C_17  and  C_18
REMARK    8  A    between atoms: N_21  and  S_24
REMARK    9  A    between atoms: S_24  and  C_27
REMARK                            x       y       z     vdW  Elec       q    Type
REMARK                         _______ _______ _______ _____ _____    ______ ____
ROOT
ATOM      1  N   UNL     1      -0.759  -6.798   1.434  0.00  0.00    -0.315 N 
ATOM      2  C   UNL     1      -0.408  -7.389   2.593  0.00  0.00    +0.213 C 
ATOM      3  O   UNL     1      -0.851  -6.975   3.644  0.00  0.00    -0.276 OA
ATOM      4  H   UNL     1      -0.405  -7.128   0.594  0.00  0.00    +0.149 HD
ENDROOT
BRANCH   1   5
ATOM      5  C   UNL     1      -1.676  -5.655   1.443  0.00  0.00    +0.108 C 
BRANCH   5   6
ATOM      6  C   UNL     1      -1.908  -5.176   0.009  0.00  0.00    +0.052 C 
BRANCH   6  13
ATOM      7  C   UNL     1      -1.200  -0.637   0.010  0.00  0.00    +0.121 A 
ATOM      8  C   UNL     1      -2.375   0.135   0.020  0.00  0.00    +0.047 A 
ATOM      9  C   UNL     1      -3.607  -0.415   0.028  0.00  0.00    +0.029 A 
ATOM     10  C   UNL     1      -3.753  -1.875   0.027  0.00  0.00    +0.043 A 
ATOM     11  N   UNL     1      -4.809  -2.650   0.034  0.00  0.00    -0.380 N 
ATOM     12  C   UNL     1      -4.362  -4.047   0.029  0.00  0.00    +0.144 C 
ATOM     13  C   UNL     1      -2.851  -4.000   0.018  0.00  0.00    -0.040 C 
ATOM     14  C   UNL     1      -2.516  -2.690   0.016  0.00  0.00    +0.002 A 
ATOM     15  C   UNL     1      -1.226  -1.992   0.003  0.00  0.00    +0.055 A 
ATOM     16  H   UNL     1      -5.731  -2.350   0.042  0.00  0.00    +0.160 HD
BRANCH   7  18
ATOM     17  C   UNL     1      -0.017   1.425   0.010  0.00  0.00    +0.277 C 
ATOM     18  O   UNL     1       0.002  -0.004   0.002  0.00  0.00    -0.495 OA
ENDBRANCH   7  18
ENDBRANCH   6  13
ENDBRANCH   5   6
ENDBRANCH   1   5
BRANCH   2  19
ATOM     19  C   UNL     1       0.535  -8.564   2.584  0.00  0.00    +0.099 C 
BRANCH  19  20
ATOM     20  C   UNL     1       0.767  -9.043   4.019  0.00  0.00    +0.000 C 
ATOM     21  C   UNL     1       1.487  -7.950   4.811  0.00  0.00    +0.021 C 
ATOM     22  C   UNL     1       1.687  -8.419   6.256  0.00  0.00    +0.110 C 
ATOM     23  N   UNL     1       2.384  -9.713   6.241  0.00  0.00    -0.176 NA
ATOM     24  C   UNL     1       1.824 -10.807   5.436  0.00  0.00    +0.110 C 
ATOM     25  C   UNL     1       1.623 -10.311   4.001  0.00  0.00    +0.021 C 
BRANCH  23  26
ATOM     26  S   UNL     1       3.774  -9.932   7.114  0.00  0.00    +0.067 S 
ATOM     27  O   UNL     1       4.480 -10.997   6.492  0.00  0.00    -0.152 OA
ATOM     28  O   UNL     1       4.345  -8.645   7.298  0.00  0.00    -0.152 OA
BRANCH  26  29
ATOM     29  C   UNL     1       3.300 -10.507   8.711  0.00  0.00    +0.144 A 
ATOM     30  C   UNL     1       3.134 -11.780   9.144  0.00  0.00    +0.038 A 
ATOM     31  C   UNL     1       2.754 -11.998  10.456  0.00  0.00    +0.030 A 
ATOM     32  C   UNL     1       2.559 -10.930  11.269  0.00  0.00    +0.080 A 
ATOM     33  S   UNL     1       2.924  -9.564  10.179  0.00  0.00    -0.057 S 
ATOM     34 CL   UNL     1       2.085 -10.899  12.939  0.00  0.00    -0.076 Cl
ENDBRANCH  26  29
ENDBRANCH  23  26
ENDBRANCH  19  20
ENDBRANCH   2  19
TORSDOF 8
