REMARK  Name = ZINC19594750
REMARK  7 active torsions:
REMARK  status: ('A' for Active; 'I' for Inactive)
REMARK    1  A    between atoms: C_9  and  O_35
REMARK    2  A    between atoms: C_10  and  N_11
REMARK    3  A    between atoms: N_12  and  C_13
REMARK    4  A    between atoms: C_16  and  N_23
REMARK    5  A    between atoms: C_18  and  S_19
REMARK    6  A    between atoms: N_24  and  C_25
REMARK    7  A    between atoms: C_28  and  S_31
REMARK                            x       y       z     vdW  Elec       q    Type
REMARK                         _______ _______ _______ _____ _____    ______ ____
ROOT
ATOM      1  C   UNL     1       7.813   0.332  -2.579  0.00  0.00    +0.114 A 
ATOM      2  C   UNL     1       8.034   1.709  -2.696  0.00  0.00    +0.034 A 
ATOM      3  C   UNL     1       9.006   2.311  -1.951  0.00  0.00    +0.032 A 
ATOM      4  C   UNL     1       9.784   1.550  -1.070  0.00  0.00    +0.088 A 
ATOM      5  C   UNL     1       9.564   0.172  -0.953  0.00  0.00    +0.061 A 
ATOM      6  C   UNL     1       8.587  -0.428  -1.694  0.00  0.00    +0.149 A 
ENDROOT
BRANCH   6   7
ATOM      7  S   UNL     1       8.305  -2.161  -1.541  0.00  0.00    +0.142 S 
ATOM      8  O   UNL     1       9.161  -2.816  -2.517  0.00  0.00    -0.140 OA
ATOM      9  O   UNL     1       8.655  -2.527  -0.178  0.00  0.00    -0.140 OA
ATOM     10  O   UNL     1       6.894  -2.385  -1.818  0.00  0.00    -0.043 OA
ENDBRANCH   6   7
BRANCH   1  12
ATOM     11  N   UNL     1       6.129   0.431  -4.140  0.00  0.00    -0.145 NA
ATOM     12  N   UNL     1       6.841  -0.270  -3.324  0.00  0.00    -0.147 NA
BRANCH  11  22
ATOM     13  C   UNL     1       2.762   2.029  -7.590  0.00  0.00    +0.001 A 
ATOM     14  C   UNL     1       3.744   2.678  -6.846  0.00  0.00    +0.001 A 
ATOM     15  C   UNL     1       4.528   1.989  -5.968  0.00  0.00    +0.011 A 
ATOM     16  C   UNL     1       4.343   0.611  -5.812  0.00  0.00    +0.013 A 
ATOM     17  C   UNL     1       3.346  -0.053  -6.566  0.00  0.00    -0.016 A 
ATOM     18  C   UNL     1       2.556   0.689  -7.461  0.00  0.00    +0.008 A 
ATOM     19  C   UNL     1       3.161  -1.438  -6.406  0.00  0.00    +0.012 A 
ATOM     20  C   UNL     1       3.929  -2.147  -5.537  0.00  0.00    +0.048 A 
ATOM     21  C   UNL     1       4.923  -1.541  -4.771  0.00  0.00    +0.144 A 
ATOM     22  C   UNL     1       5.161  -0.168  -4.881  0.00  0.00    +0.135 A 
BRANCH  21  23
ATOM     23  O   UNL     1       5.665  -2.288  -3.916  0.00  0.00    -0.505 OA
ATOM     24  H   UNL     1       6.467  -2.657  -4.310  0.00  0.00    +0.292 HD
ENDBRANCH  21  23
ENDBRANCH  11  22
ENDBRANCH   1  12
BRANCH   4  25
ATOM     25  N   UNL     1      10.756   2.151  -0.325  0.00  0.00    -0.149 NA
ATOM     26  N   UNL     1      10.756   3.432  -0.177  0.00  0.00    -0.149 NA
BRANCH  26  27
ATOM     27  C   UNL     1       9.574   4.117  -0.157  0.00  0.00    +0.086 A 
ATOM     28  C   UNL     1       9.560   5.500  -0.360  0.00  0.00    +0.031 A 
ATOM     29  C   UNL     1       8.364   6.185  -0.338  0.00  0.00    +0.032 A 
ATOM     30  C   UNL     1       7.178   5.506  -0.115  0.00  0.00    +0.120 A 
ATOM     31  C   UNL     1       7.184   4.137   0.087  0.00  0.00    +0.032 A 
ATOM     32  C   UNL     1       8.372   3.438   0.061  0.00  0.00    +0.031 A 
BRANCH  30  33
ATOM     33  S   UNL     1       5.654   6.390  -0.089  0.00  0.00    +0.140 S 
ATOM     34  O   UNL     1       4.767   5.675   0.816  0.00  0.00    -0.140 OA
ATOM     35  O   UNL     1       5.951   7.731   0.389  0.00  0.00    -0.140 OA
ATOM     36  O   UNL     1       5.147   6.399  -1.452  0.00  0.00    -0.043 OA
ENDBRANCH  30  33
ENDBRANCH  26  27
ENDBRANCH   4  25
TORSDOF 7
