REMARK  Name = ZINC16599992
REMARK  11 active torsions:
REMARK  status: ('A' for Active; 'I' for Inactive)
REMARK    1  A    between atoms: C_1  and  N_61
REMARK    2  A    between atoms: C_2  and  N_61
REMARK    3  A    between atoms: C_3  and  C_5
REMARK    4  A    between atoms: C_3  and  C_29
REMARK    5  A    between atoms: C_3  and  N_61
REMARK    6  A    between atoms: C_5  and  N_6
REMARK    7  A    between atoms: C_7  and  C_9
REMARK    8  A    between atoms: C_13  and  S_15
REMARK    9  A    between atoms: S_15  and  N_18
REMARK   10  A    between atoms: N_18  and  C_19
REMARK   11  A    between atoms: C_19  and  C_20
REMARK                            x       y       z     vdW  Elec       q    Type
REMARK                         _______ _______ _______ _____ _____    ______ ____
ROOT
ATOM      1  C   UNL     1       0.438   3.296  -0.035  0.00  0.00    +0.039 A 
ATOM      2  C   UNL     1       1.603   2.859   0.598  0.00  0.00    +0.013 A 
ATOM      3  C   UNL     1       1.737   1.532   0.950  0.00  0.00    +0.003 A 
ATOM      4  C   UNL     1       0.720   0.635   0.676  0.00  0.00    +0.028 A 
ATOM      5  C   UNL     1      -0.435   1.060   0.044  0.00  0.00    +0.106 A 
ATOM      6  C   UNL     1      -0.584   2.386  -0.308  0.00  0.00    +0.041 A 
ENDROOT
BRANCH   1   8
ATOM      7  N   UNL     1       1.277   5.593  -0.151  0.00  0.00    -0.313 N 
ATOM      8  C   UNL     1       0.288   4.717  -0.415  0.00  0.00    +0.244 C 
ATOM      9  O   UNL     1      -0.728   5.095  -0.967  0.00  0.00    -0.270 OA
ATOM     10  H   UNL     1       2.087   5.292   0.289  0.00  0.00    +0.149 HD
BRANCH   7  11
ATOM     11  C   UNL     1       1.128   7.001  -0.527  0.00  0.00    +0.094 C 
BRANCH  11  12
ATOM     12  C   UNL     1       2.383   7.774  -0.117  0.00  0.00    -0.021 C 
BRANCH  12  13
ATOM     13  C   UNL     1       2.182   9.242  -0.393  0.00  0.00    -0.059 A 
ATOM     14  C   UNL     1       3.144   9.954  -1.083  0.00  0.00    +0.002 A 
ATOM     15  C   UNL     1       2.957  11.300  -1.340  0.00  0.00    +0.000 A 
ATOM     16  C   UNL     1       1.812  11.935  -0.897  0.00  0.00    +0.000 A 
ATOM     17  C   UNL     1       0.852  11.224  -0.202  0.00  0.00    +0.000 A 
ATOM     18  C   UNL     1       1.037   9.878   0.051  0.00  0.00    +0.002 A 
ENDBRANCH  12  13
BRANCH  12  21
ATOM     19  C   UNL     1       3.921   8.164   1.712  0.00  0.00    -0.096 C 
ATOM     20  C   UNL     1       1.535   8.119   2.124  0.00  0.00    -0.096 C 
ATOM     21  N   UNL     1       2.636   7.547   1.321  0.00  0.00    +0.382 N 
ATOM     22  H   UNL     1       2.685   6.536   1.495  0.00  0.00    -0.082 HD
ENDBRANCH  12  21
ENDBRANCH  11  12
ENDBRANCH   7  11
ENDBRANCH   1   8
BRANCH   5  23
ATOM     23  S   UNL     1      -1.721  -0.092  -0.307  0.00  0.00    +0.059 S 
ATOM     24  O   UNL     1      -2.465   0.446  -1.391  0.00  0.00    -0.153 OA
ATOM     25  O   UNL     1      -1.113  -1.375  -0.363  0.00  0.00    -0.153 OA
BRANCH  23  26
ATOM     26  N   UNL     1      -2.736  -0.107   1.002  0.00  0.00    -0.186 NA
ATOM     27  H   UNL     1      -2.823  -0.910   1.539  0.00  0.00    +0.148 HD
BRANCH  26  28
ATOM     28  C   UNL     1      -3.501   1.093   1.349  0.00  0.00    +0.141 C 
BRANCH  28  29
ATOM     29  C   UNL     1      -4.596   0.729   2.318  0.00  0.00    -0.028 A 
ATOM     30  C   UNL     1      -5.841   0.359   1.845  0.00  0.00    +0.009 A 
ATOM     31  C   UNL     1      -6.847   0.018   2.729  0.00  0.00    +0.050 A 
ATOM     32  C   UNL     1      -6.613   0.057   4.094  0.00  0.00    +0.166 A 
ATOM     33  C   UNL     1      -5.360   0.434   4.572  0.00  0.00    +0.167 A 
ATOM     34  C   UNL     1      -4.355   0.769   3.679  0.00  0.00    +0.054 A 
ATOM     35  O   UNL     1      -5.383   0.394   5.936  0.00  0.00    -0.453 OA
ATOM     36  C   UNL     1      -6.776   0.384   6.297  0.00  0.00    +0.466 C 
ATOM     37  O   UNL     1      -7.420  -0.220   5.159  0.00  0.00    -0.453 OA
ENDBRANCH  28  29
ENDBRANCH  26  28
ENDBRANCH  23  26
ENDBRANCH   5  23
TORSDOF 9
