REMARK  Name = ZINC36354793
REMARK  7 active torsions:
REMARK  status: ('A' for Active; 'I' for Inactive)
REMARK    1  A    between atoms: C_1  and  C_2
REMARK    2  A    between atoms: C_2  and  C_3
REMARK    3  A    between atoms: C_2  and  C_4
REMARK    4  A    between atoms: C_12  and  O_29
REMARK    5  A    between atoms: C_17  and  C_26
REMARK    6  A    between atoms: C_18  and  C_19
REMARK    7  A    between atoms: N_32  and  C_33
REMARK                            x       y       z     vdW  Elec       q    Type
REMARK                         _______ _______ _______ _____ _____    ______ ____
ROOT
ATOM      1  C   UNL     1       0.707  -0.490  -1.238  0.00  0.00    -0.044 A 
ATOM      2  C   UNL     1       0.210  -0.143  -2.478  0.00  0.00    +0.006 A 
ATOM      3  C   UNL     1       0.816  -0.559  -3.653  0.00  0.00    +0.024 A 
ATOM      4  C   UNL     1       1.960  -1.350  -3.538  0.00  0.00    +0.041 A 
ATOM      5  C   UNL     1       2.454  -1.696  -2.273  0.00  0.00    -0.005 A 
ATOM      6  C   UNL     1       1.849  -1.274  -1.109  0.00  0.00    +0.010 A 
ATOM      7  C   UNL     1       3.667  -2.535  -2.515  0.00  0.00    +0.115 C 
ATOM      8  C   UNL     1       3.491  -3.939  -1.933  0.00  0.00    +0.121 C 
ATOM      9  C   UNL     1       3.826  -3.961  -0.471  0.00  0.00    +0.189 C 
ATOM     10  N   UNL     1       4.704  -3.198   0.091  0.00  0.00    -0.216 NA
ATOM     11  C   UNL     1       5.391  -2.253  -0.665  0.00  0.00    +0.087 A 
ATOM     12  C   UNL     1       4.894  -1.923  -1.920  0.00  0.00    +0.036 A 
ATOM     13  S   UNL     1       5.926  -0.774  -2.534  0.00  0.00    -0.082 S 
ATOM     14  C   UNL     1       7.083  -0.672  -1.181  0.00  0.00    +0.110 A 
ATOM     15  C   UNL     1       6.558  -1.594  -0.269  0.00  0.00    +0.029 A 
ATOM     16  C   UNL     1       3.781  -2.608  -4.022  0.00  0.00    +0.236 C 
ATOM     17  O   UNL     1       4.635  -3.196  -4.653  0.00  0.00    -0.274 OA
ATOM     18  N   UNL     1       2.754  -1.896  -4.530  0.00  0.00    -0.273 N 
ATOM     19  C   UNL     1       2.509  -1.721  -5.964  0.00  0.00    +0.138 C 
ENDROOT
BRANCH  15  20
ATOM     20  C   UNL     1       7.201  -1.857   1.037  0.00  0.00    -0.014 A 
ATOM     21  C   UNL     1       6.538  -1.535   2.222  0.00  0.00    +0.010 A 
ATOM     22  C   UNL     1       7.143  -1.783   3.437  0.00  0.00    +0.020 A 
ATOM     23  C   UNL     1       8.406  -2.349   3.482  0.00  0.00    +0.041 A 
ATOM     24  C   UNL     1       9.069  -2.670   2.309  0.00  0.00    +0.020 A 
ATOM     25  C   UNL     1       8.471  -2.434   1.089  0.00  0.00    +0.010 A 
ATOM     26 CL   UNL     1       9.161  -2.657   5.014  0.00  0.00    -0.084 Cl
ENDBRANCH  15  20
BRANCH   1  28
ATOM     27  C   UNL     1      -0.019   1.526   0.010  0.00  0.00    +0.012 C 
ATOM     28  C   UNL     1       0.002  -0.004   0.002  0.00  0.00    +0.013 C 
ATOM     29  C   UNL     1      -1.433  -0.534   0.013  0.00  0.00    +0.012 C 
ENDBRANCH   1  28
BRANCH  14  30
ATOM     30  C   UNL     1       8.237   0.134  -1.061  0.00  0.00    +0.394 C 
ATOM     31  O   UNL     1       8.551   0.895  -1.969  0.00  0.00    -0.240 OA
ATOM     32  O   UNL     1       8.925   0.073  -0.048  0.00  0.00    -0.240 OA
ENDBRANCH  14  30
BRANCH   9  33
ATOM     33  O   UNL     1       3.164  -4.839   0.313  0.00  0.00    -0.495 OA
ATOM     34  H   UNL     1       3.422  -4.807   1.244  0.00  0.00    +0.293 HD
ENDBRANCH   9  33
TORSDOF 4
