REMARK  Name = ZINC20755112
REMARK  5 active torsions:
REMARK  status: ('A' for Active; 'I' for Inactive)
REMARK    1  A    between atoms: C_1  and  C_2
REMARK    2  A    between atoms: C_5  and  C_8
REMARK    3  A    between atoms: C_10  and  C_22
REMARK    4  A    between atoms: C_27  and  O_28
REMARK    5  A    between atoms: O_28  and  C_29
REMARK                            x       y       z     vdW  Elec       q    Type
REMARK                         _______ _______ _______ _____ _____    ______ ____
ROOT
ATOM      1  C   UNL     1       0.060  -4.245  -0.021  0.00  0.00    +0.054 C 
ATOM      2  C   UNL     1       0.070  -4.973   1.293  0.00  0.00    +0.086 C 
ATOM      3  C   UNL     1      -0.712  -6.287   1.203  0.00  0.00    +0.130 C 
ATOM      4  N   UNL     1      -0.360  -6.943  -0.060  0.00  0.00    -0.302 N 
ATOM      5  C   UNL     1      -0.313  -8.262  -0.389  0.00  0.00    +0.069 A 
ATOM      6  C   UNL     1      -0.562  -9.428   0.327  0.00  0.00    +0.028 A 
ATOM      7  C   UNL     1      -0.412 -10.627  -0.351  0.00  0.00    +0.002 A 
ATOM      8  C   UNL     1      -0.031 -10.676  -1.681  0.00  0.00    +0.002 A 
ATOM      9  C   UNL     1       0.222  -9.542  -2.412  0.00  0.00    +0.028 A 
ATOM     10  C   UNL     1       0.078  -8.314  -1.753  0.00  0.00    +0.066 A 
ATOM     11  N   UNL     1       0.248  -7.048  -2.174  0.00  0.00    -0.324 N 
ATOM     12  C   UNL     1      -0.001  -6.224  -1.186  0.00  0.00    +0.210 A 
ATOM     13  N   UNL     1       0.062  -4.865  -1.170  0.00  0.00    -0.218 NA
ATOM     14  H   UNL     1       0.514  -6.786  -3.069  0.00  0.00    +0.169 HD
ENDROOT
BRANCH   1  19
ATOM     15  C   UNL     1      -0.018   1.503   0.010  0.00  0.00    +0.044 C 
ATOM     16  C   UNL     1       0.002  -0.004   0.002  0.00  0.00    -0.050 A 
ATOM     17  C   UNL     1       0.006  -0.686  -1.202  0.00  0.00    +0.004 A 
ATOM     18  C   UNL     1       0.024  -2.064  -1.219  0.00  0.00    +0.010 A 
ATOM     19  C   UNL     1       0.040  -2.774  -0.013  0.00  0.00    -0.004 A 
ATOM     20  C   UNL     1       0.037  -2.078   1.200  0.00  0.00    +0.010 A 
ATOM     21  C   UNL     1       0.023  -0.699   1.199  0.00  0.00    +0.004 A 
ENDBRANCH   1  19
BRANCH   3  22
ATOM     22  C   UNL     1      -0.342  -7.179   2.361  0.00  0.00    +0.019 A 
ATOM     23  C   UNL     1       0.969  -7.580   2.533  0.00  0.00    +0.024 A 
ATOM     24  C   UNL     1       1.309  -8.398   3.595  0.00  0.00    +0.018 A 
ATOM     25  C   UNL     1       0.338  -8.816   4.487  0.00  0.00    +0.019 A 
ATOM     26  C   UNL     1      -0.974  -8.417   4.319  0.00  0.00    +0.047 A 
ATOM     27  C   UNL     1      -1.316  -7.592   3.257  0.00  0.00    +0.132 A 
ATOM     28 BR   UNL     1       3.104  -8.947   3.828  0.00  0.00    -0.050 Br
BRANCH  27  29
ATOM     29  O   UNL     1      -2.605  -7.194   3.093  0.00  0.00    -0.434 OA
BRANCH  29  30
ATOM     30  C   UNL     1      -3.555  -7.658   4.054  0.00  0.00    +0.541 C 
ATOM     31  F   UNL     1      -3.589  -9.057   4.039  0.00  0.00    -0.166 F 
ATOM     32  F   UNL     1      -3.184  -7.214   5.328  0.00  0.00    -0.166 F 
ENDBRANCH  29  30
ENDBRANCH  27  29
ENDBRANCH   3  22
TORSDOF 4
