REMARK  Name = ZINC16072317
REMARK  11 active torsions:
REMARK  status: ('A' for Active; 'I' for Inactive)
REMARK    1  A    between atoms: C_1  and  C_2
REMARK    2  A    between atoms: C_5  and  N_8
REMARK    3  A    between atoms: N_8  and  C_9
REMARK    4  A    between atoms: N_8  and  S_10
REMARK    5  A    between atoms: S_10  and  C_13
REMARK    6  A    between atoms: C_17  and  C_19
REMARK    7  A    between atoms: C_19  and  O_21
REMARK    8  A    between atoms: O_21  and  C_22
REMARK    9  A    between atoms: C_22  and  C_24
REMARK   10  A    between atoms: C_22  and  C_25
REMARK   11  A    between atoms: N_27  and  C_28
REMARK                            x       y       z     vdW  Elec       q    Type
REMARK                         _______ _______ _______ _____ _____    ______ ____
ROOT
ATOM      1  C   UNL     1      10.843   3.520   0.736  0.00  0.00    +0.109 A 
ATOM      2  C   UNL     1      10.722   4.858   0.406  0.00  0.00    +0.029 A 
ATOM      3  C   UNL     1       9.595   5.315  -0.256  0.00  0.00    +0.003 A 
ATOM      4  C   UNL     1       8.585   4.437  -0.590  0.00  0.00    +0.015 A 
ATOM      5  C   UNL     1       8.701   3.085  -0.261  0.00  0.00    +0.061 A 
ATOM      6  C   UNL     1       9.839   2.632   0.411  0.00  0.00    +0.043 A 
ENDROOT
BRANCH   1   7
ATOM      7  S   UNL     1      12.282   2.950   1.579  0.00  0.00    +0.074 S 
ATOM      8  O   UNL     1      12.318   1.539   1.412  0.00  0.00    -0.150 OA
ATOM      9  O   UNL     1      13.351   3.793   1.173  0.00  0.00    -0.150 OA
BRANCH   7  10
ATOM     10  N   UNL     1      12.045   3.229   3.194  0.00  0.00    -0.206 N 
ATOM     11  C   UNL     1      12.443   4.511   3.781  0.00  0.00    +0.157 C 
BRANCH  10  16
ATOM     12  C   UNL     1       9.698  -0.775   6.451  0.00  0.00    +0.044 C 
ATOM     13  C   UNL     1      10.322   0.289   5.586  0.00  0.00    -0.050 A 
ATOM     14  C   UNL     1      11.185   1.214   6.144  0.00  0.00    +0.005 A 
ATOM     15  C   UNL     1      11.759   2.190   5.353  0.00  0.00    +0.025 A 
ATOM     16  C   UNL     1      11.467   2.243   3.996  0.00  0.00    +0.051 A 
ATOM     17  C   UNL     1      10.595   1.315   3.440  0.00  0.00    +0.025 A 
ATOM     18  C   UNL     1      10.029   0.338   4.235  0.00  0.00    +0.005 A 
ENDBRANCH  10  16
ENDBRANCH   7  10
ENDBRANCH   1   7
BRANCH   5  19
ATOM     19  C   UNL     1       7.623   2.139  -0.616  0.00  0.00    +0.340 C 
ATOM     20  O   UNL     1       7.728   0.964  -0.328  0.00  0.00    -0.245 OA
BRANCH  19  21
ATOM     21  O   UNL     1       6.525   2.581  -1.258  0.00  0.00    -0.449 OA
BRANCH  21  22
ATOM     22  C   UNL     1       5.506   1.595  -1.575  0.00  0.00    +0.259 C 
ATOM     23  C   UNL     1       5.789   0.996  -2.954  0.00  0.00    +0.062 C 
BRANCH  22  24
ATOM     24  C   UNL     1       4.153   2.257  -1.583  0.00  0.00    +0.258 C 
ATOM     25  O   UNL     1       4.064   3.458  -1.435  0.00  0.00    -0.271 OA
ATOM     26  N   UNL     1       3.041   1.515  -1.755  0.00  0.00    -0.281 N 
ATOM     27  H   UNL     1       3.104   0.548  -1.796  0.00  0.00    +0.155 HD
BRANCH  26  28
ATOM     28  C   UNL     1       1.794   2.140  -1.873  0.00  0.00    +0.052 A 
ATOM     29  C   UNL     1       1.718   3.483  -2.220  0.00  0.00    +0.025 A 
ATOM     30  C   UNL     1       0.486   4.096  -2.337  0.00  0.00    +0.002 A 
ATOM     31  C   UNL     1      -0.672   3.375  -2.110  0.00  0.00    +0.002 A 
ATOM     32  C   UNL     1      -0.601   2.037  -1.770  0.00  0.00    +0.022 A 
ATOM     33  C   UNL     1       0.628   1.418  -1.646  0.00  0.00    +0.062 A 
ATOM     34 CL   UNL     1       0.717  -0.261  -1.214  0.00  0.00    -0.082 Cl
ENDBRANCH  26  28
ENDBRANCH  22  24
ENDBRANCH  21  22
ENDBRANCH  19  21
ENDBRANCH   5  19
TORSDOF 8
