REMARK  Name = ZINC03292987
REMARK  11 active torsions:
REMARK  status: ('A' for Active; 'I' for Inactive)
REMARK    1  A    between atoms: C_1  and  C_2
REMARK    2  A    between atoms: C_2  and  O_3
REMARK    3  A    between atoms: O_3  and  C_4
REMARK    4  A    between atoms: C_4  and  C_6
REMARK    5  A    between atoms: C_10  and  N_11
REMARK    6  A    between atoms: C_12  and  C_14
REMARK    7  A    between atoms: C_14  and  O_15
REMARK    8  A    between atoms: O_15  and  C_16
REMARK    9  A    between atoms: C_16  and  C_18
REMARK   10  A    between atoms: C_18  and  N_19
REMARK   11  A    between atoms: C_29  and  C_33
REMARK                            x       y       z     vdW  Elec       q    Type
REMARK                         _______ _______ _______ _____ _____    ______ ____
ROOT
ATOM      1  N   UNL     1      -3.034  -2.523   2.498  0.00  0.00    -0.277 N 
ATOM      2  C   UNL     1      -3.809  -2.866   3.546  0.00  0.00    +0.255 C 
ATOM      3  O   UNL     1      -4.910  -3.338   3.357  0.00  0.00    -0.272 OA
ATOM      4  H   UNL     1      -2.153  -2.146   2.650  0.00  0.00    +0.155 HD
ENDROOT
BRANCH   1   9
ATOM      5  C   UNL     1      -2.842  -2.416   0.016  0.00  0.00    +0.091 A 
ATOM      6  C   UNL     1      -3.548  -2.714  -1.219  0.00  0.00    -0.021 A 
ATOM      7  C   UNL     1      -4.777  -3.243  -1.039  0.00  0.00    -0.004 A 
ATOM      8  S   UNL     1      -4.974  -3.336   0.716  0.00  0.00    -0.077 S 
ATOM      9  C   UNL     1      -3.495  -2.708   1.205  0.00  0.00    +0.086 A 
ATOM     10  C   UNL     1      -5.743  -3.656  -2.106  0.00  0.00    +0.046 C 
ATOM     11  C   UNL     1      -4.984  -3.738  -3.439  0.00  0.00    -0.009 C 
ATOM     12  C   UNL     1      -4.148  -2.467  -3.612  0.00  0.00    +0.008 C 
ATOM     13  C   UNL     1      -2.989  -2.466  -2.612  0.00  0.00    +0.037 C 
ATOM     14  C   UNL     1      -5.983  -3.859  -4.591  0.00  0.00    +0.008 C 
BRANCH   5  15
ATOM     15  C   UNL     1      -1.497  -1.838   0.006  0.00  0.00    +0.342 C 
ATOM     16  O   UNL     1      -0.523  -2.566  -0.007  0.00  0.00    -0.245 OA
BRANCH  15  17
ATOM     17  O   UNL     1      -1.339  -0.499   0.012  0.00  0.00    -0.461 OA
BRANCH  17  19
ATOM     18  C   UNL     1      -0.019   1.526   0.010  0.00  0.00    +0.048 C 
ATOM     19  C   UNL     1       0.002  -0.004   0.002  0.00  0.00    +0.229 C 
ENDBRANCH  17  19
ENDBRANCH  15  17
ENDBRANCH   5  15
ENDBRANCH   1   9
BRANCH   2  20
ATOM     20  C   UNL     1      -3.307  -2.665   4.953  0.00  0.00    +0.328 C 
BRANCH  20  21
ATOM     21  O   UNL     1      -4.302  -3.102   5.881  0.00  0.00    -0.454 OA
BRANCH  21  22
ATOM     22  C   UNL     1      -4.009  -2.989   7.186  0.00  0.00    +0.328 C 
ATOM     23  O   UNL     1      -2.944  -2.534   7.529  0.00  0.00    -0.249 OA
BRANCH  22  24
ATOM     24  C   UNL     1      -5.010  -3.429   8.223  0.00  0.00    +0.243 C 
BRANCH  24  25
ATOM     25  N   UNL     1      -4.457  -3.205   9.561  0.00  0.00    -0.319 N 
ATOM     26  C   UNL     1      -3.797  -4.117  10.324  0.00  0.00    +0.200 A 
ATOM     27  N   UNL     1      -3.443  -3.582  11.456  0.00  0.00    -0.236 NA
ATOM     28  C   UNL     1      -3.853  -2.288  11.496  0.00  0.00    +0.089 A 
ATOM     29  C   UNL     1      -4.504  -2.026  10.279  0.00  0.00    +0.069 A 
ATOM     30  C   UNL     1      -5.030  -0.766  10.034  0.00  0.00    +0.028 A 
ATOM     31  C   UNL     1      -4.906   0.223  10.988  0.00  0.00    +0.002 A 
ATOM     32  C   UNL     1      -4.260  -0.035  12.188  0.00  0.00    +0.002 A 
ATOM     33  C   UNL     1      -3.742  -1.272  12.449  0.00  0.00    +0.030 A 
ENDBRANCH  24  25
ENDBRANCH  22  24
ENDBRANCH  21  22
ENDBRANCH  20  21
ENDBRANCH   2  20
TORSDOF 9
