REMARK  Name = ZINC19629776
REMARK  7 active torsions:
REMARK  status: ('A' for Active; 'I' for Inactive)
REMARK    1  A    between atoms: C_1  and  C_2
REMARK    2  A    between atoms: C_4  and  O_5
REMARK    3  A    between atoms: N_13  and  C_14
REMARK    4  A    between atoms: C_14  and  N_16
REMARK    5  A    between atoms: N_16  and  N_17
REMARK    6  A    between atoms: N_17  and  S_18
REMARK    7  A    between atoms: S_18  and  C_21
REMARK                            x       y       z     vdW  Elec       q    Type
REMARK                         _______ _______ _______ _____ _____    ______ ____
ROOT
ATOM      1  C   UNL     1       2.601   8.764   3.291  0.00  0.00    +0.150 C 
ATOM      2  S   UNL     1       3.675   8.292   4.538  0.00  0.00    -0.017 S 
ENDROOT
BRANCH   1  14
ATOM      3  C   UNL     1       5.083  13.900   7.585  0.00  0.00    +0.045 C 
ATOM      4  C   UNL     1       5.046  13.986   6.081  0.00  0.00    -0.033 A 
ATOM      5  C   UNL     1       5.639  15.018   5.426  0.00  0.00    +0.091 A 
ATOM      6  C   UNL     1       5.591  15.076   4.019  0.00  0.00    +0.285 A 
ATOM      7  O   UNL     1       4.969  14.131   3.295  0.00  0.00    -0.425 OA
ATOM      8  C   UNL     1       4.360  13.080   3.883  0.00  0.00    +0.141 A 
ATOM      9  C   UNL     1       4.369  12.959   5.286  0.00  0.00    +0.021 A 
ATOM     10  C   UNL     1       3.739  11.871   5.901  0.00  0.00    +0.013 A 
ATOM     11  C   UNL     1       3.112  10.931   5.137  0.00  0.00    +0.024 A 
ATOM     12  C   UNL     1       3.103  11.041   3.747  0.00  0.00    +0.036 A 
ATOM     13  C   UNL     1       3.723  12.113   3.122  0.00  0.00    +0.070 A 
ATOM     14  N   UNL     1       2.463  10.068   2.979  0.00  0.00    -0.296 N 
ATOM     15  H   UNL     1       1.844  10.366   2.120  0.00  0.00    +0.154 HD
BRANCH   6  16
ATOM     16  O   UNL     1       6.127  16.006   3.444  0.00  0.00    -0.480 OA
ATOM     17  H   UNL     1       6.097  16.065   2.346  0.00  0.00    +0.295 HD
ENDBRANCH   6  16
ENDBRANCH   1  14
BRANCH   1  18
ATOM     18  N   UNL     1       1.895   7.832   2.621  0.00  0.00    -0.243 N 
ATOM     19  H   UNL     1       2.008   6.768   2.876  0.00  0.00    +0.170 HD
BRANCH  18  20
ATOM     20  N   UNL     1       1.017   8.219   1.600  0.00  0.00    -0.109 NA
ATOM     21  H   UNL     1       0.321   8.870   1.780  0.00  0.00    +0.172 HD
BRANCH  20  22
ATOM     22  S   UNL     1       1.167   7.565   0.087  0.00  0.00    +0.074 S 
ATOM     23  O   UNL     1       2.513   7.777  -0.316  0.00  0.00    -0.152 OA
ATOM     24  O   UNL     1       0.062   8.037  -0.672  0.00  0.00    -0.152 OA
BRANCH  22  25
ATOM     25  C   UNL     1       0.959   5.823   0.249  0.00  0.00    +0.107 A 
ATOM     26  C   UNL     1       2.071   5.017   0.485  0.00  0.00    +0.029 A 
ATOM     27  C   UNL     1       1.945   3.668   0.616  0.00  0.00    +0.010 A 
ATOM     28  C   UNL     1       0.675   3.076   0.511  0.00  0.00    -0.018 A 
ATOM     29  C   UNL     1       0.505   1.687   0.640  0.00  0.00    +0.008 A 
ATOM     30  C   UNL     1      -0.740   1.148   0.533  0.00  0.00    +0.001 A 
ATOM     31  C   UNL     1      -1.852   1.952   0.291  0.00  0.00    +0.001 A 
ATOM     32  C   UNL     1      -1.726   3.302   0.165  0.00  0.00    +0.008 A 
ATOM     33  C   UNL     1      -0.456   3.894   0.271  0.00  0.00    -0.016 A 
ATOM     34  C   UNL     1      -0.286   5.284   0.142  0.00  0.00    +0.037 A 
ENDBRANCH  22  25
ENDBRANCH  20  22
ENDBRANCH  18  20
ENDBRANCH   1  18
TORSDOF 6
