REMARK  Name = ZINC08717620
REMARK  3 active torsions:
REMARK  status: ('A' for Active; 'I' for Inactive)
REMARK    1  A    between atoms: C_1  and  C_2
REMARK    2  A    between atoms: C_5  and  C_7
REMARK    3  A    between atoms: C_20  and  C_22
REMARK                            x       y       z     vdW  Elec       q    Type
REMARK                         _______ _______ _______ _____ _____    ______ ____
ROOT
ATOM      1  C   UNL     1       1.648   3.216   0.004  0.00  0.00    +0.103 C 
ATOM      2  N   UNL     1       2.870   3.648  -0.007  0.00  0.00    -0.181 NA
ATOM      3  N   UNL     1       2.966   5.027  -0.032  0.00  0.00    -0.205 N 
ATOM      4  C   UNL     1       1.622   5.607   0.187  0.00  0.00    +0.136 C 
ATOM      5  C   UNL     1       0.696   4.394   0.013  0.00  0.00    +0.090 C 
ATOM      6  C   UNL     1       1.415   6.628  -0.902  0.00  0.00    +0.018 A 
ATOM      7  C   UNL     1       0.138   7.088  -1.161  0.00  0.00    +0.024 A 
ATOM      8  C   UNL     1      -0.077   8.036  -2.144  0.00  0.00    +0.018 A 
ATOM      9  C   UNL     1       0.995   8.526  -2.869  0.00  0.00    +0.019 A 
ATOM     10  C   UNL     1       2.269   8.064  -2.618  0.00  0.00    +0.047 A 
ATOM     11  C   UNL     1       2.494   7.101  -1.634  0.00  0.00    +0.129 A 
ATOM     12  O   UNL     1       3.768   6.661  -1.472  0.00  0.00    -0.465 OA
ATOM     13  C   UNL     1       4.120   5.889  -0.318  0.00  0.00    +0.310 C 
ATOM     14 BR   UNL     1      -1.827   8.660  -2.497  0.00  0.00    -0.050 Br
ENDROOT
BRANCH  13  15
ATOM     15  C   UNL     1       5.335   5.047  -0.610  0.00  0.00    +0.015 A 
ATOM     16  C   UNL     1       6.596   5.524  -0.304  0.00  0.00    +0.009 A 
ATOM     17  C   UNL     1       7.712   4.753  -0.571  0.00  0.00    +0.003 A 
ATOM     18  C   UNL     1       7.568   3.504  -1.145  0.00  0.00    +0.038 A 
ATOM     19  C   UNL     1       6.306   3.025  -1.452  0.00  0.00    +0.124 A 
ATOM     20  C   UNL     1       5.188   3.796  -1.179  0.00  0.00    +0.047 A 
ATOM     21  F   UNL     1       6.163   1.804  -2.013  0.00  0.00    -0.205 F 
ENDBRANCH  13  15
BRANCH   1  26
ATOM     22  C   UNL     1      -1.211  -0.898   0.008  0.00  0.00    +0.086 C 
ATOM     23  C   UNL     1       0.002  -0.004   0.002  0.00  0.00    +0.103 A 
ATOM     24  C   UNL     1       1.284  -0.420  -0.013  0.00  0.00    +0.045 A 
ATOM     25  C   UNL     1       2.093   0.733  -0.014  0.00  0.00    +0.051 A 
ATOM     26  C   UNL     1       1.249   1.804  -0.000  0.00  0.00    +0.151 A 
ATOM     27  O   UNL     1      -0.016   1.339   0.009  0.00  0.00    -0.459 OA
ENDBRANCH   1  26
TORSDOF 2
