REMARK  Name = ZINC03091153
REMARK  10 active torsions:
REMARK  status: ('A' for Active; 'I' for Inactive)
REMARK    1  A    between atoms: C_2  and  C_10
REMARK    2  A    between atoms: C_5  and  N_7
REMARK    3  A    between atoms: N_11  and  C_12
REMARK    4  A    between atoms: C_13  and  O_37
REMARK    5  A    between atoms: C_16  and  C_18
REMARK    6  A    between atoms: C_18  and  C_19
REMARK    7  A    between atoms: C_21  and  N_26
REMARK    8  A    between atoms: C_22  and  O_25
REMARK    9  A    between atoms: C_27  and  C_28
REMARK   10  A    between atoms: C_31  and  N_34
REMARK                            x       y       z     vdW  Elec       q    Type
REMARK                         _______ _______ _______ _____ _____    ______ ____
ROOT
ATOM      1  C   UNL     1       0.371   8.402   1.659  0.00  0.00    +0.070 C 
ENDROOT
BRANCH   1   6
ATOM      2  C   UNL     1       2.288   5.587   0.009  0.00  0.00    +0.105 A 
ATOM      3  C   UNL     1       3.199   6.303  -0.779  0.00  0.00    +0.142 A 
ATOM      4  C   UNL     1       3.180   7.687  -0.765  0.00  0.00    +0.048 A 
ATOM      5  C   UNL     1       2.265   8.360   0.024  0.00  0.00    +0.007 A 
ATOM      6  C   UNL     1       1.363   7.657   0.804  0.00  0.00    -0.041 A 
ATOM      7  C   UNL     1       1.365   6.278   0.797  0.00  0.00    +0.035 A 
BRANCH   2   9
ATOM      8  C   UNL     1       1.175   3.559   0.009  0.00  0.00    +0.119 C 
ATOM      9  N   UNL     1       2.298   4.219   0.002  0.00  0.00    -0.251 NA
BRANCH   8  11
ATOM     10  C   UNL     1      -0.017   1.375   0.010  0.00  0.00    +0.011 A 
ATOM     11  C   UNL     1       1.187   2.087   0.002  0.00  0.00    -0.007 A 
ATOM     12  C   UNL     1       2.400   1.394  -0.013  0.00  0.00    +0.011 A 
ATOM     13  C   UNL     1       2.403   0.015  -0.021  0.00  0.00    +0.033 A 
ATOM     14  C   UNL     1       1.208  -0.683  -0.013  0.00  0.00    +0.126 A 
ATOM     15  C   UNL     1       0.002  -0.004   0.002  0.00  0.00    +0.033 A 
BRANCH  14  16
ATOM     16  N   UNL     1       1.219  -2.163  -0.022  0.00  0.00    +0.056 N 
ATOM     17  O   UNL     1       2.271  -2.760  -0.035  0.00  0.00    -0.126 OA
ATOM     18  O   UNL     1       0.177  -2.776  -0.015  0.00  0.00    -0.126 OA
ENDBRANCH  14  16
ENDBRANCH   8  11
ENDBRANCH   2   9
BRANCH   3  19
ATOM     19  O   UNL     1       4.098   5.641  -1.553  0.00  0.00    -0.505 OA
ATOM     20  H   UNL     1       3.781   5.448  -2.446  0.00  0.00    +0.292 HD
ENDBRANCH   3  19
ENDBRANCH   1   6
BRANCH   1  21
ATOM     21  C   UNL     1      -0.888   8.649   0.869  0.00  0.00    -0.041 A 
ATOM     22  C   UNL     1      -1.013   9.799   0.117  0.00  0.00    +0.035 A 
ATOM     23  C   UNL     1      -2.179  10.028  -0.615  0.00  0.00    +0.105 A 
ATOM     24  C   UNL     1      -3.216   9.086  -0.580  0.00  0.00    +0.142 A 
ATOM     25  C   UNL     1      -3.075   7.937   0.180  0.00  0.00    +0.048 A 
ATOM     26  C   UNL     1      -1.912   7.719   0.896  0.00  0.00    +0.007 A 
BRANCH  24  27
ATOM     27  O   UNL     1      -4.356   9.299  -1.288  0.00  0.00    -0.505 OA
ATOM     28  H   UNL     1      -4.332   8.945  -2.188  0.00  0.00    +0.292 HD
ENDBRANCH  24  27
BRANCH  23  29
ATOM     29  N   UNL     1      -2.309  11.166  -1.363  0.00  0.00    -0.251 NA
ATOM     30  C   UNL     1      -1.293  11.621  -2.039  0.00  0.00    +0.119 C 
BRANCH  30  31
ATOM     31  C   UNL     1      -1.434  12.847  -2.844  0.00  0.00    -0.007 A 
ATOM     32  C   UNL     1      -2.654  13.528  -2.880  0.00  0.00    +0.011 A 
ATOM     33  C   UNL     1      -2.777  14.675  -3.635  0.00  0.00    +0.033 A 
ATOM     34  C   UNL     1      -1.697  15.152  -4.356  0.00  0.00    +0.126 A 
ATOM     35  C   UNL     1      -0.486  14.484  -4.325  0.00  0.00    +0.033 A 
ATOM     36  C   UNL     1      -0.345  13.338  -3.570  0.00  0.00    +0.011 A 
BRANCH  34  37
ATOM     37  N   UNL     1      -1.838  16.384  -5.165  0.00  0.00    +0.056 N 
ATOM     38  O   UNL     1      -2.895  16.970  -5.194  0.00  0.00    -0.126 OA
ATOM     39  O   UNL     1      -0.896  16.804  -5.796  0.00  0.00    -0.126 OA
ENDBRANCH  34  37
ENDBRANCH  30  31
ENDBRANCH  23  29
ENDBRANCH   1  21
TORSDOF 10
