REMARK  Name = ZINC02422109
REMARK  8 active torsions:
REMARK  status: ('A' for Active; 'I' for Inactive)
REMARK    1  A    between atoms: C_1  and  O_2
REMARK    2  A    between atoms: O_2  and  C_3
REMARK    3  A    between atoms: C_15  and  N_16
REMARK    4  A    between atoms: C_17  and  C_19
REMARK    5  A    between atoms: C_19  and  S_20
REMARK    6  A    between atoms: S_20  and  C_21
REMARK    7  A    between atoms: C_24  and  C_27
REMARK    8  A    between atoms: N_25  and  N_26
REMARK                            x       y       z     vdW  Elec       q    Type
REMARK                         _______ _______ _______ _____ _____    ______ ____
ROOT
ATOM      1  N   UNL     1       1.422  -9.429  -0.068  0.00  0.00    -0.282 N 
ATOM      2  C   UNL     1       2.179  -8.334   0.143  0.00  0.00    +0.228 C 
ATOM      3  O   UNL     1       3.380  -8.442   0.270  0.00  0.00    -0.275 OA
ATOM      4  H   UNL     1       0.474  -9.335  -0.251  0.00  0.00    +0.155 HD
ENDROOT
BRANCH   1  17
ATOM      5  C   UNL     1       1.375 -11.774  -0.657  0.00  0.00    +0.142 A 
ATOM      6  C   UNL     1       1.946 -13.032  -0.615  0.00  0.00    +0.059 A 
ATOM      7  C   UNL     1       3.148 -13.223   0.062  0.00  0.00    +0.031 A 
ATOM      8  C   UNL     1       4.012 -14.395   0.300  0.00  0.00    +0.028 A 
ATOM      9  C   UNL     1       3.942 -15.736  -0.062  0.00  0.00    +0.012 A 
ATOM     10  C   UNL     1       4.939 -16.603   0.330  0.00  0.00    +0.001 A 
ATOM     11  C   UNL     1       6.007 -16.140   1.081  0.00  0.00    +0.004 A 
ATOM     12  C   UNL     1       6.087 -14.813   1.446  0.00  0.00    +0.047 A 
ATOM     13  C   UNL     1       5.091 -13.924   1.061  0.00  0.00    +0.136 A 
ATOM     14  O   UNL     1       4.919 -12.600   1.275  0.00  0.00    -0.455 OA
ATOM     15  C   UNL     1       3.782 -12.148   0.700  0.00  0.00    +0.138 A 
ATOM     16  C   UNL     1       3.202 -10.887   0.646  0.00  0.00    +0.074 A 
ATOM     17  C   UNL     1       2.004 -10.702  -0.022  0.00  0.00    +0.079 A 
BRANCH   5  19
ATOM     18  C   UNL     1      -0.386 -12.725  -1.943  0.00  0.00    +0.277 C 
ATOM     19  O   UNL     1       0.201 -11.582  -1.317  0.00  0.00    -0.493 OA
ENDBRANCH   5  19
ENDBRANCH   1  17
BRANCH   2  20
ATOM     20  C   UNL     1       1.532  -6.975   0.221  0.00  0.00    +0.173 C 
BRANCH  20  21
ATOM     21  S   UNL     1       2.803  -5.718   0.509  0.00  0.00    -0.075 S 
BRANCH  21  22
ATOM     22  C   UNL     1       1.798  -4.272   0.555  0.00  0.00    +0.209 A 
ATOM     23  N   UNL     1       0.493  -4.224   0.410  0.00  0.00    -0.121 NA
ATOM     24  N   UNL     1       0.082  -3.010   0.505  0.00  0.00    -0.127 NA
ATOM     25  C   UNL     1       1.100  -2.207   0.707  0.00  0.00    +0.184 A 
ATOM     26  N   UNL     1       2.230  -2.990   0.749  0.00  0.00    -0.224 N 
BRANCH  25  27
ATOM     27  C   UNL     1       1.043  -0.739   0.866  0.00  0.00    +0.056 A 
ATOM     28  C   UNL     1       1.941   0.077   0.175  0.00  0.00    +0.014 A 
ATOM     29  C   UNL     1       1.882   1.447   0.328  0.00  0.00    +0.001 A 
ATOM     30  C   UNL     1       0.936   2.014   1.163  0.00  0.00    +0.003 A 
ATOM     31  C   UNL     1       0.042   1.214   1.851  0.00  0.00    +0.039 A 
ATOM     32  C   UNL     1       0.089  -0.160   1.708  0.00  0.00    +0.134 A 
ATOM     33  F   UNL     1      -0.784  -0.942   2.380  0.00  0.00    -0.205 F 
ENDBRANCH  25  27
BRANCH  26  34
ATOM     34  N   UNL     1       3.517  -2.574   0.945  0.00  0.00    -0.295 N 
ATOM     35  H   UNL     1       3.749  -2.569   1.927  0.00  0.00    +0.163 HD
ATOM     36  H   UNL     1       4.165  -3.144   0.423  0.00  0.00    +0.163 HD
ENDBRANCH  26  34
ENDBRANCH  21  22
ENDBRANCH  20  21
ENDBRANCH   2  20
TORSDOF 7
