REMARK  Name = ZINC08635795
REMARK  8 active torsions:
REMARK  status: ('A' for Active; 'I' for Inactive)
REMARK    1  A    between atoms: C_1  and  N_2
REMARK    2  A    between atoms: N_2  and  C_3
REMARK    3  A    between atoms: C_3  and  C_4
REMARK    4  A    between atoms: C_6  and  C_8
REMARK    5  A    between atoms: C_16  and  C_18
REMARK    6  A    between atoms: C_18  and  N_19
REMARK    7  A    between atoms: C_21  and  C_24
REMARK    8  A    between atoms: C_24  and  O_30
REMARK                            x       y       z     vdW  Elec       q    Type
REMARK                         _______ _______ _______ _____ _____    ______ ____
ROOT
ATOM      1  C   UNL     1       0.177   0.721  -0.195  0.00  0.00    +0.062 C 
ATOM      2  C   UNL     1      -0.843   1.365   0.749  0.00  0.00    -0.065 C 
ATOM      3  C   UNL     1      -2.669   0.753  -0.725  0.00  0.00    -0.078 C 
ATOM      4  C   UNL     1      -1.699   0.092  -1.708  0.00  0.00    -0.015 C 
ATOM      5  C   UNL     1      -0.348   0.814  -1.633  0.00  0.00    -0.004 C 
ATOM      6  C   UNL     1      -0.564   2.293  -1.981  0.00  0.00    -0.010 C 
ATOM      7  C   UNL     1      -1.566   2.892  -0.990  0.00  0.00    -0.046 C 
ATOM      8  N   UNL     1      -2.006   1.869  -0.018  0.00  0.00    +0.383 N 
ATOM      9  H   UNL     1      -2.675   2.295   0.634  0.00  0.00    -0.081 HD
ENDROOT
BRANCH   1  12
ATOM     10  C   UNL     1       1.762   0.521   2.147  0.00  0.00    +0.132 C 
ATOM     11  N   UNL     1       2.214   1.376   1.046  0.00  0.00    -0.301 N 
ATOM     12  C   UNL     1       1.492   1.449  -0.090  0.00  0.00    +0.217 C 
ATOM     13  O   UNL     1       1.902   2.099  -1.028  0.00  0.00    -0.275 OA
BRANCH  11  14
ATOM     14  C   UNL     1       3.449   2.153   1.181  0.00  0.00    +0.134 C 
BRANCH  14  15
ATOM     15  C   UNL     1       3.131   3.504   1.766  0.00  0.00    -0.016 C 
ATOM     16  C   UNL     1       3.745   3.909   2.850  0.00  0.00    +0.005 C 
ENDBRANCH  14  15
ENDBRANCH  11  14
ENDBRANCH   1  12
BRANCH   7  17
ATOM     17  C   UNL     1      -0.906   4.047  -0.232  0.00  0.00    +0.130 C 
BRANCH  17  18
ATOM     18  N   UNL     1      -1.898   4.696   0.628  0.00  0.00    -0.253 N 
ATOM     19  C   UNL     1      -1.783   4.892   1.962  0.00  0.00    +0.136 A 
ATOM     20  C   UNL     1      -2.917   5.522   2.350  0.00  0.00    +0.114 A 
ATOM     21  N   UNL     1      -3.660   5.678   1.248  0.00  0.00    -0.132 NA
ATOM     22  N   UNL     1      -3.026   5.184   0.245  0.00  0.00    -0.065 NA
BRANCH  20  23
ATOM     23  C   UNL     1      -3.272   5.960   3.747  0.00  0.00    +0.111 C 
ATOM     24  C   UNL     1      -3.308   4.741   4.671  0.00  0.00    +0.041 C 
ATOM     25  C   UNL     1      -3.669   5.187   6.090  0.00  0.00    +0.003 C 
ATOM     26  C   UNL     1      -5.043   5.859   6.079  0.00  0.00    +0.000 C 
ATOM     27  C   UNL     1      -5.007   7.078   5.155  0.00  0.00    +0.003 C 
ATOM     28  C   UNL     1      -4.646   6.633   3.737  0.00  0.00    +0.041 C 
BRANCH  23  29
ATOM     29  O   UNL     1      -2.292   6.887   4.219  0.00  0.00    -0.382 OA
ATOM     30  H   UNL     1      -1.395   6.528   4.252  0.00  0.00    +0.211 HD
ENDBRANCH  23  29
ENDBRANCH  20  23
ENDBRANCH  17  18
ENDBRANCH   7  17
TORSDOF 7
