REMARK  Name = ZINC03242955
REMARK  7 active torsions:
REMARK  status: ('A' for Active; 'I' for Inactive)
REMARK    1  A    between atoms: C_1  and  C_2
REMARK    2  A    between atoms: C_7  and  N_8
REMARK    3  A    between atoms: C_9  and  C_28
REMARK    4  A    between atoms: C_12  and  S_13
REMARK    5  A    between atoms: S_13  and  C_14
REMARK    6  A    between atoms: C_14  and  C_15
REMARK    7  A    between atoms: C_15  and  C_17
REMARK                            x       y       z     vdW  Elec       q    Type
REMARK                         _______ _______ _______ _____ _____    ______ ____
ROOT
ATOM      1  N   UNL     1       2.439  -2.889   0.244  0.00  0.00    -0.270 N 
ATOM      2  C   UNL     1       1.322  -2.127  -0.022  0.00  0.00    +0.171 A 
ATOM      3  N   UNL     1       0.343  -2.959  -0.292  0.00  0.00    -0.128 NA
ATOM      4  N   UNL     1       0.761  -4.171  -0.208  0.00  0.00    -0.122 NA
ATOM      5  C   UNL     1       2.034  -4.190   0.120  0.00  0.00    +0.197 A 
ENDROOT
BRANCH   1  12
ATOM      6  C   UNL     1       4.286  -2.412  -1.868  0.00  0.00    +0.046 C 
ATOM      7  C   UNL     1       4.652  -2.183  -0.424  0.00  0.00    -0.026 A 
ATOM      8  C   UNL     1       5.912  -1.724  -0.094  0.00  0.00    +0.005 A 
ATOM      9  C   UNL     1       6.250  -1.521   1.231  0.00  0.00    +0.000 A 
ATOM     10  C   UNL     1       5.326  -1.769   2.230  0.00  0.00    +0.002 A 
ATOM     11  C   UNL     1       4.063  -2.223   1.906  0.00  0.00    +0.026 A 
ATOM     12  C   UNL     1       3.720  -2.429   0.576  0.00  0.00    +0.053 A 
ENDBRANCH   1  12
BRANCH   2  13
ATOM     13  C   UNL     1       1.244  -0.651  -0.013  0.00  0.00    +0.038 A 
ATOM     14  C   UNL     1       0.002  -0.004   0.002  0.00  0.00    +0.014 A 
ATOM     15  C   UNL     1      -0.017   1.379   0.010  0.00  0.00    +0.020 A 
ATOM     16  C   UNL     1       1.180   2.073   0.002  0.00  0.00    +0.111 A 
ATOM     17  N   UNL     1       2.336   1.437  -0.013  0.00  0.00    -0.263 NA
ATOM     18  C   UNL     1       2.406   0.122  -0.020  0.00  0.00    +0.122 A 
ENDBRANCH   2  13
BRANCH   5  19
ATOM     19  S   UNL     1       3.033  -5.623   0.349  0.00  0.00    -0.078 S 
BRANCH  19  20
ATOM     20  C   UNL     1       1.812  -6.915   0.009  0.00  0.00    +0.157 C 
BRANCH  20  21
ATOM     21  C   UNL     1       2.461  -8.268   0.150  0.00  0.00    +0.173 C 
ATOM     22  O   UNL     1       3.633  -8.351   0.450  0.00  0.00    -0.291 OA
BRANCH  21  23
ATOM     23  C   UNL     1       1.673  -9.487  -0.077  0.00  0.00    +0.020 A 
ATOM     24  C   UNL     1       0.319  -9.394  -0.418  0.00  0.00    +0.015 A 
ATOM     25  C   UNL     1      -0.419 -10.537  -0.636  0.00  0.00    +0.048 A 
ATOM     26  C   UNL     1       0.176 -11.784  -0.507  0.00  0.00    +0.142 A 
ATOM     27  C   UNL     1       1.527 -11.886  -0.162  0.00  0.00    +0.076 A 
ATOM     28  C   UNL     1       2.275 -10.746   0.053  0.00  0.00    +0.038 A 
ATOM     29  N   UNL     1       2.109 -13.156  -0.036  0.00  0.00    -0.280 N 
ATOM     30  C   UNL     1       1.462 -14.225  -0.550  0.00  0.00    +0.255 C 
ATOM     31  O   UNL     1       1.931 -15.337  -0.428  0.00  0.00    -0.272 OA
ATOM     32  C   UNL     1       0.156 -14.030  -1.277  0.00  0.00    +0.325 C 
ATOM     33  O   UNL     1      -0.544 -12.916  -0.717  0.00  0.00    -0.481 OA
ATOM     34  H   UNL     1       2.961 -13.265   0.413  0.00  0.00    +0.155 HD
ENDBRANCH  21  23
ENDBRANCH  20  21
ENDBRANCH  19  20
ENDBRANCH   5  19
TORSDOF 6
