REMARK  Name = ZINC57710670
REMARK  3 active torsions:
REMARK  status: ('A' for Active; 'I' for Inactive)
REMARK    1  A    between atoms: C_1  and  C_2
REMARK    2  A    between atoms: N_7  and  S_8
REMARK    3  A    between atoms: S_8  and  C_11
REMARK                            x       y       z     vdW  Elec       q    Type
REMARK                         _______ _______ _______ _____ _____    ______ ____
ROOT
ATOM      1  S   UNL     1       0.075  -4.553   1.809  0.00  0.00    +0.101 S 
ATOM      2  O   UNL     1      -1.169  -4.864   1.196  0.00  0.00    -0.146 OA
ATOM      3  O   UNL     1       1.321  -4.829   1.185  0.00  0.00    -0.146 OA
ENDROOT
BRANCH   1  10
ATOM      4  C   UNL     1      -0.018   1.503   0.010  0.00  0.00    +0.064 C 
ATOM      5  C   UNL     1       0.002  -0.004   0.002  0.00  0.00    +0.022 A 
ATOM      6  C   UNL     1       0.006  -0.662  -1.157  0.00  0.00    +0.069 A 
ATOM      7  S   UNL     1       0.032  -2.365  -0.622  0.00  0.00    -0.057 S 
ATOM      8  C   UNL     1       0.036  -2.068   1.139  0.00  0.00    +0.192 A 
ATOM      9  N   UNL     1       0.023  -0.690   1.181  0.00  0.00    -0.336 N 
ATOM     10  N   UNL     1       0.053  -2.928   2.127  0.00  0.00    -0.103 NA
ATOM     11  H   UNL     1       0.024  -0.220   2.029  0.00  0.00    +0.168 HD
ENDBRANCH   1  10
BRANCH   1  12
ATOM     12  C   UNL     1       0.094  -5.388   3.361  0.00  0.00    +0.114 A 
ATOM     13  C   UNL     1       1.298  -5.693   3.967  0.00  0.00    +0.030 A 
ATOM     14  C   UNL     1       1.315  -6.347   5.184  0.00  0.00    +0.023 A 
ATOM     15  C   UNL     1       0.125  -6.697   5.797  0.00  0.00    +0.059 A 
ATOM     16  C   UNL     1      -1.081  -6.392   5.191  0.00  0.00    +0.061 A 
ATOM     17  C   UNL     1      -1.096  -5.732   3.975  0.00  0.00    +0.050 A 
ATOM     18 CL   UNL     1      -2.575  -6.831   5.958  0.00  0.00    -0.082 Cl
ATOM     19 CL   UNL     1       0.145  -7.520   7.326  0.00  0.00    -0.082 Cl
ENDBRANCH   1  12
TORSDOF 2
