REMARK  Name = ZINC18019132
REMARK  13 active torsions:
REMARK  status: ('A' for Active; 'I' for Inactive)
REMARK    1  A    between atoms: C_1  and  C_2
REMARK    2  A    between atoms: C_2  and  N_69
REMARK    3  A    between atoms: C_3  and  C_4
REMARK    4  A    between atoms: C_3  and  N_69
REMARK    5  A    between atoms: C_5  and  C_7
REMARK    6  A    between atoms: C_5  and  C_29
REMARK    7  A    between atoms: C_5  and  N_69
REMARK    8  A    between atoms: C_7  and  N_8
REMARK    9  A    between atoms: C_9  and  C_11
REMARK   10  A    between atoms: N_14  and  S_17
REMARK   11  A    between atoms: S_17  and  C_20
REMARK   12  A    between atoms: C_23  and  C_26
REMARK   13  A    between atoms: C_26  and  C_28
REMARK                            x       y       z     vdW  Elec       q    Type
REMARK                         _______ _______ _______ _____ _____    ______ ____
ROOT
ATOM      1  N   UNL     1      -2.103   7.645   3.198  0.00  0.00    -0.316 N 
ATOM      2  C   UNL     1      -1.630   7.751   1.940  0.00  0.00    +0.216 C 
ATOM      3  O   UNL     1      -0.510   8.174   1.747  0.00  0.00    -0.276 OA
ATOM      4  H   UNL     1      -2.998   7.307   3.353  0.00  0.00    +0.149 HD
ENDROOT
BRANCH   2   5
ATOM      5  C   UNL     1      -2.494   7.344   0.774  0.00  0.00    +0.077 C 
ATOM      6  C   UNL     1      -1.724   7.562  -0.531  0.00  0.00    +0.030 C 
ATOM      7  C   UNL     1      -2.592   7.114  -1.711  0.00  0.00    +0.110 C 
ATOM      8  N   UNL     1      -3.880   7.818  -1.645  0.00  0.00    -0.177 NA
ATOM      9  C   UNL     1      -4.657   7.754  -0.400  0.00  0.00    +0.110 C 
ATOM     10  C   UNL     1      -3.769   8.190   0.764  0.00  0.00    +0.030 C 
BRANCH   8  11
ATOM     11  S   UNL     1      -4.442   8.674  -2.947  0.00  0.00    +0.061 S 
ATOM     12  O   UNL     1      -3.305   9.022  -3.725  0.00  0.00    -0.153 OA
ATOM     13  O   UNL     1      -5.342   9.647  -2.436  0.00  0.00    -0.153 OA
BRANCH  11  14
ATOM     14  C   UNL     1      -5.401   7.565  -3.925  0.00  0.00    +0.106 A 
ATOM     15  C   UNL     1      -6.757   7.433  -3.685  0.00  0.00    +0.029 A 
ATOM     16  C   UNL     1      -7.515   6.568  -4.446  0.00  0.00    +0.013 A 
ATOM     17  C   UNL     1      -6.909   5.822  -5.462  0.00  0.00    +0.017 A 
ATOM     18  C   UNL     1      -5.537   5.961  -5.698  0.00  0.00    +0.013 A 
ATOM     19  C   UNL     1      -4.793   6.831  -4.928  0.00  0.00    +0.029 A 
BRANCH  17  20
ATOM     20  C   UNL     1      -7.710   4.896  -6.278  0.00  0.00    +0.160 C 
ATOM     21  O   UNL     1      -8.898   4.778  -6.071  0.00  0.00    -0.292 OA
ATOM     22  C   UNL     1      -7.052   4.095  -7.372  0.00  0.00    +0.091 C 
ENDBRANCH  17  20
ENDBRANCH  11  14
ENDBRANCH   8  11
ENDBRANCH   2   5
BRANCH   1  23
ATOM     23  C   UNL     1      -1.263   8.041   4.332  0.00  0.00    +0.093 C 
BRANCH  23  24
ATOM     24  C   UNL     1      -2.032   7.823   5.636  0.00  0.00    -0.020 C 
BRANCH  24  25
ATOM     25  C   UNL     1      -1.245   8.398   6.785  0.00  0.00    -0.059 A 
ATOM     26  C   UNL     1      -1.078   9.766   6.892  0.00  0.00    +0.002 A 
ATOM     27  C   UNL     1      -0.359  10.294   7.949  0.00  0.00    +0.000 A 
ATOM     28  C   UNL     1       0.200   9.454   8.893  0.00  0.00    +0.000 A 
ATOM     29  C   UNL     1       0.036   8.085   8.783  0.00  0.00    +0.000 A 
ATOM     30  C   UNL     1      -0.685   7.558   7.729  0.00  0.00    +0.002 A 
ENDBRANCH  24  25
BRANCH  24  31
ATOM     31  N   UNL     1      -3.349   8.486   5.528  0.00  0.00    +0.385 N 
ATOM     32  H   UNL     1      -3.767   8.250   4.620  0.00  0.00    -0.081 HD
BRANCH  31  34
ATOM     33  C   UNL     1      -4.573   6.539   6.361  0.00  0.00    -0.017 C 
ATOM     34  C   UNL     1      -4.243   8.012   6.605  0.00  0.00    -0.081 C 
ENDBRANCH  31  34
BRANCH  31  35
ATOM     35  C   UNL     1      -3.185   9.952   5.615  0.00  0.00    -0.081 C 
ATOM     36  C   UNL     1      -2.382  10.433   4.405  0.00  0.00    -0.017 C 
ENDBRANCH  31  35
ENDBRANCH  24  31
ENDBRANCH  23  24
ENDBRANCH   1  23
TORSDOF 10
