REMARK  Name = ZINC21243233
REMARK  5 active torsions:
REMARK  status: ('A' for Active; 'I' for Inactive)
REMARK    1  A    between atoms: C_1  and  O_2
REMARK    2  A    between atoms: O_2  and  C_3
REMARK    3  A    between atoms: C_8  and  C_9
REMARK    4  A    between atoms: C_14  and  C_24
REMARK    5  A    between atoms: C_27  and  O_30
REMARK                            x       y       z     vdW  Elec       q    Type
REMARK                         _______ _______ _______ _____ _____    ______ ____
ROOT
ATOM      1  C   UNL     1      -2.494   0.953  -0.069  0.00  0.00    +0.035 C 
ATOM      2  C   UNL     1      -2.603   0.055  -1.300  0.00  0.00    +0.060 C 
ATOM      3  C   UNL     1      -3.909  -0.722  -1.260  0.00  0.00    +0.017 C 
ATOM      4  C   UNL     1      -4.433  -1.107  -0.085  0.00  0.00    +0.036 C 
ATOM      5  C   UNL     1      -5.705  -1.900   0.101  0.00  0.00    +0.136 C 
ATOM      6  N   UNL     1      -6.515  -2.020  -1.093  0.00  0.00    -0.331 N 
ATOM      7  C   UNL     1      -6.050  -2.710  -2.211  0.00  0.00    +0.049 A 
ATOM      8  C   UNL     1      -6.659  -3.875  -2.648  0.00  0.00    +0.025 A 
ATOM      9  C   UNL     1      -6.135  -4.550  -3.737  0.00  0.00    +0.002 A 
ATOM     10  C   UNL     1      -5.011  -4.069  -4.383  0.00  0.00    +0.002 A 
ATOM     11  C   UNL     1      -4.410  -2.896  -3.960  0.00  0.00    +0.025 A 
ATOM     12  C   UNL     1      -4.946  -2.209  -2.884  0.00  0.00    +0.052 A 
ATOM     13  N   UNL     1      -4.458  -0.973  -2.475  0.00  0.00    -0.316 N 
ATOM     14  C   UNL     1      -3.792  -0.763   1.129  0.00  0.00    +0.163 C 
ATOM     15  O   UNL     1      -4.278  -1.144   2.176  0.00  0.00    -0.292 OA
ATOM     16  C   UNL     1      -2.535   0.053   1.171  0.00  0.00    +0.088 C 
ATOM     17  H   UNL     1      -7.515  -1.564  -1.127  0.00  0.00    +0.147 HD
ATOM     18  H   UNL     1      -4.540  -0.166  -3.218  0.00  0.00    +0.152 HD
ENDROOT
BRANCH   1  24
ATOM     19  C   UNL     1      -1.201   3.101  -0.101  0.00  0.00    +0.124 A 
ATOM     20  C   UNL     1      -0.003   3.799  -0.140  0.00  0.00    +0.046 A 
ATOM     21  C   UNL     1       1.195   3.111  -0.178  0.00  0.00    +0.004 A 
ATOM     22  C   UNL     1       1.199   1.729  -0.176  0.00  0.00    +0.001 A 
ATOM     23  C   UNL     1       0.006   1.031  -0.138  0.00  0.00    +0.007 A 
ATOM     24  C   UNL     1      -1.194   1.714  -0.105  0.00  0.00    -0.002 A 
BRANCH  19  26
ATOM     25  C   UNL     1      -2.312   5.203  -0.070  0.00  0.00    +0.277 C 
ATOM     26  O   UNL     1      -2.381   3.776  -0.065  0.00  0.00    -0.495 OA
ENDBRANCH  19  26
ENDBRANCH   1  24
BRANCH   5  27
ATOM     27  C   UNL     1      -5.341  -3.284   0.574  0.00  0.00    -0.023 A 
ATOM     28  C   UNL     1      -5.745  -3.714   1.824  0.00  0.00    +0.009 A 
ATOM     29  C   UNL     1      -5.417  -4.984   2.258  0.00  0.00    +0.046 A 
ATOM     30  C   UNL     1      -4.674  -5.824   1.441  0.00  0.00    +0.117 A 
ATOM     31  C   UNL     1      -4.266  -5.388   0.189  0.00  0.00    +0.046 A 
ATOM     32  C   UNL     1      -4.600  -4.119  -0.241  0.00  0.00    +0.009 A 
BRANCH  30  33
ATOM     33  O   UNL     1      -4.346  -7.073   1.867  0.00  0.00    -0.507 OA
ATOM     34  H   UNL     1      -3.757  -7.738   1.219  0.00  0.00    +0.292 HD
ENDBRANCH  30  33
ENDBRANCH   5  27
TORSDOF 4
