REMARK  Name = ZINC15956715
REMARK  14 active torsions:
REMARK  status: ('A' for Active; 'I' for Inactive)
REMARK    1  A    between atoms: CD1_1  and  CG_2
REMARK    2  A    between atoms: CG_2  and  CD2_3
REMARK    3  A    between atoms: CG_2  and  CB_4
REMARK    4  A    between atoms: CB_4  and  CA_5
REMARK    5  A    between atoms: CA_5  and  C_7
REMARK    6  A    between atoms: CA_5  and  N_9
REMARK    7  A    between atoms: C_10  and  C_12
REMARK    8  A    between atoms: C_12  and  O_13
REMARK    9  A    between atoms: O_13  and  N_14
REMARK   10  A    between atoms: C_18  and  C_40
REMARK   11  A    between atoms: C_23  and  C_39
REMARK   12  A    between atoms: C_34  and  C_35
REMARK   13  A    between atoms: C_34  and  O_38
REMARK   14  A    between atoms: C_35  and  C_37
REMARK                            x       y       z     vdW  Elec       q    Type
REMARK                         _______ _______ _______ _____ _____    ______ ____
ROOT
ATOM      1  N   UNK A   0      -1.782   1.458   5.816  0.00  0.00    -0.089 NA
ATOM      2  C   UNK A   0      -1.651   0.848   6.952  0.00  0.00    +0.080 C 
ATOM      3  C   UNK A   0      -0.815  -0.409   7.085  0.00  0.00    +0.059 C 
ATOM      4  C   UNK A   0      -1.643  -1.426   7.876  0.00  0.00    +0.017 C 
ATOM      5  C   UNK A   0      -2.028  -0.890   9.243  0.00  0.00    -0.007 C 
ATOM      6  C   UNK A   0      -2.957  -1.821   9.971  0.00  0.00    +0.002 C 
ATOM      7  C   UNK A   0      -3.820  -2.686   9.060  0.00  0.00    +0.005 C 
ATOM      8  C   UNK A   0      -4.203  -3.980   9.807  0.00  0.00    +0.010 C 
ATOM      9  C   UNK A   0      -4.648  -3.627  11.206  0.00  0.00    +0.007 C 
ATOM     10  C   UNK A   0      -5.012  -2.130  11.293  0.00  0.00    +0.002 C 
ATOM     11  C   UNK A   0      -3.781  -1.249  11.107  0.00  0.00    -0.003 C 
ATOM     12  C   UNK A   0      -4.286   0.165  10.840  0.00  0.00    +0.008 C 
ATOM     13  C   UNK A   0      -3.157   1.105  10.445  0.00  0.00    +0.031 C 
ATOM     14  C   UNK A   0      -2.477   0.534   9.217  0.00  0.00    -0.062 C 
ATOM     15  C   UNK A   0      -2.311   1.340   8.174  0.00  0.00    +0.026 C 
ATOM     16  C   UNK A   0      -5.646  -2.023  12.690  0.00  0.00    +0.008 C 
ATOM     17  C   UNK A   0      -6.375  -3.378  12.887  0.00  0.00    +0.043 C 
ATOM     18  C   UNK A   0      -5.941  -4.285  11.707  0.00  0.00    +0.129 C 
ATOM     19  C   UNK A   0      -3.536  -3.974  12.207  0.00  0.00    +0.015 C 
ATOM     20  C   UNK A   0      -0.730  -0.897  10.068  0.00  0.00    +0.016 C 
ENDROOT
BRANCH  18  21
ATOM     21  C   UNK A   0      -7.017  -4.297  10.658  0.00  0.00    +0.162 C 
ATOM     22  O   UNK A   0      -7.009  -3.472   9.775  0.00  0.00    -0.295 OA
ATOM     23  C   UNK A   0      -8.107  -5.337  10.707  0.00  0.00    +0.089 C 
ENDBRANCH  18  21
BRANCH  18  24
ATOM     24  O   UNK A   0      -5.674  -5.607  12.173  0.00  0.00    -0.381 OA
ATOM     25  H   UNK A   0      -6.454  -6.074  12.502  0.00  0.00    +0.211 HD
ENDBRANCH  18  24
BRANCH   1  26
ATOM     26  O   UNK A   0      -1.132   0.955   4.663  0.00  0.00    -0.384 OA
BRANCH  26  27
ATOM     27  C   UNK A   0      -1.364   1.726   3.482  0.00  0.00    +0.358 C 
BRANCH  27  29
ATOM     28  N   LEU A   1      -0.702   1.664   1.100  0.00  0.00    -0.299 N 
ATOM     29  C   UNK A   0      -0.629   1.104   2.324  0.00  0.00    +0.254 C 
ATOM     30  O   UNK A   0       0.029   0.099   2.492  0.00  0.00    -0.272 OA
ATOM     31  H   LEU A   1      -1.228   2.467   0.965  0.00  0.00    +0.150 HD
BRANCH  28  32
ATOM     32  CA  LEU A   1       0.012   1.058  -0.027  0.00  0.00    +0.187 C 
BRANCH  32  33
ATOM     33  C   LEU A   1       1.435   1.554  -0.044  0.00  0.00    +0.376 C 
ATOM     34  O   LEU A   1       1.814   2.333   0.799  0.00  0.00    -0.244 OA
ATOM     35  OXT LEU A   1       2.282   1.130  -0.995  0.00  0.00    -0.244 OA
ENDBRANCH  32  33
BRANCH  32  36
ATOM     36  CB  LEU A   1      -0.678   1.446  -1.336  0.00  0.00    +0.037 C 
BRANCH  36  38
ATOM     37  CD1 LEU A   1      -2.836   1.378  -2.594  0.00  0.00    +0.007 C 
ATOM     38  CG  LEU A   1      -2.096   0.871  -1.354  0.00  0.00    -0.015 C 
ATOM     39  CD2 LEU A   1      -2.027  -0.657  -1.391  0.00  0.00    +0.007 C 
ENDBRANCH  36  38
ENDBRANCH  32  36
ENDBRANCH  28  32
ENDBRANCH  27  29
ENDBRANCH  26  27
ENDBRANCH   1  26
TORSDOF 9
