REMARK  Name = ZINC44975362
REMARK  11 active torsions:
REMARK  status: ('A' for Active; 'I' for Inactive)
REMARK    1  A    between atoms: C_1  and  C_2
REMARK    2  A    between atoms: C_2  and  O_3
REMARK    3  A    between atoms: O_3  and  C_4
REMARK    4  A    between atoms: C_4  and  C_6
REMARK    5  A    between atoms: C_9  and  C_11
REMARK    6  A    between atoms: C_11  and  N_12
REMARK    7  A    between atoms: C_25  and  C_27
REMARK    8  A    between atoms: C_29  and  O_35
REMARK    9  A    between atoms: C_32  and  O_33
REMARK   10  A    between atoms: O_33  and  C_34
REMARK   11  A    between atoms: O_35  and  C_36
REMARK                            x       y       z     vdW  Elec       q    Type
REMARK                         _______ _______ _______ _____ _____    ______ ____
ROOT
ATOM      1  N   UNL     1       2.269  -1.915  -6.777  0.00  0.00    +0.393 N 
ATOM      2  C   UNL     1       1.678  -3.230  -7.059  0.00  0.00    -0.072 C 
ATOM      3  C   UNL     1       0.450  -3.057  -7.963  0.00  0.00    +0.019 C 
ATOM      4  C   UNL     1       0.851  -2.181  -9.123  0.00  0.00    -0.022 A 
ATOM      5  C   UNL     1       0.180  -1.960 -10.384  0.00  0.00    +0.003 A 
ATOM      6  C   UNL     1      -1.008  -2.457 -10.930  0.00  0.00    +0.010 A 
ATOM      7  C   UNL     1      -1.344  -2.019 -12.187  0.00  0.00    +0.001 A 
ATOM      8  C   UNL     1      -0.553  -1.127 -12.892  0.00  0.00    +0.002 A 
ATOM      9  C   UNL     1       0.626  -0.620 -12.377  0.00  0.00    +0.026 A 
ATOM     10  C   UNL     1       0.994  -1.046 -11.103  0.00  0.00    +0.047 A 
ATOM     11  N   UNL     1       2.071  -0.751 -10.315  0.00  0.00    -0.359 N 
ATOM     12  H   UNL     1       2.791  -0.149 -10.557  0.00  0.00    +0.166 HD
ATOM     13  C   UNL     1       1.978  -1.433  -9.132  0.00  0.00    +0.011 A 
ATOM     14  C   UNL     1       2.947  -1.396  -7.975  0.00  0.00    +0.015 C 
ATOM     15  H   UNL     1       1.540  -1.275  -6.502  0.00  0.00    -0.080 HD
ENDROOT
BRANCH  14  16
ATOM     16  C   UNL     1       3.389   0.024  -7.730  0.00  0.00    -0.010 A 
ATOM     17  C   UNL     1       2.805   0.765  -6.721  0.00  0.00    +0.051 A 
ATOM     18  C   UNL     1       3.212   2.071  -6.495  0.00  0.00    +0.121 A 
ATOM     19  C   UNL     1       4.206   2.634  -7.283  0.00  0.00    +0.049 A 
ATOM     20  C   UNL     1       4.790   1.893  -8.292  0.00  0.00    +0.049 A 
ATOM     21  C   UNL     1       4.386   0.585  -8.514  0.00  0.00    +0.122 A 
BRANCH  21  22
ATOM     22  O   UNL     1       4.965  -0.147  -9.503  0.00  0.00    -0.495 OA
ATOM     23  C   UNL     1       5.986   0.494 -10.272  0.00  0.00    +0.277 C 
ENDBRANCH  21  22
BRANCH  18  24
ATOM     24  O   UNL     1       2.637   2.801  -5.503  0.00  0.00    -0.495 OA
ATOM     25  C   UNL     1       3.105   4.139  -5.327  0.00  0.00    +0.277 C 
ENDBRANCH  18  24
ENDBRANCH  14  16
BRANCH   1  26
ATOM     26  C   UNL     1       3.242  -2.043  -5.684  0.00  0.00    -0.002 C 
BRANCH  26  30
ATOM     27  C   UNL     1       1.449  -2.344  -2.517  0.00  0.00    +0.211 A 
ATOM     28  C   UNL     1       1.619  -3.669  -2.805  0.00  0.00    +0.057 A 
ATOM     29  C   UNL     1       2.311  -3.731  -4.024  0.00  0.00    +0.043 A 
ATOM     30  C   UNL     1       2.529  -2.458  -4.423  0.00  0.00    +0.090 A 
ATOM     31  O   UNL     1       2.005  -1.626  -3.514  0.00  0.00    -0.455 OA
BRANCH  27  32
ATOM     32  C   UNL     1       0.776  -1.800  -1.335  0.00  0.00    +0.375 C 
ATOM     33  O   UNL     1       0.312  -2.552  -0.499  0.00  0.00    -0.241 OA
BRANCH  32  34
ATOM     34  O   UNL     1       0.671  -0.465  -1.174  0.00  0.00    -0.459 OA
BRANCH  34  36
ATOM     35  C   UNL     1      -0.019   1.526   0.010  0.00  0.00    +0.048 C 
ATOM     36  C   UNL     1       0.002  -0.004   0.002  0.00  0.00    +0.229 C 
ENDBRANCH  34  36
ENDBRANCH  32  34
ENDBRANCH  27  32
ENDBRANCH  26  30
ENDBRANCH   1  26
TORSDOF 8
