REMARK  Name = ZINC22429093
REMARK  9 active torsions:
REMARK  status: ('A' for Active; 'I' for Inactive)
REMARK    1  A    between atoms: C_1  and  C_2
REMARK    2  A    between atoms: N_6  and  C_7
REMARK    3  A    between atoms: C_10  and  C_13
REMARK    4  A    between atoms: C_13  and  N_14
REMARK    5  A    between atoms: C_15  and  C_17
REMARK    6  A    between atoms: C_17  and  N_18
REMARK    7  A    between atoms: N_18  and  C_19
REMARK    8  A    between atoms: N_18  and  S_26
REMARK    9  A    between atoms: S_26  and  C_29
REMARK                            x       y       z     vdW  Elec       q    Type
REMARK                         _______ _______ _______ _____ _____    ______ ____
ROOT
ATOM      1  N   UNL     1      -3.193  -0.316   3.087  0.00  0.00    -0.310 N 
ATOM      2  C   UNL     1      -2.578  -0.103   1.908  0.00  0.00    +0.232 C 
ATOM      3  O   UNL     1      -2.683   0.971   1.354  0.00  0.00    -0.274 OA
ATOM      4  H   UNL     1      -3.098  -1.290   3.589  0.00  0.00    +0.149 HD
ENDROOT
BRANCH   1   5
ATOM      5  C   UNL     1      -3.989   0.749   3.702  0.00  0.00    +0.139 C 
BRANCH   5   9
ATOM      6  C   UNL     1      -5.625  -0.643   7.396  0.00  0.00    +0.048 A 
ATOM      7  C   UNL     1      -4.383  -0.022   7.375  0.00  0.00    +0.026 A 
ATOM      8  C   UNL     1      -3.857   0.426   6.180  0.00  0.00    +0.007 A 
ATOM      9  C   UNL     1      -4.566   0.258   5.005  0.00  0.00    -0.030 A 
ATOM     10  C   UNL     1      -5.805  -0.355   5.023  0.00  0.00    +0.007 A 
ATOM     11  C   UNL     1      -6.334  -0.810   6.215  0.00  0.00    +0.026 A 
BRANCH   6  17
ATOM     12  C   UNL     1      -8.462  -0.019   8.399  0.00  0.00    +0.084 C 
ATOM     13  C   UNL     1      -7.407  -0.847   9.087  0.00  0.00    +0.088 A 
ATOM     14  N   UNL     1      -7.539  -1.443  10.240  0.00  0.00    -0.350 N 
ATOM     15  C   UNL     1      -6.399  -2.082  10.543  0.00  0.00    +0.102 A 
ATOM     16  C   UNL     1      -5.525  -1.882   9.538  0.00  0.00    +0.110 A 
ATOM     17  N   UNL     1      -6.161  -1.100   8.609  0.00  0.00    -0.305 N 
ATOM     18  H   UNL     1      -8.486  -1.366  10.794  0.00  0.00    +0.166 HD
ENDBRANCH   6  17
ENDBRANCH   5   9
ENDBRANCH   1   5
BRANCH   2  19
ATOM     19  C   UNL     1      -1.759  -1.199   1.276  0.00  0.00    +0.227 C 
BRANCH  19  20
ATOM     20  N   UNL     1      -1.198  -0.721   0.009  0.00  0.00    -0.191 N 
BRANCH  20  21
ATOM     21  C   UNL     1       0.002  -0.004   0.002  0.00  0.00    +0.087 A 
ATOM     22  C   UNL     1       1.216  -0.678  -0.013  0.00  0.00    +0.027 A 
ATOM     23  C   UNL     1       2.400   0.033  -0.021  0.00  0.00    +0.002 A 
ATOM     24  C   UNL     1       2.379   1.415  -0.013  0.00  0.00    +0.003 A 
ATOM     25  C   UNL     1       1.173   2.092   0.002  0.00  0.00    +0.040 A 
ATOM     26  C   UNL     1      -0.017   1.387   0.010  0.00  0.00    +0.146 A 
ATOM     27  F   UNL     1      -1.195   2.047   0.019  0.00  0.00    -0.203 F 
ENDBRANCH  20  21
BRANCH  20  28
ATOM     28  S   UNL     1      -1.986  -1.031  -1.414  0.00  0.00    +0.075 S 
ATOM     29  O   UNL     1      -3.353  -1.239  -1.085  0.00  0.00    -0.150 OA
ATOM     30  O   UNL     1      -1.568  -0.033  -2.335  0.00  0.00    -0.150 OA
BRANCH  28  31
ATOM     31  C   UNL     1      -1.376  -2.567  -2.024  0.00  0.00    +0.109 A 
ATOM     32  C   UNL     1      -0.282  -2.590  -2.869  0.00  0.00    +0.029 A 
ATOM     33  C   UNL     1       0.201  -3.795  -3.343  0.00  0.00    +0.002 A 
ATOM     34  C   UNL     1      -0.417  -4.977  -2.982  0.00  0.00    +0.000 A 
ATOM     35  C   UNL     1      -1.515  -4.955  -2.141  0.00  0.00    +0.002 A 
ATOM     36  C   UNL     1      -1.994  -3.749  -1.662  0.00  0.00    +0.029 A 
ENDBRANCH  28  31
ENDBRANCH  20  28
ENDBRANCH  19  20
ENDBRANCH   2  19
TORSDOF 8
