REMARK  Name = ZINC52618872
REMARK  9 active torsions:
REMARK  status: ('A' for Active; 'I' for Inactive)
REMARK    1  A    between atoms: C_1  and  C_2
REMARK    2  A    between atoms: C_2  and  C_3
REMARK    3  A    between atoms: C_3  and  C_4
REMARK    4  A    between atoms: C_4  and  C_5
REMARK    5  A    between atoms: C_9  and  C_37
REMARK    6  A    between atoms: C_11  and  C_36
REMARK    7  A    between atoms: N_14  and  C_15
REMARK    8  A    between atoms: C_23  and  C_25
REMARK    9  A    between atoms: C_30  and  C_31
REMARK                            x       y       z     vdW  Elec       q    Type
REMARK                         _______ _______ _______ _____ _____    ______ ____
ROOT
ATOM      1  C   UNL     1       0.357  -4.895  -2.542  0.00  0.00    +0.107 C 
ATOM      2  C   UNL     1      -0.500  -4.663  -3.805  0.00  0.00    +0.032 C 
ATOM      3  C   UNL     1      -1.541  -3.634  -3.316  0.00  0.00    +0.037 C 
ATOM      4  C   UNL     1      -1.653  -3.863  -1.824  0.00  0.00    -0.042 A 
ATOM      5  C   UNL     1      -0.560  -4.590  -1.377  0.00  0.00    -0.024 A 
ATOM      6  C   UNL     1      -0.446  -4.922  -0.036  0.00  0.00    +0.006 A 
ATOM      7  C   UNL     1      -1.415  -4.534   0.864  0.00  0.00    +0.009 A 
ATOM      8  C   UNL     1      -2.518  -3.803   0.423  0.00  0.00    -0.017 A 
ATOM      9  C   UNL     1      -2.631  -3.468  -0.930  0.00  0.00    +0.012 A 
ENDROOT
BRANCH   1  18
ATOM     10  C   UNL     1       1.455  -2.521  -2.524  0.00  0.00    +0.160 C 
ATOM     11  N   UNL     1       2.853  -2.071  -2.521  0.00  0.00    -0.323 N 
ATOM     12  C   UNL     1       3.655  -3.218  -2.530  0.00  0.00    +0.070 A 
ATOM     13  C   UNL     1       5.038  -3.360  -2.531  0.00  0.00    -0.025 A 
ATOM     14  C   UNL     1       5.572  -4.641  -2.541  0.00  0.00    +0.026 A 
ATOM     15  C   UNL     1       4.719  -5.726  -2.548  0.00  0.00    +0.015 A 
ATOM     16  N   UNL     1       3.411  -5.563  -2.547  0.00  0.00    -0.346 N 
ATOM     17  C   UNL     1       2.854  -4.358  -2.537  0.00  0.00    +0.123 A 
ATOM     18  N   UNL     1       1.507  -3.987  -2.535  0.00  0.00    -0.290 N 
ATOM     19  C   UNL     1       5.293  -7.120  -2.559  0.00  0.00    +0.063 C 
ATOM     20  C   UNL     1       5.937  -2.151  -2.524  0.00  0.00    +0.046 C 
ATOM     21  H   UNL     1       3.162  -1.151  -2.515  0.00  0.00    +0.148 HD
ATOM     22  H   UNL     1       2.838  -6.346  -2.553  0.00  0.00    +0.167 HD
BRANCH  10  23
ATOM     23  C   UNL     1       0.739  -2.027  -1.265  0.00  0.00    +0.042 C 
BRANCH  23  24
ATOM     24  C   UNL     1       0.709  -0.497  -1.262  0.00  0.00    +0.003 C 
BRANCH  24  26
ATOM     25  C   UNL     1      -0.037   1.526  -0.001  0.00  0.00    +0.004 C 
ATOM     26  C   UNL     1      -0.007  -0.004  -0.004  0.00  0.00    -0.003 C 
ENDBRANCH  24  26
ENDBRANCH  23  24
ENDBRANCH  10  23
ENDBRANCH   1  18
BRANCH   8  27
ATOM     27  C   UNL     1      -3.565  -3.383   1.384  0.00  0.00    -0.007 A 
ATOM     28  C   UNL     1      -3.995  -2.059   1.415  0.00  0.00    +0.009 A 
ATOM     29  C   UNL     1      -4.971  -1.671   2.312  0.00  0.00    +0.001 A 
ATOM     30  C   UNL     1      -5.527  -2.592   3.184  0.00  0.00    +0.001 A 
ATOM     31  C   UNL     1      -5.113  -3.908   3.167  0.00  0.00    +0.012 A 
ATOM     32  C   UNL     1      -4.133  -4.319   2.264  0.00  0.00    +0.030 A 
BRANCH  32  33
ATOM     33  C   UNL     1      -3.691  -5.729   2.238  0.00  0.00    +0.207 A 
ATOM     34  N   UNL     1      -2.760  -6.259   1.441  0.00  0.00    -0.106 NA
ATOM     35  N   UNL     1      -2.671  -7.512   1.731  0.00  0.00    -0.021 NA
ATOM     36  N   UNL     1      -3.502  -7.791   2.673  0.00  0.00    -0.021 NA
ATOM     37  N   UNL     1      -4.138  -6.721   3.010  0.00  0.00    -0.106 NA
ENDBRANCH  32  33
ENDBRANCH   8  27
TORSDOF 6
