REMARK  Name = ZINC09087111
REMARK  4 active torsions:
REMARK  status: ('A' for Active; 'I' for Inactive)
REMARK    1  A    between atoms: C_1  and  C_2
REMARK    2  A    between atoms: C_5  and  S_8
REMARK    3  A    between atoms: S_8  and  C_9
REMARK    4  A    between atoms: C_9  and  C_10
REMARK                            x       y       z     vdW  Elec       q    Type
REMARK                         _______ _______ _______ _____ _____    ______ ____
ROOT
ATOM      1  C   UNL     1      -2.312   4.857   0.039  0.00  0.00    +0.060 A 
ATOM      2  C   UNL     1      -2.695   5.486   1.188  0.00  0.00    +0.094 A 
ATOM      3  C   UNL     1      -3.850   6.287   1.172  0.00  0.00    +0.253 A 
ATOM      4  O   UNL     1      -4.219   6.868   2.179  0.00  0.00    -0.268 OA
ATOM      5  N   UNL     1      -4.548   6.397   0.021  0.00  0.00    -0.295 N 
ATOM      6  H   UNL     1      -5.457   7.015  -0.015  0.00  0.00    +0.172 HD
ATOM      7  C   UNL     1      -4.121   5.742  -1.093  0.00  0.00    +0.199 A 
ATOM      8  N   UNL     1      -3.034   4.997  -1.071  0.00  0.00    -0.220 NA
ATOM      9  N   UNL     1      -4.833   5.858  -2.256  0.00  0.00    -0.296 N 
ATOM     10  C   UNL     1      -4.136   5.194  -3.369  0.00  0.00    +0.113 C 
ATOM     11  C   UNL     1      -5.119   5.033  -4.530  0.00  0.00    +0.054 C 
ATOM     12  C   UNL     1      -5.792   6.349  -4.820  0.00  0.00    -0.041 A 
ATOM     13  C   UNL     1      -6.441   6.506  -6.036  0.00  0.00    +0.004 A 
ATOM     14  C   UNL     1      -7.077   7.693  -6.339  0.00  0.00    +0.000 A 
ATOM     15  C   UNL     1      -7.069   8.731  -5.425  0.00  0.00    +0.000 A 
ATOM     16  C   UNL     1      -6.421   8.576  -4.216  0.00  0.00    +0.005 A 
ATOM     17  C   UNL     1      -5.780   7.385  -3.911  0.00  0.00    -0.027 A 
ATOM     18  C   UNL     1      -5.084   7.266  -2.580  0.00  0.00    +0.143 C 
ENDROOT
BRANCH   1  19
ATOM     19  C   UNL     1      -1.075   3.998   0.029  0.00  0.00    +0.130 C 
BRANCH  19  20
ATOM     20  S   UNL     1      -1.553   2.248   0.022  0.00  0.00    -0.119 S 
BRANCH  20  25
ATOM     21  C   UNL     1       3.710  -0.706  -0.038  0.00  0.00    +0.044 C 
ATOM     22  C   UNL     1       2.396   0.031  -0.021  0.00  0.00    -0.050 A 
ATOM     23  C   UNL     1       1.208  -0.676  -0.013  0.00  0.00    +0.004 A 
ATOM     24  C   UNL     1       0.002  -0.004   0.002  0.00  0.00    +0.015 A 
ATOM     25  C   UNL     1      -0.017   1.385   0.010  0.00  0.00    +0.008 A 
ATOM     26  C   UNL     1       1.179   2.093   0.002  0.00  0.00    +0.015 A 
ATOM     27  C   UNL     1       2.381   1.414  -0.013  0.00  0.00    +0.004 A 
ENDBRANCH  20  25
ENDBRANCH  19  20
ENDBRANCH   1  19
TORSDOF 3
