REMARK  Name = ZINC32573345
REMARK  8 active torsions:
REMARK  status: ('A' for Active; 'I' for Inactive)
REMARK    1  A    between atoms: C_1  and  C_2
REMARK    2  A    between atoms: C_2  and  C_3
REMARK    3  A    between atoms: C_3  and  N_4
REMARK    4  A    between atoms: C_7  and  C_9
REMARK    5  A    between atoms: C_18  and  N_22
REMARK    6  A    between atoms: N_22  and  C_23
REMARK    7  A    between atoms: C_23  and  C_24
REMARK    8  A    between atoms: C_24  and  N_30
REMARK                            x       y       z     vdW  Elec       q    Type
REMARK                         _______ _______ _______ _____ _____    ______ ____
ROOT
ATOM      1  N   UNL     1       0.120  -2.583  -1.512  0.00  0.00    -0.267 N 
ATOM      2  C   UNL     1       1.323  -3.017  -1.101  0.00  0.00    +0.043 A 
ATOM      3  C   UNL     1       1.397  -4.337  -1.401  0.00  0.00    +0.004 A 
ATOM      4  C   UNL     1       0.173  -4.664  -2.009  0.00  0.00    +0.151 A 
ATOM      5  N   UNL     1      -0.545  -3.554  -2.035  0.00  0.00    -0.166 NA
ATOM      6  C   UNL     1       2.584  -5.214  -1.113  0.00  0.00    +0.023 C 
ATOM      7  C   UNL     1       3.791  -4.310  -0.824  0.00  0.00    -0.067 C 
ATOM      8  C   UNL     1       3.399  -3.249   0.208  0.00  0.00    -0.009 C 
ATOM      9  C   UNL     1       2.428  -2.245  -0.427  0.00  0.00    +0.054 C 
ENDROOT
BRANCH   4  10
ATOM     10  C   UNL     1      -0.234  -5.991  -2.515  0.00  0.00    +0.267 C 
ATOM     11  O   UNL     1       0.480  -6.957  -2.330  0.00  0.00    -0.268 OA
ATOM     12  N   UNL     1      -1.398  -6.130  -3.182  0.00  0.00    -0.292 N 
ATOM     13  C   UNL     1      -2.205  -4.956  -3.548  0.00  0.00    +0.136 C 
ATOM     14  C   UNL     1      -2.546  -5.050  -5.040  0.00  0.00    +0.179 C 
ATOM     15  O   UNL     1      -3.125  -6.328  -5.311  0.00  0.00    -0.377 OA
ATOM     16  C   UNL     1      -2.252  -7.432  -5.056  0.00  0.00    +0.179 C 
ATOM     17  C   UNL     1      -1.894  -7.459  -3.570  0.00  0.00    +0.136 C 
ENDBRANCH   4  10
BRANCH   7  18
ATOM     18  N   UNL     1       4.895  -5.122  -0.296  0.00  0.00    +0.380 N 
ATOM     19  H   UNL     1       4.631  -5.509   0.598  0.00  0.00    -0.086 HD
ATOM     20  H   UNL     1       5.099  -5.872  -0.940  0.00  0.00    -0.086 HD
BRANCH  18  21
ATOM     21  C   UNL     1       6.087  -4.280  -0.132  0.00  0.00    -0.095 C 
BRANCH  21  22
ATOM     22  C   UNL     1       7.274  -5.151   0.284  0.00  0.00    -0.081 C 
ATOM     23  C   UNL     1       8.466  -4.257   0.634  0.00  0.00    -0.014 C 
ATOM     24  C   UNL     1       8.851  -3.420  -0.588  0.00  0.00    -0.001 C 
ATOM     25  C   UNL     1       9.231  -4.348  -1.743  0.00  0.00    -0.000 C 
ATOM     26  C   UNL     1       8.040  -5.242  -2.093  0.00  0.00    -0.001 C 
ATOM     27  C   UNL     1       7.655  -6.080  -0.871  0.00  0.00    -0.014 C 
BRANCH  22  28
ATOM     28  N   UNL     1       6.904  -5.955   1.457  0.00  0.00    +0.382 N 
ATOM     29  C   UNL     1       6.534  -5.064   2.562  0.00  0.00    -0.078 C 
ATOM     30  C   UNL     1       6.071  -5.895   3.760  0.00  0.00    -0.019 C 
ATOM     31  C   UNL     1       7.209  -6.818   4.205  0.00  0.00    -0.004 C 
ATOM     32  C   UNL     1       7.637  -7.692   3.023  0.00  0.00    -0.019 C 
ATOM     33  C   UNL     1       8.043  -6.793   1.852  0.00  0.00    -0.078 C 
ATOM     34  H   UNL     1       6.119  -6.544   1.225  0.00  0.00    -0.081 HD
ENDBRANCH  22  28
ENDBRANCH  21  22
ENDBRANCH  18  21
ENDBRANCH   7  18
BRANCH   1  35
ATOM     35  C   UNL     1      -0.367  -1.208  -1.379  0.00  0.00    +0.143 C 
BRANCH  35  37
ATOM     36  C   UNL     1      -1.596   0.387   0.101  0.00  0.00    +0.005 C 
ATOM     37  C   UNL     1      -1.087  -1.049  -0.038  0.00  0.00    +0.020 C 
ENDBRANCH  35  37
ENDBRANCH   1  35
TORSDOF 7
