REMARK  Name = ZINC46842482
REMARK  10 active torsions:
REMARK  status: ('A' for Active; 'I' for Inactive)
REMARK    1  A    between atoms: C_1  and  C_2
REMARK    2  A    between atoms: C_5  and  C_8
REMARK    3  A    between atoms: N_14  and  C_15
REMARK    4  A    between atoms: C_15  and  C_16
REMARK    5  A    between atoms: C_16  and  C_17
REMARK    6  A    between atoms: N_19  and  C_20
REMARK    7  A    between atoms: C_20  and  C_21
REMARK    8  A    between atoms: C_26  and  C_27
REMARK    9  A    between atoms: C_27  and  N_28
REMARK   10  A    between atoms: C_31  and  C_34
REMARK                            x       y       z     vdW  Elec       q    Type
REMARK                         _______ _______ _______ _____ _____    ______ ____
ROOT
ATOM      1  C   UNL     1      -0.980  -4.002   4.516  0.00  0.00    +0.215 C 
ATOM      2  O   UNL     1       0.097  -3.637   4.938  0.00  0.00    -0.276 OA
ATOM      3  N   UNL     1      -2.081  -3.884   5.285  0.00  0.00    -0.311 N 
ATOM      4  H   UNL     1      -2.942  -4.176   4.947  0.00  0.00    +0.149 HD
ENDROOT
BRANCH   1   5
ATOM      5  C   UNL     1      -1.088  -4.587   3.131  0.00  0.00    +0.117 C 
BRANCH   5   6
ATOM      6  C   UNL     1       0.295  -4.607   2.477  0.00  0.00    +0.135 C 
BRANCH   6  13
ATOM      7  C   UNL     1       0.069  -4.239  -0.020  0.00  0.00    +0.163 A 
ATOM      8  N   UNL     1      -0.017  -4.989  -1.082  0.00  0.00    -0.153 NA
ATOM      9  N   UNL     1       0.023  -6.329  -0.671  0.00  0.00    -0.254 N 
ATOM     10  H   UNL     1      -0.022  -7.107  -1.248  0.00  0.00    +0.191 HD
ATOM     11  C   UNL     1       0.137  -6.338   0.672  0.00  0.00    +0.176 A 
ATOM     12  S   UNL     1       0.227  -7.726   1.670  0.00  0.00    -0.011 S 
ATOM     13  N   UNL     1       0.172  -5.056   1.088  0.00  0.00    -0.303 N 
BRANCH   7  18
ATOM     14  C   UNL     1       0.050   1.517   0.037  0.00  0.00    +0.044 C 
ATOM     15  C   UNL     1       0.055   0.010   0.022  0.00  0.00    -0.050 A 
ATOM     16  C   UNL     1       0.399  -0.666  -1.135  0.00  0.00    +0.004 A 
ATOM     17  C   UNL     1       0.406  -2.046  -1.155  0.00  0.00    +0.012 A 
ATOM     18  C   UNL     1       0.065  -2.759  -0.005  0.00  0.00    +0.019 A 
ATOM     19  C   UNL     1      -0.281  -2.071   1.158  0.00  0.00    +0.012 A 
ATOM     20  C   UNL     1      -0.279  -0.691   1.167  0.00  0.00    +0.004 A 
ENDBRANCH   7  18
ENDBRANCH   6  13
ENDBRANCH   5   6
ENDBRANCH   1   5
BRANCH   3  21
ATOM     21  C   UNL     1      -1.976  -3.316   6.631  0.00  0.00    +0.139 C 
BRANCH  21  22
ATOM     22  C   UNL     1      -3.338  -3.296   7.275  0.00  0.00    -0.029 A 
ATOM     23  C   UNL     1      -4.076  -2.127   7.297  0.00  0.00    +0.005 A 
ATOM     24  C   UNL     1      -5.325  -2.109   7.888  0.00  0.00    +0.000 A 
ATOM     25  C   UNL     1      -5.838  -3.260   8.457  0.00  0.00    +0.000 A 
ATOM     26  C   UNL     1      -5.101  -4.429   8.434  0.00  0.00    +0.002 A 
ATOM     27  C   UNL     1      -3.853  -4.448   7.839  0.00  0.00    -0.059 A 
BRANCH  27  28
ATOM     28  C   UNL     1      -3.051  -5.724   7.810  0.00  0.00    -0.043 C 
BRANCH  28  29
ATOM     29  N   UNL     1      -2.044  -5.694   8.879  0.00  0.00    +0.382 N 
ATOM     30  C   UNL     1      -2.717  -5.678  10.183  0.00  0.00    -0.078 C 
ATOM     31  C   UNL     1      -1.675  -5.566  11.298  0.00  0.00    -0.016 C 
ATOM     32  C   UNL     1      -0.727  -6.766  11.226  0.00  0.00    -0.018 C 
ATOM     33  C   UNL     1      -0.086  -6.815   9.836  0.00  0.00    -0.016 C 
ATOM     34  C   UNL     1      -1.188  -6.882   8.775  0.00  0.00    -0.078 C 
ATOM     35  C   UNL     1       0.365  -6.619  12.287  0.00  0.00    +0.007 C 
ATOM     36  H   UNL     1      -1.479  -4.864   8.784  0.00  0.00    -0.081 HD
ENDBRANCH  28  29
ENDBRANCH  27  28
ENDBRANCH  21  22
ENDBRANCH   3  21
TORSDOF 8
