REMARK  Name = ZINC39687499
REMARK  4 active torsions:
REMARK  status: ('A' for Active; 'I' for Inactive)
REMARK    1  A    between atoms: C_10  and  N_13
REMARK    2  A    between atoms: C_14  and  C_16
REMARK    3  A    between atoms: C_27  and  C_29
REMARK    4  A    between atoms: C_32  and  C_34
REMARK                            x       y       z     vdW  Elec       q    Type
REMARK                         _______ _______ _______ _____ _____    ______ ____
ROOT
ATOM      1  C   UNL     1       0.774  -7.970  -2.998  0.00  0.00    +0.100 C 
ATOM      2  C   UNL     1       2.216  -8.484  -3.209  0.00  0.00    +0.121 C 
ATOM      3  N   UNL     1       2.312  -9.691  -2.354  0.00  0.00    -0.294 N 
ATOM      4  C   UNL     1       0.999 -10.359  -2.510  0.00  0.00    +0.115 C 
ATOM      5  C   UNL     1      -0.022  -9.204  -2.543  0.00  0.00    -0.004 C 
ATOM      6  C   UNL     1      -1.136  -9.512  -3.539  0.00  0.00    -0.010 C 
ATOM      7  C   UNL     1      -1.950 -10.707  -3.035  0.00  0.00    -0.082 C 
ATOM      8  N   UNL     1      -2.518 -10.394  -1.718  0.00  0.00    +0.379 N 
ATOM      9  C   UNL     1      -1.439 -10.191  -0.743  0.00  0.00    -0.082 C 
ATOM     10  C   UNL     1      -0.603  -8.974  -1.151  0.00  0.00    -0.010 C 
ATOM     11  C   UNL     1       3.359 -10.090  -1.604  0.00  0.00    +0.282 C 
ATOM     12  O   UNL     1       3.284 -11.114  -0.950  0.00  0.00    -0.267 OA
ATOM     13  H   UNL     1      -3.073  -9.554  -1.783  0.00  0.00    -0.086 HD
ATOM     14  H   UNL     1      -3.103 -11.158  -1.415  0.00  0.00    -0.086 HD
ENDROOT
BRANCH  11  15
ATOM     15  C   UNL     1       4.586  -9.291  -1.575  0.00  0.00    +0.190 A 
ATOM     16  C   UNL     1       5.726  -9.585  -0.860  0.00  0.00    +0.055 A 
ATOM     17  C   UNL     1       6.643  -8.562  -1.122  0.00  0.00    +0.050 A 
ATOM     18  C   UNL     1       6.036  -7.689  -1.979  0.00  0.00    +0.136 A 
ATOM     19  O   UNL     1       4.800  -8.141  -2.250  0.00  0.00    -0.450 OA
BRANCH  18  20
ATOM     20  C   UNL     1       6.640  -6.457  -2.523  0.00  0.00    +0.017 A 
ATOM     21  C   UNL     1       7.944  -6.101  -2.172  0.00  0.00    +0.014 A 
ATOM     22  C   UNL     1       8.503  -4.949  -2.683  0.00  0.00    +0.039 A 
ATOM     23  C   UNL     1       7.774  -4.144  -3.544  0.00  0.00    +0.123 A 
ATOM     24  C   UNL     1       6.479  -4.492  -3.896  0.00  0.00    +0.039 A 
ATOM     25  C   UNL     1       5.911  -5.645  -3.395  0.00  0.00    +0.014 A 
ATOM     26  F   UNL     1       8.326  -3.017  -4.042  0.00  0.00    -0.205 F 
ENDBRANCH  18  20
ENDBRANCH  11  15
BRANCH   1  28
ATOM     27  N   UNL     1      -0.196  -5.944  -1.963  0.00  0.00    -0.312 N 
ATOM     28  C   UNL     1       0.748  -6.906  -1.932  0.00  0.00    +0.218 C 
ATOM     29  O   UNL     1       1.576  -6.914  -1.046  0.00  0.00    -0.275 OA
ATOM     30  H   UNL     1      -0.858  -5.937  -2.672  0.00  0.00    +0.149 HD
BRANCH  27  40
ATOM     31  C   UNL     1      -4.021  -0.543   1.585  0.00  0.00    +0.005 A 
ATOM     32  C   UNL     1      -4.640  -1.163   2.663  0.00  0.00    +0.018 A 
ATOM     33  C   UNL     1      -4.191  -2.400   3.080  0.00  0.00    +0.084 A 
ATOM     34  N   UNL     1      -3.185  -2.996   2.469  0.00  0.00    -0.350 N 
ATOM     35  C   UNL     1      -2.570  -2.438   1.438  0.00  0.00    +0.099 A 
ATOM     36  C   UNL     1      -2.970  -1.192   0.964  0.00  0.00    +0.042 A 
ATOM     37  N   UNL     1      -1.514  -3.102   0.824  0.00  0.00    -0.317 N 
ATOM     38  C   UNL     1      -0.902  -2.564  -0.399  0.00  0.00    +0.108 C 
ATOM     39  C   UNL     1      -0.908  -3.656  -1.474  0.00  0.00    +0.041 C 
ATOM     40  C   UNL     1      -0.222  -4.909  -0.926  0.00  0.00    +0.076 C 
ATOM     41  C   UNL     1      -0.994  -5.425   0.290  0.00  0.00    +0.041 C 
ATOM     42  C   UNL     1      -0.985  -4.351   1.388  0.00  0.00    +0.108 C 
ATOM     43  H   UNL     1      -2.889  -3.865   2.782  0.00  0.00    +0.166 HD
ENDBRANCH  27  40
ENDBRANCH   1  28
TORSDOF 4
