REMARK  Name = ZINC20689646
REMARK  6 active torsions:
REMARK  status: ('A' for Active; 'I' for Inactive)
REMARK    1  A    between atoms: C_1  and  C_2
REMARK    2  A    between atoms: C_5  and  C_7
REMARK    3  A    between atoms: C_18  and  O_23
REMARK    4  A    between atoms: O_23  and  C_24
REMARK    5  A    between atoms: C_24  and  C_25
REMARK    6  A    between atoms: C_25  and  C_26
REMARK                            x       y       z     vdW  Elec       q    Type
REMARK                         _______ _______ _______ _____ _____    ______ ____
ROOT
ATOM      1  C   UNL     1       1.043  -4.062  -0.027  0.00  0.00    +0.111 C 
ATOM      2  C   UNL     1       1.509  -4.456   1.363  0.00  0.00    +0.029 C 
ATOM      3  C   UNL     1       0.497  -4.315   2.507  0.00  0.00    +0.033 C 
ATOM      4  C   UNL     1       1.417  -4.048   3.701  0.00  0.00    -0.030 C 
ATOM      5  C   UNL     1       2.553  -3.502   3.285  0.00  0.00    -0.023 C 
ATOM      6  C   UNL     1       2.507  -3.341   1.799  0.00  0.00    +0.049 C 
ATOM      7  C   UNL     1       3.707  -3.446   0.941  0.00  0.00    -0.016 A 
ATOM      8  C   UNL     1       4.975  -3.180   1.408  0.00  0.00    +0.051 A 
ATOM      9  C   UNL     1       6.068  -3.278   0.560  0.00  0.00    +0.121 A 
ATOM     10  C   UNL     1       5.883  -3.645  -0.765  0.00  0.00    +0.047 A 
ATOM     11  C   UNL     1       4.615  -3.918  -1.237  0.00  0.00    +0.027 A 
ATOM     12  C   UNL     1       3.516  -3.828  -0.392  0.00  0.00    +0.032 A 
ATOM     13  N   UNL     1       2.241  -4.146  -0.891  0.00  0.00    -0.336 N 
ATOM     14  H   UNL     1       2.143  -4.427  -1.814  0.00  0.00    +0.147 HD
ENDROOT
BRANCH   1  19
ATOM     15  C   UNL     1      -0.018   1.503   0.010  0.00  0.00    +0.051 C 
ATOM     16  C   UNL     1       0.002  -0.004   0.002  0.00  0.00    -0.013 A 
ATOM     17  C   UNL     1      -1.039  -0.872   0.002  0.00  0.00    +0.011 A 
ATOM     18  C   UNL     1      -0.780  -2.230  -0.007  0.00  0.00    +0.013 A 
ATOM     19  C   UNL     1       0.507  -2.653  -0.016  0.00  0.00    +0.010 A 
ATOM     20  S   UNL     1       1.404  -1.109  -0.018  0.00  0.00    -0.097 S 
ENDBRANCH   1  19
BRANCH   9  21
ATOM     21  O   UNL     1       7.318  -3.015   1.026  0.00  0.00    -0.492 OA
BRANCH  21  22
ATOM     22  C   UNL     1       8.396  -3.137   0.096  0.00  0.00    +0.229 C 
BRANCH  22  23
ATOM     23  C   UNL     1       9.715  -2.805   0.797  0.00  0.00    +0.044 C 
BRANCH  23  24
ATOM     24  C   UNL     1      10.869  -2.935  -0.199  0.00  0.00    -0.008 C 
ATOM     25  C   UNL     1      11.001  -4.394  -0.639  0.00  0.00    +0.003 C 
ATOM     26  C   UNL     1      12.155  -4.525  -1.635  0.00  0.00    +0.000 C 
ATOM     27  C   UNL     1      13.457  -4.073  -0.969  0.00  0.00    +0.000 C 
ATOM     28  C   UNL     1      13.325  -2.614  -0.529  0.00  0.00    +0.000 C 
ATOM     29  C   UNL     1      12.171  -2.483   0.467  0.00  0.00    +0.003 C 
ENDBRANCH  23  24
ENDBRANCH  22  23
ENDBRANCH  21  22
ENDBRANCH   9  21
TORSDOF 5
