REMARK  Name = ZINC14889005
REMARK  6 active torsions:
REMARK  status: ('A' for Active; 'I' for Inactive)
REMARK    1  A    between atoms: C_4  and  C_7
REMARK    2  A    between atoms: C_14  and  C_15
REMARK    3  A    between atoms: C_14  and  N_63
REMARK    4  A    between atoms: C_18  and  C_23
REMARK    5  A    between atoms: N_25  and  C_26
REMARK    6  A    between atoms: C_26  and  C_27
REMARK                            x       y       z     vdW  Elec       q    Type
REMARK                         _______ _______ _______ _____ _____    ______ ____
ROOT
ATOM      1  C   UNL     1       0.957  -5.039   0.067  0.00  0.00    +0.003 A 
ATOM      2  C   UNL     1       0.176  -6.055  -0.380  0.00  0.00    +0.020 A 
ATOM      3  C   UNL     1       0.629  -6.890  -1.401  0.00  0.00    +0.020 A 
ATOM      4  C   UNL     1       1.890  -6.662  -1.949  0.00  0.00    +0.101 A 
ATOM      5  C   UNL     1       2.669  -5.588  -1.448  0.00  0.00    +0.261 A 
ATOM      6  O   UNL     1       3.776  -5.368  -1.910  0.00  0.00    -0.267 OA
ATOM      7  N   UNL     1       2.181  -4.809  -0.464  0.00  0.00    -0.327 N 
ATOM      8  H   UNL     1       2.717  -4.073  -0.128  0.00  0.00    +0.169 HD
ENDROOT
BRANCH   4   9
ATOM      9  C   UNL     1       2.403  -7.521  -3.027  0.00  0.00    +0.250 C 
ATOM     10  O   UNL     1       1.687  -8.371  -3.521  0.00  0.00    -0.270 OA
ATOM     11  N   UNL     1       3.667  -7.365  -3.469  0.00  0.00    -0.307 N 
ATOM     12  H   UNL     1       4.215  -6.641  -3.126  0.00  0.00    +0.149 HD
BRANCH  11  13
ATOM     13  C   UNL     1       4.214  -8.288  -4.466  0.00  0.00    +0.147 C 
BRANCH  13  14
ATOM     14  C   UNL     1       5.633  -7.898  -4.787  0.00  0.00    +0.008 A 
ATOM     15  C   UNL     1       6.762  -8.310  -4.193  0.00  0.00    +0.021 A 
ATOM     16  C   UNL     1       8.043  -7.804  -4.665  0.00  0.00    -0.011 A 
ATOM     17  C   UNL     1       9.342  -8.102  -4.190  0.00  0.00    +0.009 A 
ATOM     18  C   UNL     1      10.437  -7.530  -4.758  0.00  0.00    +0.001 A 
ATOM     19  C   UNL     1      10.324  -6.639  -5.817  0.00  0.00    +0.001 A 
ATOM     20  C   UNL     1       9.074  -6.322  -6.309  0.00  0.00    +0.015 A 
ATOM     21  C   UNL     1       7.956  -6.896  -5.741  0.00  0.00    +0.020 A 
ATOM     22  S   UNL     1       6.213  -6.783  -6.052  0.00  0.00    -0.092 S 
ENDBRANCH  13  14
ENDBRANCH  11  13
ENDBRANCH   4   9
BRANCH   1  23
ATOM     23  C   UNL     1       0.450  -4.147   1.171  0.00  0.00    -0.025 C 
BRANCH  23  30
ATOM     24  C   UNL     1       0.441   0.035   0.023  0.00  0.00    +0.017 C 
ATOM     25  C   UNL     1      -0.532  -0.362  -1.109  0.00  0.00    +0.006 C 
ATOM     26  C   UNL     1      -0.457  -1.788  -1.409  0.00  0.00    -0.018 C 
ATOM     27  C   UNL     1      -0.844  -2.669  -0.207  0.00  0.00    -0.078 C 
ATOM     28  C   UNL     1       0.298  -1.798   1.773  0.00  0.00    -0.078 C 
ATOM     29  C   UNL     1      -0.148  -0.389   1.342  0.00  0.00    -0.011 C 
ATOM     30  N   UNL     1       0.349  -2.785   0.647  0.00  0.00    +0.383 N 
ATOM     31  H   UNL     1       1.181  -2.588   0.077  0.00  0.00    -0.081 HD
BRANCH  24  35
ATOM     32  C   UNL     1       1.006   4.269   0.004  0.00  0.00    +0.000 A 
ATOM     33  C   UNL     1       2.087   3.427  -0.175  0.00  0.00    +0.000 A 
ATOM     34  C   UNL     1       1.904   2.057  -0.169  0.00  0.00    +0.004 A 
ATOM     35  C   UNL     1       0.640   1.529   0.017  0.00  0.00    -0.044 A 
ATOM     36  C   UNL     1      -0.442   2.371   0.191  0.00  0.00    +0.004 A 
ATOM     37  C   UNL     1      -0.258   3.741   0.189  0.00  0.00    +0.000 A 
ENDBRANCH  24  35
ENDBRANCH  23  30
ENDBRANCH   1  23
TORSDOF 6
