REMARK  Name = ZINC05509573
REMARK  2 active torsions:
REMARK  status: ('A' for Active; 'I' for Inactive)
REMARK    1  A    between atoms: C_1  and  C_2
REMARK    2  A    between atoms: C_2  and  C_3
REMARK                            x       y       z     vdW  Elec       q    Type
REMARK                         _______ _______ _______ _____ _____    ______ ____
ROOT
ATOM      1  C   UNL     1       5.915   1.245  -1.021  0.00  0.00    -0.047 A 
ATOM      2  C   UNL     1       6.009   2.627  -1.049  0.00  0.00    +0.007 A 
ATOM      3  C   UNL     1       4.929   3.414  -0.698  0.00  0.00    +0.047 A 
ATOM      4  C   UNL     1       3.736   2.822  -0.313  0.00  0.00    +0.134 A 
ATOM      5  C   UNL     1       3.637   1.423  -0.308  0.00  0.00    +0.064 A 
ATOM      6  C   UNL     1       4.732   0.637  -0.653  0.00  0.00    +0.019 A 
ATOM      7  C   UNL     1       2.339   0.824   0.069  0.00  0.00    +0.199 C 
ATOM      8  O   UNL     1       2.259  -0.338   0.425  0.00  0.00    -0.287 OA
ATOM      9  C   UNL     1       1.186   1.657  -0.000  0.00  0.00    +0.072 C 
ATOM     10  C   UNL     1      -0.013   1.076   0.008  0.00  0.00    +0.085 C 
ATOM     11  N   UNL     1      -1.220   1.622   0.017  0.00  0.00    -0.319 N 
ATOM     12  C   UNL     1      -1.662   2.699   0.773  0.00  0.00    +0.052 A 
ATOM     13  C   UNL     1      -2.982   2.676   1.221  0.00  0.00    +0.025 A 
ATOM     14  C   UNL     1      -3.497   3.723   1.954  0.00  0.00    +0.002 A 
ATOM     15  C   UNL     1      -2.693   4.809   2.251  0.00  0.00    +0.002 A 
ATOM     16  C   UNL     1      -1.387   4.839   1.819  0.00  0.00    +0.025 A 
ATOM     17  C   UNL     1      -0.845   3.785   1.072  0.00  0.00    +0.051 A 
ATOM     18  N   UNL     1       0.471   3.906   0.703  0.00  0.00    -0.304 N 
ATOM     19  C   UNL     1       1.345   3.141  -0.140  0.00  0.00    +0.297 C 
ATOM     20  O   UNL     1       2.688   3.562   0.094  0.00  0.00    -0.466 OA
ATOM     21  H   UNL     1      -1.874   1.217  -0.574  0.00  0.00    +0.152 HD
ATOM     22  H   UNL     1       0.905   4.677   1.098  0.00  0.00    +0.150 HD
ENDROOT
BRANCH   1  24
ATOM     23  C   UNL     1       7.082   0.120  -2.897  0.00  0.00    +0.009 C 
ATOM     24  C   UNL     1       7.108   0.403  -1.394  0.00  0.00    +0.032 C 
ENDBRANCH   1  24
TORSDOF 1
