REMARK  Name = ZINC19531069
REMARK  8 active torsions:
REMARK  status: ('A' for Active; 'I' for Inactive)
REMARK    1  A    between atoms: C_4  and  S_7
REMARK    2  A    between atoms: S_7  and  C_8
REMARK    3  A    between atoms: C_13  and  N_14
REMARK    4  A    between atoms: C_15  and  C_17
REMARK    5  A    between atoms: C_17  and  S_18
REMARK    6  A    between atoms: S_18  and  C_19
REMARK    7  A    between atoms: N_23  and  C_24
REMARK    8  A    between atoms: C_27  and  O_30
REMARK                            x       y       z     vdW  Elec       q    Type
REMARK                         _______ _______ _______ _____ _____    ______ ____
ROOT
ATOM      1  N   UNL     1      -0.926   6.469   0.293  0.00  0.00    -0.284 N 
ATOM      2  C   UNL     1       0.025   5.688   0.842  0.00  0.00    +0.228 C 
ATOM      3  O   UNL     1       1.057   6.182   1.247  0.00  0.00    -0.275 OA
ATOM      4  H   UNL     1      -1.824   6.013  -0.150  0.00  0.00    +0.155 HD
ENDROOT
BRANCH   1  10
ATOM      5  C   UNL     1      -1.893   8.690   0.276  0.00  0.00    +0.034 A 
ATOM      6  C   UNL     1      -1.732  10.069   0.273  0.00  0.00    +0.017 A 
ATOM      7  C   UNL     1      -0.463  10.616   0.268  0.00  0.00    +0.001 A 
ATOM      8  C   UNL     1       0.649   9.794   0.271  0.00  0.00    +0.002 A 
ATOM      9  C   UNL     1       0.499   8.420   0.280  0.00  0.00    +0.024 A 
ATOM     10  C   UNL     1      -0.771   7.862   0.285  0.00  0.00    +0.047 A 
BRANCH   5  11
ATOM     11  S   UNL     1      -3.509   7.989   0.275  0.00  0.00    -0.088 S 
BRANCH  11  15
ATOM     12  C   UNL     1      -4.070   6.536  -3.978  0.00  0.00    +0.000 A 
ATOM     13  C   UNL     1      -5.028   6.255  -3.021  0.00  0.00    +0.001 A 
ATOM     14  C   UNL     1      -4.861   6.697  -1.724  0.00  0.00    +0.015 A 
ATOM     15  C   UNL     1      -3.727   7.424  -1.380  0.00  0.00    +0.013 A 
ATOM     16  C   UNL     1      -2.769   7.709  -2.345  0.00  0.00    +0.015 A 
ATOM     17  C   UNL     1      -2.941   7.259  -3.639  0.00  0.00    +0.001 A 
ENDBRANCH  11  15
ENDBRANCH   5  11
ENDBRANCH   1  10
BRANCH   2  18
ATOM     18  C   UNL     1      -0.192   4.201   0.954  0.00  0.00    +0.173 C 
BRANCH  18  19
ATOM     19  S   UNL     1       1.254   3.436   1.729  0.00  0.00    -0.075 S 
BRANCH  19  20
ATOM     20  C   UNL     1       0.742   1.750   1.734  0.00  0.00    +0.214 A 
ATOM     21  N   UNL     1      -0.397   1.277   1.276  0.00  0.00    -0.101 NA
ATOM     22  N   UNL     1      -0.451   0.003   1.432  0.00  0.00    -0.022 NA
ATOM     23  N   UNL     1       0.629  -0.427   1.990  0.00  0.00    -0.038 NA
ATOM     24  N   UNL     1       1.449   0.694   2.209  0.00  0.00    -0.187 N 
BRANCH  24  25
ATOM     25  C   UNL     1       2.724   0.716   2.794  0.00  0.00    +0.070 A 
ATOM     26  C   UNL     1       3.682   1.611   2.337  0.00  0.00    +0.031 A 
ATOM     27  C   UNL     1       4.935   1.636   2.917  0.00  0.00    +0.047 A 
ATOM     28  C   UNL     1       5.240   0.759   3.948  0.00  0.00    +0.117 A 
ATOM     29  C   UNL     1       4.285  -0.139   4.401  0.00  0.00    +0.047 A 
ATOM     30  C   UNL     1       3.030  -0.161   3.825  0.00  0.00    +0.031 A 
BRANCH  28  31
ATOM     31  O   UNL     1       6.476   0.781   4.515  0.00  0.00    -0.507 OA
ATOM     32  H   UNL     1       6.718   0.086   5.332  0.00  0.00    +0.292 HD
ENDBRANCH  28  31
ENDBRANCH  24  25
ENDBRANCH  19  20
ENDBRANCH  18  19
ENDBRANCH   2  18
TORSDOF 8
