REMARK  Name = ZINC01871772
REMARK  8 active torsions:
REMARK  status: ('A' for Active; 'I' for Inactive)
REMARK    1  A    between atoms: C_4  and  O_7
REMARK    2  A    between atoms: O_7  and  P_8
REMARK    3  A    between atoms: P_8  and  C_10
REMARK    4  A    between atoms: P_8  and  O_27
REMARK    5  A    between atoms: C_10  and  C_12
REMARK    6  A    between atoms: C_10  and  N_19
REMARK    7  A    between atoms: N_19  and  C_20
REMARK    8  A    between atoms: O_27  and  C_28
REMARK                            x       y       z     vdW  Elec       q    Type
REMARK                         _______ _______ _______ _____ _____    ______ ____
ROOT
ATOM      1  C   UNL     1       4.886  -1.869   1.516  0.00  0.00    +0.244 C 
ENDROOT
BRANCH   1   2
ATOM      2  C   UNL     1       6.271  -1.290   1.648  0.00  0.00    +0.022 A 
ATOM      3  C   UNL     1       7.195  -1.472   0.636  0.00  0.00    +0.009 A 
ATOM      4  C   UNL     1       8.466  -0.942   0.756  0.00  0.00    +0.001 A 
ATOM      5  C   UNL     1       8.814  -0.230   1.889  0.00  0.00    +0.003 A 
ATOM      6  C   UNL     1       7.892  -0.046   2.901  0.00  0.00    +0.039 A 
ATOM      7  C   UNL     1       6.617  -0.572   2.780  0.00  0.00    +0.129 A 
ATOM      8  F   UNL     1       5.713  -0.390   3.767  0.00  0.00    -0.205 F 
ENDBRANCH   1   2
BRANCH   1   9
ATOM      9  P   UNL     1       3.714  -0.544   1.071  0.00  0.00    +0.458 P 
ATOM     10  O   UNL     1       2.443  -1.145   0.610  0.00  0.00    -0.230 OA
BRANCH   9  11
ATOM     11  O   UNL     1       4.343   0.353  -0.109  0.00  0.00    -0.414 OA
BRANCH  11  15
ATOM     12  C   UNL     1       2.882  -0.545  -3.861  0.00  0.00    +0.000 A 
ATOM     13  C   UNL     1       2.171   0.299  -3.028  0.00  0.00    +0.004 A 
ATOM     14  C   UNL     1       2.658   0.602  -1.771  0.00  0.00    +0.046 A 
ATOM     15  C   UNL     1       3.861   0.057  -1.345  0.00  0.00    +0.131 A 
ATOM     16  C   UNL     1       4.572  -0.790  -2.183  0.00  0.00    +0.046 A 
ATOM     17  C   UNL     1       4.080  -1.089  -3.439  0.00  0.00    +0.004 A 
ENDBRANCH  11  15
ENDBRANCH   9  11
BRANCH   9  18
ATOM     18  O   UNL     1       3.435   0.381   2.358  0.00  0.00    -0.414 OA
BRANCH  18  19
ATOM     19  C   UNL     1       2.433   1.282   2.185  0.00  0.00    +0.131 A 
ATOM     20  C   UNL     1       2.703   2.522   1.623  0.00  0.00    +0.046 A 
ATOM     21  C   UNL     1       1.682   3.436   1.447  0.00  0.00    +0.004 A 
ATOM     22  C   UNL     1       0.393   3.116   1.831  0.00  0.00    +0.000 A 
ATOM     23  C   UNL     1       0.121   1.882   2.392  0.00  0.00    +0.004 A 
ATOM     24  C   UNL     1       1.137   0.962   2.564  0.00  0.00    +0.046 A 
ENDBRANCH  18  19
ENDBRANCH   9  18
ENDBRANCH   1   9
BRANCH   1  25
ATOM     25  N   UNL     1       4.882  -2.896   0.471  0.00  0.00    -0.325 N 
ATOM     26  H   UNL     1       5.270  -2.705  -0.397  0.00  0.00    +0.147 HD
BRANCH  25  27
ATOM     27  C   UNL     1       4.320  -4.149   0.726  0.00  0.00    +0.041 A 
ATOM     28  C   UNL     1       3.662  -4.386   1.926  0.00  0.00    +0.024 A 
ATOM     29  C   UNL     1       3.107  -5.626   2.174  0.00  0.00    +0.002 A 
ATOM     30  C   UNL     1       3.206  -6.632   1.230  0.00  0.00    +0.001 A 
ATOM     31  C   UNL     1       3.860  -6.399   0.034  0.00  0.00    +0.016 A 
ATOM     32  C   UNL     1       4.413  -5.159  -0.223  0.00  0.00    +0.034 A 
ATOM     33  I   UNL     1       5.397  -4.806  -2.039  0.00  0.00    -0.042 I 
ENDBRANCH  25  27
ENDBRANCH   1  25
TORSDOF 8
