REMARK  Name = ZINC53518654
REMARK  9 active torsions:
REMARK  status: ('A' for Active; 'I' for Inactive)
REMARK    1  A    between atoms: C_1  and  C_2
REMARK    2  A    between atoms: C_2  and  O_3
REMARK    3  A    between atoms: O_3  and  C_4
REMARK    4  A    between atoms: C_7  and  C_13
REMARK    5  A    between atoms: C_9  and  O_10
REMARK    6  A    between atoms: O_10  and  C_11
REMARK    7  A    between atoms: C_11  and  C_12
REMARK    8  A    between atoms: C_13  and  C_14
REMARK    9  A    between atoms: C_14  and  N_15
REMARK                            x       y       z     vdW  Elec       q    Type
REMARK                         _______ _______ _______ _____ _____    ______ ____
ROOT
ATOM      1  N   UNL     1       2.575  -7.994   1.256  0.00  0.00    -0.299 N 
ATOM      2  C   UNL     1       3.621  -8.650   0.715  0.00  0.00    +0.302 C 
ATOM      3  O   UNL     1       4.421  -8.052   0.022  0.00  0.00    -0.253 OA
ATOM      4  N   UNL     1       3.779  -9.969   0.943  0.00  0.00    -0.283 N 
ATOM      5  C   UNL     1       2.755 -10.730   1.671  0.00  0.00    +0.128 C 
ATOM      6  C   UNL     1       2.317 -11.916   0.803  0.00  0.00    +0.125 C 
ATOM      7  N   UNL     1       3.516 -12.619   0.327  0.00  0.00    -0.314 N 
ATOM      8  C   UNL     1       4.541 -11.857  -0.402  0.00  0.00    +0.125 C 
ATOM      9  C   UNL     1       4.977 -10.672   0.461  0.00  0.00    +0.128 C 
ATOM     10  C   UNL     1       3.680 -13.979   0.561  0.00  0.00    +0.099 A 
ATOM     11  C   UNL     1       2.645 -14.708   1.138  0.00  0.00    +0.042 A 
ATOM     12  C   UNL     1       2.821 -16.061   1.366  0.00  0.00    +0.005 A 
ATOM     13  C   UNL     1       4.031 -16.642   1.008  0.00  0.00    +0.018 A 
ATOM     14  C   UNL     1       5.015 -15.858   0.440  0.00  0.00    +0.084 A 
ATOM     15  N   UNL     1       4.817 -14.570   0.229  0.00  0.00    -0.350 N 
ATOM     16  H   UNL     1       1.898  -8.483   1.748  0.00  0.00    +0.150 HD
ATOM     17  H   UNL     1       5.523 -14.043  -0.176  0.00  0.00    +0.166 HD
ENDROOT
BRANCH   1  18
ATOM     18  C   UNL     1       2.462  -6.541   1.100  0.00  0.00    +0.110 C 
BRANCH  18  19
ATOM     19  C   UNL     1       1.194  -6.050   1.802  0.00  0.00    +0.054 C 
BRANCH  19  23
ATOM     20  C   UNL     1       0.860  -1.812   1.342  0.00  0.00    +0.162 A 
ATOM     21  C   UNL     1       0.292  -2.660   0.405  0.00  0.00    +0.050 A 
ATOM     22  C   UNL     1       0.402  -4.030   0.557  0.00  0.00    +0.007 A 
ATOM     23  C   UNL     1       1.078  -4.556   1.642  0.00  0.00    -0.042 A 
ATOM     24  C   UNL     1       1.646  -3.715   2.580  0.00  0.00    +0.053 A 
ATOM     25  C   UNL     1       1.544  -2.341   2.431  0.00  0.00    +0.162 A 
BRANCH  20  26
ATOM     26  O   UNL     1       0.753  -0.464   1.194  0.00  0.00    -0.489 OA
BRANCH  26  28
ATOM     27  C   UNL     1       0.021   1.538   0.056  0.00  0.00    +0.048 C 
ATOM     28  C   UNL     1       0.035   0.008   0.052  0.00  0.00    +0.226 C 
ENDBRANCH  26  28
ENDBRANCH  20  26
BRANCH  25  29
ATOM     29  O   UNL     1       2.108  -1.513   3.350  0.00  0.00    -0.489 OA
BRANCH  29  30
ATOM     30  C   UNL     1       2.796  -2.127   4.442  0.00  0.00    +0.226 C 
ATOM     31  C   UNL     1       3.358  -1.043   5.365  0.00  0.00    +0.048 C 
ENDBRANCH  29  30
ENDBRANCH  25  29
ENDBRANCH  19  23
ENDBRANCH  18  19
ENDBRANCH   1  18
TORSDOF 7
