REMARK  Name = ZINC39694812
REMARK  10 active torsions:
REMARK  status: ('A' for Active; 'I' for Inactive)
REMARK    1  A    between atoms: C_1  and  C_2
REMARK    2  A    between atoms: C_4  and  C_36
REMARK    3  A    between atoms: C_6  and  C_8
REMARK    4  A    between atoms: C_8  and  N_9
REMARK    5  A    between atoms: C_10  and  C_12
REMARK    6  A    between atoms: C_23  and  C_25
REMARK    7  A    between atoms: C_29  and  O_32
REMARK    8  A    between atoms: C_30  and  C_31
REMARK    9  A    between atoms: O_32  and  C_33
REMARK   10  A    between atoms: C_33  and  C_35
REMARK                            x       y       z     vdW  Elec       q    Type
REMARK                         _______ _______ _______ _____ _____    ______ ____
ROOT
ATOM      1  C   UNL     1       3.470  -3.960   4.928  0.00  0.00    +0.100 C 
ATOM      2  C   UNL     1       4.038  -4.934   3.871  0.00  0.00    +0.121 C 
ATOM      3  N   UNL     1       4.975  -5.799   4.625  0.00  0.00    -0.296 N 
ATOM      4  C   UNL     1       4.294  -6.042   5.919  0.00  0.00    +0.115 C 
ATOM      5  C   UNL     1       3.639  -4.691   6.270  0.00  0.00    -0.004 C 
ATOM      6  C   UNL     1       4.548  -3.889   7.197  0.00  0.00    -0.010 C 
ATOM      7  C   UNL     1       4.655  -4.608   8.545  0.00  0.00    -0.082 C 
ATOM      8  N   UNL     1       3.318  -4.746   9.136  0.00  0.00    +0.379 N 
ATOM      9  C   UNL     1       2.478  -5.595   8.283  0.00  0.00    -0.082 C 
ATOM     10  C   UNL     1       2.280  -4.918   6.923  0.00  0.00    -0.010 C 
ATOM     11  C   UNL     1       6.177  -6.261   4.225  0.00  0.00    +0.247 C 
ATOM     12  O   UNL     1       6.791  -7.043   4.924  0.00  0.00    -0.270 OA
ATOM     13  H   UNL     1       3.398  -5.165  10.050  0.00  0.00    -0.086 HD
ATOM     14  H   UNL     1       2.895  -3.834   9.222  0.00  0.00    -0.086 HD
ENDROOT
BRANCH  11  15
ATOM     15  C   UNL     1       6.747  -5.816   2.935  0.00  0.00    +0.043 A 
ATOM     16  C   UNL     1       5.911  -5.590   1.840  0.00  0.00    +0.013 A 
ATOM     17  C   UNL     1       6.447  -5.176   0.638  0.00  0.00    +0.004 A 
ATOM     18  C   UNL     1       7.811  -4.982   0.514  0.00  0.00    +0.047 A 
ATOM     19  C   UNL     1       8.650  -5.205   1.597  0.00  0.00    +0.135 A 
ATOM     20  C   UNL     1       8.122  -5.616   2.810  0.00  0.00    +0.004 A 
ATOM     21  C   UNL     1       9.031  -5.853   3.988  0.00  0.00    +0.048 C 
BRANCH  19  22
ATOM     22  O   UNL     1       9.989  -5.013   1.469  0.00  0.00    -0.426 OA
BRANCH  22  23
ATOM     23  C   UNL     1      10.749  -6.072   1.147  0.00  0.00    +0.309 C 
ATOM     24  O   UNL     1      10.230  -7.132   0.888  0.00  0.00    -0.251 OA
ATOM     25  C   UNL     1      12.250  -5.938   1.107  0.00  0.00    +0.136 C 
ENDBRANCH  22  23
ENDBRANCH  19  22
ENDBRANCH  11  15
BRANCH   1  27
ATOM     26  N   UNL     1       1.460  -2.525   5.062  0.00  0.00    -0.311 N 
ATOM     27  C   UNL     1       2.012  -3.686   4.659  0.00  0.00    +0.218 C 
ATOM     28  O   UNL     1       1.337  -4.511   4.081  0.00  0.00    -0.275 OA
ATOM     29  H   UNL     1       2.000  -1.865   5.524  0.00  0.00    +0.149 HD
BRANCH  26  30
ATOM     30  C   UNL     1       0.043  -2.259   4.801  0.00  0.00    +0.139 C 
BRANCH  30  36
ATOM     31  C   UNL     1      -1.611   0.596   8.564  0.00  0.00    +0.044 C 
ATOM     32  C   UNL     1      -1.115   0.463   7.147  0.00  0.00    -0.050 A 
ATOM     33  C   UNL     1      -0.994   1.585   6.349  0.00  0.00    +0.006 A 
ATOM     34  C   UNL     1      -0.539   1.463   5.050  0.00  0.00    -0.050 A 
ATOM     35  C   UNL     1      -0.203   0.219   4.548  0.00  0.00    +0.008 A 
ATOM     36  C   UNL     1      -0.323  -0.903   5.347  0.00  0.00    -0.030 A 
ATOM     37  C   UNL     1      -0.774  -0.780   6.648  0.00  0.00    +0.008 A 
ATOM     38  C   UNL     1      -0.408   2.687   4.179  0.00  0.00    +0.044 C 
ENDBRANCH  30  36
ENDBRANCH  26  30
ENDBRANCH   1  27
TORSDOF 6
