REMARK  Name = ZINC06441942
REMARK  10 active torsions:
REMARK  status: ('A' for Active; 'I' for Inactive)
REMARK    1  A    between atoms: C_1  and  C_2
REMARK    2  A    between atoms: C_7  and  C_15
REMARK    3  A    between atoms: C_13  and  C_14
REMARK    4  A    between atoms: C_15  and  C_17
REMARK    5  A    between atoms: C_15  and  N_68
REMARK    6  A    between atoms: N_21  and  C_22
REMARK    7  A    between atoms: C_22  and  C_23
REMARK    8  A    between atoms: C_22  and  C_24
REMARK    9  A    between atoms: C_22  and  C_25
REMARK   10  A    between atoms: N_28  and  C_31
REMARK                            x       y       z     vdW  Elec       q    Type
REMARK                         _______ _______ _______ _____ _____    ______ ____
ROOT
ATOM      1  C   UNL     1      -0.099   1.052   0.044  0.00  0.00    +0.039 C 
ENDROOT
BRANCH   1   8
ATOM      2  C   UNL     1       7.296   3.923   0.879  0.00  0.00    +0.044 C 
ATOM      3  C   UNL     1       6.002   3.174   0.686  0.00  0.00    -0.046 A 
ATOM      4  C   UNL     1       6.030   1.809   0.432  0.00  0.00    +0.004 A 
ATOM      5  C   UNL     1       4.869   1.112   0.255  0.00  0.00    +0.010 A 
ATOM      6  C   UNL     1       3.641   1.778   0.329  0.00  0.00    -0.001 A 
ATOM      7  C   UNL     1       2.378   1.060   0.150  0.00  0.00    +0.017 A 
ATOM      8  C   UNL     1       1.219   1.760   0.228  0.00  0.00    +0.011 A 
ATOM      9  C   UNL     1       1.242   3.147   0.487  0.00  0.00    +0.251 A 
ATOM     10  O   UNL     1       0.188   3.756   0.558  0.00  0.00    -0.268 OA
ATOM     11  N   UNL     1       2.397   3.814   0.658  0.00  0.00    -0.322 N 
ATOM     12  H   UNL     1       2.377   4.767   0.835  0.00  0.00    +0.169 HD
ATOM     13  C   UNL     1       3.609   3.162   0.585  0.00  0.00    +0.052 A 
ATOM     14  C   UNL     1       4.804   3.851   0.762  0.00  0.00    -0.024 A 
ATOM     15  C   UNL     1       4.790   5.333   1.037  0.00  0.00    +0.046 C 
ENDBRANCH   1   8
BRANCH   1  21
ATOM     16  C   UNL     1      -0.286   0.889   2.453  0.00  0.00    -0.058 C 
ATOM     17  C   UNL     1      -1.176   1.237   3.648  0.00  0.00    +0.086 C 
ATOM     18  N   UNL     1      -2.473   0.561   3.504  0.00  0.00    -0.331 N 
ATOM     19  C   UNL     1      -3.143   0.973   2.262  0.00  0.00    +0.086 C 
ATOM     20  C   UNL     1      -2.252   0.625   1.066  0.00  0.00    -0.058 C 
ATOM     21  N   UNL     1      -0.961   1.328   1.213  0.00  0.00    +0.391 N 
ATOM     22  H   UNL     1      -1.136   2.339   1.268  0.00  0.00    -0.080 HD
BRANCH  18  23
ATOM     23  C   UNL     1      -3.288   0.798   4.615  0.00  0.00    +0.065 A 
ATOM     24  C   UNL     1      -4.532   0.187   4.708  0.00  0.00    +0.026 A 
ATOM     25  C   UNL     1      -5.333   0.420   5.809  0.00  0.00    +0.002 A 
ATOM     26  C   UNL     1      -4.904   1.267   6.814  0.00  0.00    +0.003 A 
ATOM     27  C   UNL     1      -3.668   1.882   6.723  0.00  0.00    +0.040 A 
ATOM     28  C   UNL     1      -2.859   1.651   5.626  0.00  0.00    +0.144 A 
ATOM     29  F   UNL     1      -1.652   2.252   5.537  0.00  0.00    -0.204 F 
ENDBRANCH  18  23
ENDBRANCH   1  21
BRANCH   1  30
ATOM     30  C   UNL     1      -0.779   1.571  -1.197  0.00  0.00    +0.143 A 
ATOM     31  N   UNL     1      -1.302   2.761  -1.364  0.00  0.00    -0.115 NA
ATOM     32  N   UNL     1      -1.783   2.820  -2.558  0.00  0.00    -0.023 NA
ATOM     33  N   UNL     1      -1.588   1.696  -3.154  0.00  0.00    -0.043 NA
ATOM     34  N   UNL     1      -0.971   0.899  -2.348  0.00  0.00    -0.225 N 
BRANCH  34  35
ATOM     35  C   UNL     1      -0.558  -0.477  -2.632  0.00  0.00    +0.059 C 
ATOM     36  C   UNL     1      -1.285  -1.434  -1.685  0.00  0.00    +0.036 C 
ATOM     37  C   UNL     1      -0.909  -0.827  -4.079  0.00  0.00    +0.036 C 
ATOM     38  C   UNL     1       0.953  -0.608  -2.429  0.00  0.00    +0.036 C 
ENDBRANCH  34  35
ENDBRANCH   1  30
TORSDOF 5
