REMARK  Name = ZINC36198323
REMARK  6 active torsions:
REMARK  status: ('A' for Active; 'I' for Inactive)
REMARK    1  A    between atoms: C_1  and  C_2
REMARK    2  A    between atoms: C_4  and  C_7
REMARK    3  A    between atoms: C_7  and  N_8
REMARK    4  A    between atoms: N_8  and  C_9
REMARK    5  A    between atoms: N_8  and  C_10
REMARK    6  A    between atoms: C_15  and  N_16
REMARK                            x       y       z     vdW  Elec       q    Type
REMARK                         _______ _______ _______ _____ _____    ______ ____
ROOT
ATOM      1  C   UNL     1      -2.770  -3.351  -2.144  0.00  0.00    +0.054 A 
ATOM      2  C   UNL     1      -2.621  -2.212  -2.919  0.00  0.00    +0.074 A 
ATOM      3  C   UNL     1      -3.687  -1.735  -3.668  0.00  0.00    +0.164 A 
ATOM      4  C   UNL     1      -4.906  -2.401  -3.643  0.00  0.00    +0.164 A 
ATOM      5  C   UNL     1      -5.057  -3.540  -2.866  0.00  0.00    +0.074 A 
ATOM      6  C   UNL     1      -3.992  -4.021  -2.121  0.00  0.00    +0.050 A 
ATOM      7  O   UNL     1      -5.961  -1.951  -4.379  0.00  0.00    -0.485 OA
ATOM      8  C   UNL     1      -5.887  -0.602  -4.852  0.00  0.00    +0.270 C 
ATOM      9  C   UNL     1      -4.492  -0.377  -5.449  0.00  0.00    +0.270 C 
ATOM     10  O   UNL     1      -3.522  -0.612  -4.421  0.00  0.00    -0.485 OA
ENDROOT
BRANCH   6  11
ATOM     11  N   UNL     1      -4.145  -5.176  -1.341  0.00  0.00    -0.356 N 
ATOM     12  H   UNL     1      -3.400  -5.509  -0.816  0.00  0.00    +0.142 HD
ATOM     13  H   UNL     1      -4.995  -5.642  -1.325  0.00  0.00    +0.142 HD
ENDBRANCH   6  11
BRANCH   1  14
ATOM     14  N   UNL     1      -1.691  -3.832  -1.387  0.00  0.00    -0.326 N 
ATOM     15  C   UNL     1      -0.756  -4.794  -1.975  0.00  0.00    +0.129 C 
BRANCH  14  16
ATOM     16  C   UNL     1      -1.500  -3.372  -0.010  0.00  0.00    +0.163 C 
BRANCH  16  20
ATOM     17  C   UNL     1      -0.018   1.503   0.010  0.00  0.00    +0.089 C 
ATOM     18  C   UNL     1       0.002  -0.004   0.002  0.00  0.00    +0.135 A 
ATOM     19  C   UNL     1      -1.077  -0.810   0.003  0.00  0.00    +0.072 A 
ATOM     20  C   UNL     1      -0.627  -2.143  -0.007  0.00  0.00    +0.101 A 
ATOM     21  N   UNL     1       0.676  -2.130  -0.013  0.00  0.00    -0.081 NA
ATOM     22  O   UNL     1       1.098  -0.778  -0.013  0.00  0.00    -0.360 OA
ENDBRANCH  16  20
ENDBRANCH  14  16
ENDBRANCH   1  14
TORSDOF 4
