REMARK  Name = ZINC09872610
REMARK  8 active torsions:
REMARK  status: ('A' for Active; 'I' for Inactive)
REMARK    1  A    between atoms: C_4  and  N_7
REMARK    2  A    between atoms: C_8  and  C_28
REMARK    3  A    between atoms: C_11  and  S_12
REMARK    4  A    between atoms: S_12  and  C_13
REMARK    5  A    between atoms: C_13  and  C_14
REMARK    6  A    between atoms: N_16  and  C_17
REMARK    7  A    between atoms: C_18  and  C_26
REMARK    8  A    between atoms: C_28  and  N_59
REMARK                            x       y       z     vdW  Elec       q    Type
REMARK                         _______ _______ _______ _____ _____    ______ ____
ROOT
ATOM      1  N   UNL     1      -3.774  11.012  -6.437  0.00  0.00    -0.276 N 
ATOM      2  C   UNL     1      -3.981  12.322  -6.096  0.00  0.00    +0.122 A 
ATOM      3  N   UNL     1      -3.749  12.431  -4.818  0.00  0.00    -0.135 NA
ATOM      4  N   UNL     1      -3.418  11.289  -4.329  0.00  0.00    -0.122 NA
ATOM      5  C   UNL     1      -3.411  10.382  -5.278  0.00  0.00    +0.197 A 
ENDROOT
BRANCH   1   9
ATOM      6  C   UNL     1      -4.173   9.301 -10.218  0.00  0.00    +0.000 A 
ATOM      7  C   UNL     1      -5.017   8.915  -9.194  0.00  0.00    +0.002 A 
ATOM      8  C   UNL     1      -4.888   9.480  -7.940  0.00  0.00    +0.026 A 
ATOM      9  C   UNL     1      -3.908  10.436  -7.709  0.00  0.00    +0.050 A 
ATOM     10  C   UNL     1      -3.065  10.825  -8.741  0.00  0.00    +0.026 A 
ATOM     11  C   UNL     1      -3.196  10.253  -9.991  0.00  0.00    +0.002 A 
ENDBRANCH   1   9
BRANCH   5  12
ATOM     12  S   UNL     1      -3.016   8.675  -5.093  0.00  0.00    -0.076 S 
BRANCH  12  13
ATOM     13  C   UNL     1      -2.653   8.627  -3.320  0.00  0.00    +0.173 C 
BRANCH  13  14
ATOM     14  C   UNL     1      -2.279   7.222  -2.922  0.00  0.00    +0.228 C 
ATOM     15  O   UNL     1      -2.260   6.341  -3.755  0.00  0.00    -0.275 OA
ATOM     16  N   UNL     1      -1.965   6.946  -1.641  0.00  0.00    -0.278 N 
ATOM     17  H   UNL     1      -1.980   7.652  -0.975  0.00  0.00    +0.155 HD
BRANCH  16  18
ATOM     18  C   UNL     1      -1.621   5.653  -1.274  0.00  0.00    +0.090 A 
ATOM     19  C   UNL     1      -1.271   5.177  -0.019  0.00  0.00    +0.084 A 
ATOM     20  C   UNL     1      -0.951   3.765   0.100  0.00  0.00    -0.018 A 
ATOM     21  C   UNL     1      -1.032   3.059  -1.049  0.00  0.00    -0.004 A 
ATOM     22  S   UNL     1      -1.524   4.240  -2.273  0.00  0.00    -0.077 S 
ATOM     23  C   UNL     1      -0.761   1.597  -1.232  0.00  0.00    +0.043 C 
ATOM     24  C   UNL     1      -0.013   1.086   0.008  0.00  0.00    +0.005 C 
ATOM     25  C   UNL     1      -0.735   1.583   1.264  0.00  0.00    +0.005 C 
ATOM     26  C   UNL     1      -0.551   3.094   1.407  0.00  0.00    +0.037 C 
BRANCH  19  27
ATOM     27  C   UNL     1      -1.226   6.046   1.118  0.00  0.00    +0.102 C 
ATOM     28  N   UNL     1      -1.191   6.736   2.020  0.00  0.00    -0.191 NA
ENDBRANCH  19  27
ENDBRANCH  16  18
ENDBRANCH  13  14
ENDBRANCH  12  13
ENDBRANCH   5  12
BRANCH   2  29
ATOM     29  C   UNL     1      -4.400  13.432  -7.025  0.00  0.00    -0.001 C 
BRANCH  29  34
ATOM     30  C   UNL     1      -6.428  13.613  -5.689  0.00  0.00    -0.078 C 
ATOM     31  C   UNL     1      -7.839  14.206  -5.926  0.00  0.00    -0.020 C 
ATOM     32  C   UNL     1      -7.604  15.209  -7.079  0.00  0.00    -0.020 C 
ATOM     33  C   UNL     1      -6.312  14.733  -7.769  0.00  0.00    -0.078 C 
ATOM     34  N   UNL     1      -5.891  13.526  -7.056  0.00  0.00    +0.384 N 
ATOM     35  H   UNL     1      -6.271  12.696  -7.526  0.00  0.00    -0.081 HD
ENDBRANCH  29  34
ENDBRANCH   2  29
TORSDOF 8
