REMARK  Name = ZINC35796608
REMARK  12 active torsions:
REMARK  status: ('A' for Active; 'I' for Inactive)
REMARK    1  A    between atoms: C_1  and  C_2
REMARK    2  A    between atoms: C_2  and  C_3
REMARK    3  A    between atoms: C_3  and  C_5
REMARK    4  A    between atoms: C_3  and  N_6
REMARK    5  A    between atoms: C_7  and  C_9
REMARK    6  A    between atoms: C_12  and  C_14
REMARK    7  A    between atoms: C_14  and  N_15
REMARK    8  A    between atoms: C_18  and  C_26
REMARK    9  A    between atoms: C_26  and  C_28
REMARK   10  A    between atoms: C_28  and  O_29
REMARK   11  A    between atoms: O_29  and  C_30
REMARK   12  A    between atoms: C_35  and  C_36
REMARK                            x       y       z     vdW  Elec       q    Type
REMARK                         _______ _______ _______ _____ _____    ______ ____
ROOT
ATOM      1  N   UNL     1      -3.917   2.689   6.223  0.00  0.00    -0.256 N 
ATOM      2  C   UNL     1      -2.647   3.268   6.083  0.00  0.00    +0.079 A 
ATOM      3  C   UNL     1      -1.607   2.554   5.526  0.00  0.00    +0.038 A 
ATOM      4  C   UNL     1      -0.346   3.151   5.396  0.00  0.00    +0.023 A 
ATOM      5  C   UNL     1      -0.151   4.468   5.832  0.00  0.00    +0.015 A 
ATOM      6  C   UNL     1      -1.196   5.173   6.386  0.00  0.00    +0.048 A 
ATOM      7  C   UNL     1      -2.445   4.582   6.514  0.00  0.00    +0.143 A 
ATOM      8  O   UNL     1      -3.482   5.272   7.057  0.00  0.00    -0.481 OA
ATOM      9  C   UNL     1      -4.785   4.982   6.546  0.00  0.00    +0.325 C 
ATOM     10  C   UNL     1      -4.979   3.489   6.462  0.00  0.00    +0.258 C 
ATOM     11  O   UNL     1      -6.082   3.009   6.612  0.00  0.00    -0.271 OA
ENDROOT
BRANCH   4  12
ATOM     12  C   UNL     1       0.768   2.398   4.806  0.00  0.00    +0.200 C 
ATOM     13  O   UNL     1       0.598   1.258   4.429  0.00  0.00    -0.288 OA
BRANCH  12  14
ATOM     14  C   UNL     1       2.123   3.043   4.667  0.00  0.00    +0.308 C 
BRANCH  14  15
ATOM     15  O   UNL     1       3.032   2.117   4.069  0.00  0.00    -0.484 OA
BRANCH  15  16
ATOM     16  C   UNL     1       4.308   2.544   3.872  0.00  0.00    +0.124 A 
ATOM     17  C   UNL     1       4.677   3.826   4.251  0.00  0.00    +0.049 A 
ATOM     18  C   UNL     1       5.973   4.259   4.050  0.00  0.00    +0.042 A 
ATOM     19  C   UNL     1       6.904   3.413   3.470  0.00  0.00    +0.124 A 
ATOM     20  C   UNL     1       6.537   2.134   3.090  0.00  0.00    +0.045 A 
ATOM     21  C   UNL     1       5.242   1.696   3.295  0.00  0.00    -0.006 A 
ATOM     22  C   UNL     1       4.844   0.301   2.888  0.00  0.00    +0.047 C 
ATOM     23  F   UNL     1       8.171   3.838   3.273  0.00  0.00    -0.205 F 
ENDBRANCH  15  16
ENDBRANCH  14  15
ENDBRANCH  12  14
ENDBRANCH   4  12
BRANCH   1  24
ATOM     24  C   UNL     1      -4.090   1.239   6.106  0.00  0.00    +0.209 C 
BRANCH  24  28
ATOM     25  C   UNL     1      -4.076   0.321   2.602  0.00  0.00    +0.164 A 
ATOM     26  C   UNL     1      -5.413   0.462   2.813  0.00  0.00    +0.230 A 
ATOM     27  O   UNL     1      -5.572   0.809   4.100  0.00  0.00    -0.445 OA
ATOM     28  C   UNL     1      -4.360   0.879   4.668  0.00  0.00    +0.214 A 
ATOM     29  N   UNL     1      -3.455   0.584   3.784  0.00  0.00    -0.207 NA
BRANCH  25  31
ATOM     30  N   UNL     1      -2.082  -0.162   1.273  0.00  0.00    -0.307 N 
ATOM     31  C   UNL     1      -3.424  -0.053   1.334  0.00  0.00    +0.266 C 
ATOM     32  O   UNL     1      -4.096  -0.264   0.343  0.00  0.00    -0.268 OA
ATOM     33  H   UNL     1      -1.545   0.006   2.063  0.00  0.00    +0.149 HD
BRANCH  30  34
ATOM     34  C   UNL     1      -1.433  -0.534   0.013  0.00  0.00    +0.070 C 
ATOM     35  C   UNL     1      -1.416  -2.058  -0.121  0.00  0.00    +0.028 C 
BRANCH  34  37
ATOM     36  C   UNL     1      -0.019   1.526   0.010  0.00  0.00    +0.005 C 
ATOM     37  C   UNL     1       0.002  -0.004   0.002  0.00  0.00    +0.018 C 
ENDBRANCH  34  37
ENDBRANCH  30  34
ENDBRANCH  25  31
ENDBRANCH  24  28
ENDBRANCH   1  24
TORSDOF 9
