REMARK  Name = ZINC07194801
REMARK  14 active torsions:
REMARK  status: ('A' for Active; 'I' for Inactive)
REMARK    1  A    between atoms: C_1  and  C_2
REMARK    2  A    between atoms: C_2  and  C_25
REMARK    3  A    between atoms: N_5  and  C_9
REMARK    4  A    between atoms: C_9  and  C_10
REMARK    5  A    between atoms: C_10  and  C_12
REMARK    6  A    between atoms: C_10  and  O_24
REMARK    7  A    between atoms: C_12  and  O_13
REMARK    8  A    between atoms: O_13  and  C_14
REMARK    9  A    between atoms: C_17  and  C_20
REMARK   10  A    between atoms: C_20  and  C_21
REMARK   11  A    between atoms: C_20  and  C_22
REMARK   12  A    between atoms: C_20  and  C_23
REMARK   13  A    between atoms: C_28  and  O_31
REMARK   14  A    between atoms: O_31  and  C_32
REMARK                            x       y       z     vdW  Elec       q    Type
REMARK                         _______ _______ _______ _____ _____    ______ ____
ROOT
ATOM      1  C   UNL     1      -1.623   1.141   6.881  0.00  0.00    +0.047 C 
ATOM      2  C   UNL     1      -1.954   1.812   5.547  0.00  0.00    +0.135 C 
ATOM      3  C   UNL     1      -1.524   0.934   4.388  0.00  0.00    +0.251 C 
ATOM      4  O   UNL     1      -1.924  -0.180   4.126  0.00  0.00    -0.272 OA
ATOM      5  N   UNL     1      -0.607   1.651   3.708  0.00  0.00    -0.221 N 
ATOM      6  C   UNL     1      -0.396   2.845   4.274  0.00  0.00    +0.310 C 
ATOM      7  O   UNL     1       0.390   3.666   3.845  0.00  0.00    -0.252 OA
ATOM      8  N   UNL     1      -1.153   3.036   5.369  0.00  0.00    -0.281 N 
ATOM      9  H   UNL     1      -1.168   3.825   5.934  0.00  0.00    +0.152 HD
ENDROOT
BRANCH   2  10
ATOM     10  C   UNL     1      -3.426   2.123   5.459  0.00  0.00    -0.015 A 
ATOM     11  C   UNL     1      -4.288   1.219   4.868  0.00  0.00    +0.010 A 
ATOM     12  C   UNL     1      -5.639   1.500   4.791  0.00  0.00    +0.046 A 
ATOM     13  C   UNL     1      -6.128   2.696   5.297  0.00  0.00    +0.120 A 
ATOM     14  C   UNL     1      -5.259   3.604   5.885  0.00  0.00    +0.046 A 
ATOM     15  C   UNL     1      -3.910   3.316   5.965  0.00  0.00    +0.010 A 
BRANCH  13  16
ATOM     16  O   UNL     1      -7.455   2.977   5.217  0.00  0.00    -0.495 OA
ATOM     17  C   UNL     1      -8.290   1.996   4.599  0.00  0.00    +0.277 C 
ENDBRANCH  13  16
ENDBRANCH   2  10
BRANCH   5  18
ATOM     18  C   UNL     1       0.079   1.179   2.503  0.00  0.00    +0.152 C 
BRANCH  18  19
ATOM     19  C   UNL     1      -0.729   1.579   1.267  0.00  0.00    +0.170 C 
BRANCH  19  20
ATOM     20  O   UNL     1      -2.030   0.991   1.336  0.00  0.00    -0.387 OA
ATOM     21  H   UNL     1      -2.023   0.025   1.372  0.00  0.00    +0.210 HD
ENDBRANCH  19  20
BRANCH  19  22
ATOM     22  C   UNL     1      -0.013   1.086   0.008  0.00  0.00    +0.261 C 
BRANCH  22  23
ATOM     23  O   UNL     1      -0.704   1.559  -1.150  0.00  0.00    -0.489 OA
BRANCH  23  24
ATOM     24  C   UNL     1      -0.194   1.208  -2.359  0.00  0.00    +0.121 A 
ATOM     25  C   UNL     1       0.951   0.428  -2.431  0.00  0.00    +0.046 A 
ATOM     26  C   UNL     1       1.464   0.067  -3.662  0.00  0.00    +0.008 A 
ATOM     27  C   UNL     1       0.844   0.492  -4.822  0.00  0.00    -0.042 A 
ATOM     28  C   UNL     1      -0.294   1.274  -4.753  0.00  0.00    +0.008 A 
ATOM     29  C   UNL     1      -0.815   1.633  -3.525  0.00  0.00    +0.046 A 
BRANCH  27  30
ATOM     30  C   UNL     1       1.409   0.102  -6.163  0.00  0.00    -0.013 C 
ATOM     31  C   UNL     1       1.778   1.363  -6.947  0.00  0.00    +0.015 C 
ATOM     32  C   UNL     1       2.659  -0.757  -5.960  0.00  0.00    +0.015 C 
ATOM     33  C   UNL     1       0.364  -0.697  -6.945  0.00  0.00    +0.015 C 
ENDBRANCH  27  30
ENDBRANCH  23  24
ENDBRANCH  22  23
ENDBRANCH  19  22
ENDBRANCH  18  19
ENDBRANCH   5  18
TORSDOF 9
