REMARK  Name = ZINC12972609
REMARK  6 active torsions:
REMARK  status: ('A' for Active; 'I' for Inactive)
REMARK    1  A    between atoms: C_4  and  C_7
REMARK    2  A    between atoms: C_7  and  C_9
REMARK    3  A    between atoms: C_7  and  S_15
REMARK    4  A    between atoms: N_11  and  C_12
REMARK    5  A    between atoms: S_15  and  C_16
REMARK    6  A    between atoms: N_26  and  C_27
REMARK                            x       y       z     vdW  Elec       q    Type
REMARK                         _______ _______ _______ _____ _____    ______ ____
ROOT
ATOM      1  C   UNL     1       3.835   1.968   2.699  0.00  0.00    +0.178 A 
ATOM      2  N   UNL     1       3.804   0.713   2.325  0.00  0.00    -0.223 NA
ATOM      3  C   UNL     1       3.851  -0.293   3.221  0.00  0.00    +0.079 A 
ATOM      4  C   UNL     1       3.818  -1.632   2.822  0.00  0.00    +0.028 A 
ATOM      5  C   UNL     1       3.868  -2.621   3.764  0.00  0.00    +0.002 A 
ATOM      6  C   UNL     1       3.952  -2.315   5.116  0.00  0.00    +0.001 A 
ATOM      7  C   UNL     1       3.986  -1.015   5.538  0.00  0.00    +0.015 A 
ATOM      8  C   UNL     1       3.937   0.014   4.599  0.00  0.00    +0.065 A 
ATOM      9  C   UNL     1       3.970   1.428   4.994  0.00  0.00    +0.267 A 
ATOM     10  O   UNL     1       4.043   1.755   6.164  0.00  0.00    -0.267 OA
ATOM     11  N   UNL     1       3.922   2.354   4.008  0.00  0.00    -0.253 N 
ENDROOT
BRANCH  11  12
ATOM     12  C   UNL     1       3.957   3.717   4.331  0.00  0.00    +0.087 A 
ATOM     13  C   UNL     1       2.775   4.408   4.562  0.00  0.00    +0.029 A 
ATOM     14  C   UNL     1       2.812   5.751   4.885  0.00  0.00    +0.002 A 
ATOM     15  C   UNL     1       4.025   6.411   4.968  0.00  0.00    +0.003 A 
ATOM     16  C   UNL     1       5.205   5.729   4.734  0.00  0.00    +0.040 A 
ATOM     17  C   UNL     1       5.175   4.383   4.415  0.00  0.00    +0.147 A 
ATOM     18  F   UNL     1       6.327   3.716   4.186  0.00  0.00    -0.203 F 
ENDBRANCH  11  12
BRANCH   1  19
ATOM     19  S   UNL     1       3.768   3.217   1.458  0.00  0.00    -0.070 S 
BRANCH  19  20
ATOM     20  C   UNL     1       3.672   2.182  -0.024  0.00  0.00    +0.170 C 
BRANCH  20  24
ATOM     21  C   UNL     1       0.002  -0.004   0.002  0.00  0.00    +0.000 A 
ATOM     22  C   UNL     1      -0.017   1.378   0.010  0.00  0.00    +0.000 A 
ATOM     23  C   UNL     1       1.171   2.086   0.002  0.00  0.00    +0.005 A 
ATOM     24  C   UNL     1       2.377   1.411  -0.015  0.00  0.00    -0.025 A 
ATOM     25  C   UNL     1       2.396   0.029  -0.022  0.00  0.00    +0.005 A 
ATOM     26  C   UNL     1       1.208  -0.679  -0.013  0.00  0.00    +0.000 A 
ENDBRANCH  20  24
BRANCH  20  27
ATOM     27  C   UNL     1       3.728   3.055  -1.251  0.00  0.00    +0.231 C 
ATOM     28  O   UNL     1       3.461   4.235  -1.168  0.00  0.00    -0.274 OA
ATOM     29  N   UNL     1       4.074   2.525  -2.441  0.00  0.00    -0.311 N 
ATOM     30  H   UNL     1       4.288   1.581  -2.507  0.00  0.00    +0.149 HD
BRANCH  29  31
ATOM     31  C   UNL     1       4.129   3.373  -3.634  0.00  0.00    +0.073 C 
ATOM     32  C   UNL     1       3.526   2.817  -4.925  0.00  0.00    +0.024 C 
ATOM     33  C   UNL     1       5.045   2.929  -4.776  0.00  0.00    +0.024 C 
ENDBRANCH  29  31
ENDBRANCH  20  27
ENDBRANCH  19  20
ENDBRANCH   1  19
TORSDOF 6
