REMARK  Name = ZINC63258906
REMARK  9 active torsions:
REMARK  status: ('A' for Active; 'I' for Inactive)
REMARK    1  A    between atoms: C_7  and  C_10
REMARK    2  A    between atoms: C_10  and  C_11
REMARK    3  A    between atoms: C_11  and  C_13
REMARK    4  A    between atoms: C_11  and  N_26
REMARK    5  A    between atoms: C_13  and  O_15
REMARK    6  A    between atoms: O_15  and  C_16
REMARK    7  A    between atoms: C_16  and  C_17
REMARK    8  A    between atoms: C_17  and  C_19
REMARK    9  A    between atoms: C_27  and  C_29
REMARK                            x       y       z     vdW  Elec       q    Type
REMARK                         _______ _______ _______ _____ _____    ______ ____
ROOT
ATOM      1  C   UNL     1       0.457  -3.653  -1.462  0.00  0.00    +0.186 C 
ENDROOT
BRANCH   1   2
ATOM      2  N   UNL     1      -0.238  -2.603  -2.210  0.00  0.00    -0.298 N 
ATOM      3  C   UNL     1      -1.451  -2.176  -1.805  0.00  0.00    +0.251 C 
ATOM      4  O   UNL     1      -1.969  -2.664  -0.818  0.00  0.00    -0.270 OA
ATOM      5  H   UNL     1       0.175  -2.214  -2.997  0.00  0.00    +0.150 HD
BRANCH   3   6
ATOM      6  C   UNL     1      -2.146  -1.125  -2.554  0.00  0.00    +0.074 A 
ATOM      7  C   UNL     1      -3.381  -0.547  -2.306  0.00  0.00    +0.021 A 
ATOM      8  C   UNL     1      -3.774   0.426  -3.193  0.00  0.00    +0.008 A 
ATOM      9  C   UNL     1      -2.953   0.749  -4.223  0.00  0.00    +0.046 A 
ATOM     10  S   UNL     1      -1.619  -0.252  -4.016  0.00  0.00    -0.092 S 
ENDBRANCH   3   6
ENDBRANCH   1   2
BRANCH   1  11
ATOM     11  C   UNL     1      -0.385  -4.904  -1.452  0.00  0.00    +0.328 C 
ATOM     12  O   UNL     1      -1.570  -4.836  -1.678  0.00  0.00    -0.249 OA
BRANCH  11  13
ATOM     13  O   UNL     1       0.182  -6.092  -1.194  0.00  0.00    -0.455 OA
BRANCH  13  14
ATOM     14  C   UNL     1      -0.675  -7.236  -1.201  0.00  0.00    +0.311 C 
BRANCH  14  15
ATOM     15  C   UNL     1       0.132  -8.470  -0.892  0.00  0.00    +0.201 C 
ATOM     16  O   UNL     1       1.324  -8.380  -0.686  0.00  0.00    -0.288 OA
BRANCH  15  17
ATOM     17  C   UNL     1      -0.526  -9.785  -0.841  0.00  0.00    +0.035 A 
ATOM     18  C   UNL     1      -1.899  -9.894  -1.084  0.00  0.00    +0.012 A 
ATOM     19  C   UNL     1      -2.508 -11.130  -1.035  0.00  0.00    +0.001 A 
ATOM     20  C   UNL     1      -1.765 -12.261  -0.745  0.00  0.00    +0.001 A 
ATOM     21  C   UNL     1      -0.407 -12.163  -0.503  0.00  0.00    +0.016 A 
ATOM     22  C   UNL     1       0.220 -10.934  -0.555  0.00  0.00    +0.028 A 
ATOM     23 BR   UNL     1       2.078 -10.803  -0.232  0.00  0.00    -0.050 Br
ENDBRANCH  15  17
ENDBRANCH  14  15
ENDBRANCH  13  14
ENDBRANCH  11  13
ENDBRANCH   1  11
BRANCH   1  24
ATOM     24  C   UNL     1       0.691  -3.186  -0.024  0.00  0.00    +0.067 C 
BRANCH  24  31
ATOM     25  C   UNL     1      -0.016   1.348   0.009  0.00  0.00    +0.001 A 
ATOM     26  C   UNL     1       1.166   2.101   0.002  0.00  0.00    +0.002 A 
ATOM     27  C   UNL     1       2.391   1.535  -0.013  0.00  0.00    +0.026 A 
ATOM     28  C   UNL     1       2.529   0.120  -0.022  0.00  0.00    +0.043 A 
ATOM     29  N   UNL     1       3.587  -0.654  -0.037  0.00  0.00    -0.380 N 
ATOM     30  C   UNL     1       3.143  -2.053  -0.041  0.00  0.00    +0.144 C 
ATOM     31  C   UNL     1       1.631  -2.008  -0.025  0.00  0.00    -0.039 C 
ATOM     32  C   UNL     1       1.295  -0.698  -0.014  0.00  0.00    -0.001 A 
ATOM     33  C   UNL     1       0.002  -0.004   0.002  0.00  0.00    +0.010 A 
ATOM     34  H   UNL     1       4.509  -0.353  -0.045  0.00  0.00    +0.160 HD
ENDBRANCH  24  31
ENDBRANCH   1  24
TORSDOF 9
