REMARK  Name = ZINC12832872
REMARK  9 active torsions:
REMARK  status: ('A' for Active; 'I' for Inactive)
REMARK    1  A    between atoms: C_1  and  C_2
REMARK    2  A    between atoms: C_12  and  C_14
REMARK    3  A    between atoms: C_14  and  N_63
REMARK    4  A    between atoms: C_15  and  C_16
REMARK    5  A    between atoms: C_15  and  N_63
REMARK    6  A    between atoms: C_16  and  C_17
REMARK    7  A    between atoms: C_23  and  C_24
REMARK    8  A    between atoms: C_23  and  N_63
REMARK    9  A    between atoms: N_28  and  C_29
REMARK                            x       y       z     vdW  Elec       q    Type
REMARK                         _______ _______ _______ _____ _____    ______ ____
ROOT
ATOM      1  N   UNL     1      -2.858   3.924  -1.217  0.00  0.00    +0.387 N 
ATOM      2  H   UNL     1      -2.105   4.304  -1.802  0.00  0.00    -0.081 HD
ENDROOT
BRANCH   1   3
ATOM      3  C   UNL     1      -2.287   3.484   0.073  0.00  0.00    -0.037 C 
BRANCH   3  15
ATOM      4  C   UNL     1       1.785  -1.522  -1.183  0.00  0.00    +0.046 C 
ATOM      5  C   UNL     1       2.050  -0.055  -0.961  0.00  0.00    -0.026 A 
ATOM      6  C   UNL     1       3.339   0.430  -1.008  0.00  0.00    +0.005 A 
ATOM      7  C   UNL     1       3.596   1.779  -0.806  0.00  0.00    +0.001 A 
ATOM      8  C   UNL     1       2.575   2.652  -0.556  0.00  0.00    +0.010 A 
ATOM      9  C   UNL     1       1.259   2.182  -0.503  0.00  0.00    -0.001 A 
ATOM     10  C   UNL     1       0.994   0.815  -0.708  0.00  0.00    +0.052 A 
ATOM     11  N   UNL     1      -0.305   0.357  -0.655  0.00  0.00    -0.322 N 
ATOM     12  H   UNL     1      -0.486  -0.586  -0.797  0.00  0.00    +0.169 HD
ATOM     13  C   UNL     1      -1.326   1.199  -0.416  0.00  0.00    +0.251 A 
ATOM     14  O   UNL     1      -2.462   0.760  -0.382  0.00  0.00    -0.268 OA
ATOM     15  C   UNL     1      -1.114   2.577  -0.198  0.00  0.00    +0.001 A 
ATOM     16  C   UNL     1       0.141   3.090  -0.238  0.00  0.00    +0.017 A 
ENDBRANCH   3  15
ENDBRANCH   1   3
BRANCH   1  17
ATOM     17  C   UNL     1      -3.474   2.776  -1.915  0.00  0.00    -0.073 C 
BRANCH  17  18
ATOM     18  C   UNL     1      -3.912   3.222  -3.311  0.00  0.00    +0.016 C 
BRANCH  18  19
ATOM     19  C   UNL     1      -4.398   2.028  -4.091  0.00  0.00    -0.049 A 
ATOM     20  C   UNL     1      -3.532   1.351  -4.929  0.00  0.00    +0.003 A 
ATOM     21  C   UNL     1      -3.977   0.253  -5.641  0.00  0.00    +0.000 A 
ATOM     22  C   UNL     1      -5.290  -0.163  -5.522  0.00  0.00    +0.000 A 
ATOM     23  C   UNL     1      -6.157   0.518  -4.689  0.00  0.00    +0.000 A 
ATOM     24  C   UNL     1      -5.711   1.613  -3.973  0.00  0.00    +0.003 A 
ENDBRANCH  18  19
ENDBRANCH  17  18
ENDBRANCH   1  17
BRANCH   1  25
ATOM     25  C   UNL     1      -3.868   4.978  -0.989  0.00  0.00    +0.001 C 
BRANCH  25  26
ATOM     26  C   UNL     1      -3.157   6.282  -0.736  0.00  0.00    +0.135 A 
ATOM     27  N   UNL     1      -2.764   6.747   0.424  0.00  0.00    -0.115 NA
ATOM     28  N   UNL     1      -2.195   7.886   0.225  0.00  0.00    -0.023 NA
ATOM     29  N   UNL     1      -2.221   8.162  -1.032  0.00  0.00    -0.044 NA
ATOM     30  N   UNL     1      -2.806   7.198  -1.658  0.00  0.00    -0.228 N 
BRANCH  30  31
ATOM     31  C   UNL     1      -3.044   7.115  -3.102  0.00  0.00    +0.111 C 
ATOM     32  C   UNL     1      -1.700   7.112  -3.859  0.00  0.00    +0.027 C 
ATOM     33  C   UNL     1      -1.982   7.945  -5.135  0.00  0.00    +0.002 C 
ATOM     34  C   UNL     1      -2.916   9.065  -4.613  0.00  0.00    +0.002 C 
ATOM     35  C   UNL     1      -3.817   8.356  -3.581  0.00  0.00    +0.027 C 
ENDBRANCH  30  31
ENDBRANCH  25  26
ENDBRANCH   1  25
TORSDOF 8
