REMARK  Name = ZINC39452541
REMARK  5 active torsions:
REMARK  status: ('A' for Active; 'I' for Inactive)
REMARK    1  A    between atoms: C_1  and  C_2
REMARK    2  A    between atoms: C_2  and  O_3
REMARK    3  A    between atoms: O_3  and  C_4
REMARK    4  A    between atoms: C_23  and  C_26
REMARK    5  A    between atoms: C_26  and  C_27
REMARK                            x       y       z     vdW  Elec       q    Type
REMARK                         _______ _______ _______ _____ _____    ______ ____
ROOT
ATOM      1  C   UNL     1       0.802  -1.822   1.306  0.00  0.00    +0.130 A 
ATOM      2  C   UNL     1       0.266  -2.672   0.362  0.00  0.00    +0.046 A 
ATOM      3  C   UNL     1       0.367  -4.052   0.493  0.00  0.00    +0.006 A 
ATOM      4  C   UNL     1       0.995  -4.630   1.553  0.00  0.00    +0.028 A 
ATOM      5  C   UNL     1       1.565  -3.824   2.554  0.00  0.00    +0.075 A 
ATOM      6  C   UNL     1       1.469  -2.368   2.421  0.00  0.00    +0.043 A 
ATOM      7  C   UNL     1       2.041  -1.556   3.410  0.00  0.00    +0.029 A 
ATOM      8  C   UNL     1       2.677  -2.183   4.473  0.00  0.00    +0.069 A 
ATOM      9  C   UNL     1       2.736  -3.600   4.538  0.00  0.00    +0.100 A 
ATOM     10  N   UNL     1       2.185  -4.357   3.607  0.00  0.00    -0.244 NA
ATOM     11  C   UNL     1       3.420  -4.211   5.692  0.00  0.00    +0.082 A 
ATOM     12  C   UNL     1       3.982  -3.406   6.663  0.00  0.00    +0.127 A 
ATOM     13  N   UNL     1       3.910  -2.020   6.574  0.00  0.00    -0.213 N 
ATOM     14  C   UNL     1       3.300  -1.398   5.550  0.00  0.00    +0.276 A 
ATOM     15  O   UNL     1       3.264  -0.182   5.514  0.00  0.00    -0.266 OA
ATOM     16 CL   UNL     1       4.621  -1.075   7.809  0.00  0.00    +0.022 Cl
ATOM     17  C   UNL     1       4.646  -3.994   7.764  0.00  0.00    +0.184 C 
ATOM     18  O   UNL     1       5.097  -3.286   8.642  0.00  0.00    -0.290 OA
ATOM     19  C   UNL     1       4.799  -5.489   7.860  0.00  0.00    +0.103 C 
ATOM     20  C   UNL     1       3.620  -6.167   7.152  0.00  0.00    +0.082 C 
ATOM     21  N   UNL     1       3.496  -5.585   5.806  0.00  0.00    -0.337 N 
ATOM     22  H   UNL     1       3.468  -6.152   5.019  0.00  0.00    +0.146 HD
ENDROOT
BRANCH   1  23
ATOM     23  O   UNL     1       0.693  -0.477   1.160  0.00  0.00    -0.492 OA
BRANCH  23  25
ATOM     24  C   UNL     1      -0.019   1.526   0.010  0.00  0.00    +0.048 C 
ATOM     25  C   UNL     1       0.002  -0.004   0.002  0.00  0.00    +0.226 C 
ENDBRANCH  23  25
ENDBRANCH   1  23
BRANCH  20  26
ATOM     26  C   UNL     1       2.333  -5.922   7.942  0.00  0.00    +0.057 C 
BRANCH  26  27
ATOM     27  C   UNL     1       1.202  -6.691   7.310  0.00  0.00    -0.046 A 
ATOM     28  C   UNL     1       0.437  -6.106   6.318  0.00  0.00    +0.004 A 
ATOM     29  C   UNL     1      -0.601  -6.811   5.739  0.00  0.00    +0.000 A 
ATOM     30  C   UNL     1      -0.874  -8.102   6.150  0.00  0.00    +0.000 A 
ATOM     31  C   UNL     1      -0.108  -8.688   7.141  0.00  0.00    +0.000 A 
ATOM     32  C   UNL     1       0.932  -7.984   7.717  0.00  0.00    +0.004 A 
ENDBRANCH  26  27
ENDBRANCH  20  26
TORSDOF 4
