REMARK  Name = ZINC40824287
REMARK  4 active torsions:
REMARK  status: ('A' for Active; 'I' for Inactive)
REMARK    1  A    between atoms: C_1  and  C_2
REMARK    2  A    between atoms: C_6  and  C_7
REMARK    3  A    between atoms: C_14  and  C_16
REMARK    4  A    between atoms: N_21  and  N_22
REMARK                            x       y       z     vdW  Elec       q    Type
REMARK                         _______ _______ _______ _____ _____    ______ ____
ROOT
ATOM      1  C   UNL     1       0.130   1.486  -0.005  0.00  0.00    +0.048 C 
ATOM      2  C   UNL     1      -0.209   0.017  -0.000  0.00  0.00    +0.009 A 
ATOM      3  C   UNL     1      -0.455  -0.792  -1.116  0.00  0.00    +0.042 A 
ATOM      4  C   UNL     1      -0.725  -2.059  -0.655  0.00  0.00    +0.115 A 
ATOM      5  O   UNL     1      -0.649  -2.038   0.674  0.00  0.00    -0.454 OA
ATOM      6  C   UNL     1      -0.333  -0.792   1.094  0.00  0.00    +0.193 A 
ATOM      7  C   UNL     1      -1.046  -3.214  -1.570  0.00  0.00    +0.075 C 
ATOM      8  C   UNL     1      -1.519  -2.675  -2.923  0.00  0.00    +0.014 C 
ATOM      9  C   UNL     1      -0.505  -1.675  -3.490  0.00  0.00    +0.058 C 
ATOM     10  C   UNL     1      -0.452  -0.471  -2.561  0.00  0.00    +0.070 C 
ATOM     11  N   UNL     1      -0.409   0.748  -3.002  0.00  0.00    -0.183 NA
ENDROOT
BRANCH   6  12
ATOM     12  C   UNL     1      -0.156  -0.379   2.491  0.00  0.00    +0.282 C 
ATOM     13  O   UNL     1      -0.011   0.799   2.763  0.00  0.00    -0.267 OA
ATOM     14  N   UNL     1      -0.155  -1.302   3.473  0.00  0.00    -0.292 N 
ATOM     15  C   UNL     1      -0.151  -2.736   3.151  0.00  0.00    +0.108 C 
ATOM     16  C   UNL     1       1.017  -3.402   3.884  0.00  0.00    +0.019 C 
ATOM     17  C   UNL     1       0.919  -3.094   5.380  0.00  0.00    +0.003 C 
ATOM     18  C   UNL     1       1.012  -1.582   5.597  0.00  0.00    +0.022 C 
ATOM     19  C   UNL     1      -0.150  -0.894   4.884  0.00  0.00    +0.073 C 
ATOM     20  C   UNL     1       0.018   0.623   4.979  0.00  0.00    +0.028 C 
ENDBRANCH   6  12
BRANCH  11  21
ATOM     21  N   UNL     1      -0.409   0.993  -4.382  0.00  0.00    -0.191 N 
ATOM     22  C   UNL     1      -0.364   2.260  -4.841  0.00  0.00    +0.317 C 
ATOM     23  O   UNL     1      -0.364   2.473  -6.038  0.00  0.00    -0.251 OA
ATOM     24  N   UNL     1      -0.318   3.290  -3.973  0.00  0.00    -0.312 N 
ATOM     25  H   UNL     1      -0.442   0.252  -5.006  0.00  0.00    +0.179 HD
ATOM     26  H   UNL     1      -0.318   3.120  -3.018  0.00  0.00    +0.147 HD
ATOM     27  H   UNL     1      -0.286   4.201  -4.303  0.00  0.00    +0.147 HD
ENDBRANCH  11  21
TORSDOF 2
