REMARK  Name = ZINC36082890
REMARK  11 active torsions:
REMARK  status: ('A' for Active; 'I' for Inactive)
REMARK    1  A    between atoms: C_1  and  C_2
REMARK    2  A    between atoms: C_7  and  C_8
REMARK    3  A    between atoms: C_8  and  N_9
REMARK    4  A    between atoms: N_9  and  C_10
REMARK    5  A    between atoms: N_9  and  C_17
REMARK    6  A    between atoms: C_10  and  C_11
REMARK    7  A    between atoms: C_17  and  C_18
REMARK    8  A    between atoms: C_20  and  C_23
REMARK    9  A    between atoms: N_25  and  C_26
REMARK   10  A    between atoms: C_26  and  C_28
REMARK   11  A    between atoms: C_26  and  C_29
REMARK                            x       y       z     vdW  Elec       q    Type
REMARK                         _______ _______ _______ _____ _____    ______ ____
ROOT
ATOM      1  C   UNL     1      -0.986   1.397   3.517  0.00  0.00    +0.020 C 
ENDROOT
BRANCH   1   2
ATOM      2  C   UNL     1      -0.317   2.596   2.896  0.00  0.00    +0.179 A 
ATOM      3  N   UNL     1      -0.932   3.611   2.367  0.00  0.00    -0.210 NA
ATOM      4  C   UNL     1       0.001   4.492   1.914  0.00  0.00    +0.163 A 
ATOM      5  C   UNL     1       1.223   3.961   2.194  0.00  0.00    +0.230 A 
ATOM      6  O   UNL     1       1.007   2.787   2.808  0.00  0.00    -0.449 OA
BRANCH   4   7
ATOM      7  C   UNL     1      -0.262   5.779   1.244  0.00  0.00    +0.266 C 
ATOM      8  O   UNL     1       0.662   6.434   0.801  0.00  0.00    -0.268 OA
ATOM      9  N   UNL     1      -1.526   6.230   1.124  0.00  0.00    -0.303 N 
ATOM     10  H   UNL     1      -2.255   5.750   1.547  0.00  0.00    +0.150 HD
BRANCH   9  11
ATOM     11  C   UNL     1      -1.800   7.446   0.354  0.00  0.00    +0.100 C 
ATOM     12  C   UNL     1      -1.941   7.090  -1.127  0.00  0.00    +0.033 C 
BRANCH  11  13
ATOM     13  C   UNL     1      -3.079   8.074   0.844  0.00  0.00    -0.027 A 
ATOM     14  C   UNL     1      -4.156   7.275   1.180  0.00  0.00    +0.005 A 
ATOM     15  C   UNL     1      -5.330   7.851   1.629  0.00  0.00    +0.000 A 
ATOM     16  C   UNL     1      -5.426   9.226   1.744  0.00  0.00    +0.000 A 
ATOM     17  C   UNL     1      -4.348  10.024   1.409  0.00  0.00    +0.000 A 
ATOM     18  C   UNL     1      -3.173   9.448   0.964  0.00  0.00    +0.005 A 
ENDBRANCH  11  13
ENDBRANCH   9  11
ENDBRANCH   4   7
ENDBRANCH   1   2
BRANCH   1  19
ATOM     19  N   UNL     1      -1.329   0.429   2.466  0.00  0.00    +0.391 N 
ATOM     20  H   UNL     1      -1.889   0.883   1.760  0.00  0.00    -0.080 HD
BRANCH  19  21
ATOM     21  C   UNL     1      -0.096  -0.086   1.855  0.00  0.00    -0.042 C 
BRANCH  21  28
ATOM     22  C   UNL     1      -0.798   1.060  -0.702  0.00  0.00    +0.044 C 
ATOM     23  C   UNL     1      -0.783  -0.436  -0.526  0.00  0.00    -0.049 A 
ATOM     24  C   UNL     1      -1.099  -1.261  -1.590  0.00  0.00    +0.003 A 
ATOM     25  C   UNL     1      -1.085  -2.633  -1.429  0.00  0.00    +0.000 A 
ATOM     26  C   UNL     1      -0.755  -3.182  -0.203  0.00  0.00    +0.000 A 
ATOM     27  C   UNL     1      -0.437  -2.358   0.860  0.00  0.00    +0.002 A 
ATOM     28  C   UNL     1      -0.447  -0.985   0.697  0.00  0.00    -0.061 A 
ENDBRANCH  21  28
ENDBRANCH  19  21
BRANCH  19  29
ATOM     29  C   UNL     1      -2.087  -0.683   3.053  0.00  0.00    -0.042 C 
BRANCH  29  30
ATOM     30  C   UNL     1      -3.413  -0.176   3.558  0.00  0.00    -0.064 A 
ATOM     31  C   UNL     1      -3.559   0.172   4.888  0.00  0.00    +0.002 A 
ATOM     32  C   UNL     1      -4.776   0.637   5.351  0.00  0.00    +0.000 A 
ATOM     33  C   UNL     1      -5.846   0.754   4.484  0.00  0.00    +0.000 A 
ATOM     34  C   UNL     1      -5.700   0.406   3.154  0.00  0.00    +0.000 A 
ATOM     35  C   UNL     1      -4.482  -0.055   2.690  0.00  0.00    +0.002 A 
ENDBRANCH  29  30
ENDBRANCH  19  29
ENDBRANCH   1  19
TORSDOF 9
