REMARK  Name = ZINC40320429
REMARK  13 active torsions:
REMARK  status: ('A' for Active; 'I' for Inactive)
REMARK    1  A    between atoms: C_1  and  C_2
REMARK    2  A    between atoms: C_2  and  O_3
REMARK    3  A    between atoms: O_3  and  C_4
REMARK    4  A    between atoms: C_6  and  C_32
REMARK    5  A    between atoms: C_9  and  O_10
REMARK    6  A    between atoms: O_10  and  C_11
REMARK    7  A    between atoms: C_11  and  C_12
REMARK    8  A    between atoms: C_12  and  C_14
REMARK    9  A    between atoms: C_12  and  O_31
REMARK   10  A    between atoms: C_14  and  N_15
REMARK   11  A    between atoms: N_15  and  C_16
REMARK   12  A    between atoms: N_15  and  C_23
REMARK   13  A    between atoms: C_16  and  C_17
REMARK                            x       y       z     vdW  Elec       q    Type
REMARK                         _______ _______ _______ _____ _____    ______ ____
ROOT
ATOM      1  C   UNL     1       3.355  -1.507  -6.723  0.00  0.00    -0.043 C 
ENDROOT
BRANCH   1   2
ATOM      2  N   UNL     1       3.806  -0.624  -7.807  0.00  0.00    +0.389 N 
ATOM      3  H   UNL     1       3.006  -0.182  -8.235  0.00  0.00    -0.081 HD
BRANCH   2   4
ATOM      4  C   UNL     1       4.701   0.405  -7.261  0.00  0.00    -0.045 C 
ATOM      5  C   UNL     1       4.738   1.616  -8.206  0.00  0.00    +0.009 C 
ATOM      6  C   UNL     1       5.904   2.556  -7.815  0.00  0.00    +0.164 C 
ATOM      7  S   UNL     1       7.115   1.401  -7.052  0.00  0.00    -0.033 S 
ATOM      8  O   UNL     1       7.295   1.754  -5.688  0.00  0.00    -0.174 OA
ATOM      9  O   UNL     1       8.249   1.292  -7.902  0.00  0.00    -0.174 OA
ATOM     10  C   UNL     1       6.144  -0.163  -7.144  0.00  0.00    +0.151 C 
ENDBRANCH   2   4
BRANCH   2  11
ATOM     11  C   UNL     1       4.526  -1.414  -8.815  0.00  0.00    -0.003 C 
BRANCH  11  12
ATOM     12  C   UNL     1       4.877  -0.534  -9.987  0.00  0.00    +0.090 A 
ATOM     13  C   UNL     1       6.095  -0.033 -10.258  0.00  0.00    +0.044 A 
ATOM     14  C   UNL     1       5.971   0.730 -11.441  0.00  0.00    +0.057 A 
ATOM     15  C   UNL     1       4.682   0.651 -11.823  0.00  0.00    +0.170 A 
ATOM     16  O   UNL     1       4.026  -0.121 -10.941  0.00  0.00    -0.455 OA
ATOM     17 BR   UNL     1       3.927   1.478 -13.346  0.00  0.00    -0.008 Br
ENDBRANCH  11  12
ENDBRANCH   2  11
ENDBRANCH   1   2
BRANCH   1  18
ATOM     18  C   UNL     1       2.367  -0.754  -5.830  0.00  0.00    +0.135 C 
BRANCH  18  19
ATOM     19  O   UNL     1       3.055   0.282  -5.127  0.00  0.00    -0.390 OA
ATOM     20  H   UNL     1       3.814  -0.028  -4.614  0.00  0.00    +0.210 HD
ENDBRANCH  18  19
BRANCH  18  21
ATOM     21  C   UNL     1       1.744  -1.727  -4.826  0.00  0.00    +0.258 C 
BRANCH  21  22
ATOM     22  O   UNL     1       0.738  -1.051  -4.069  0.00  0.00    -0.486 OA
BRANCH  22  28
ATOM     23  C   UNL     1      -0.911  -1.177  -2.354  0.00  0.00    +0.163 A 
ATOM     24  C   UNL     1      -1.582  -1.914  -1.400  0.00  0.00    +0.060 A 
ATOM     25  C   UNL     1      -1.258  -3.263  -1.206  0.00  0.00    +0.018 A 
ATOM     26  C   UNL     1      -0.255  -3.856  -1.983  0.00  0.00    +0.015 A 
ATOM     27  C   UNL     1       0.409  -3.113  -2.933  0.00  0.00    +0.050 A 
ATOM     28  C   UNL     1       0.083  -1.776  -3.128  0.00  0.00    +0.162 A 
BRANCH  25  29
ATOM     29  C   UNL     1      -1.968  -4.053  -0.192  0.00  0.00    +0.258 C 
ATOM     30  O   UNL     1      -1.686  -5.221  -0.026  0.00  0.00    -0.296 OA
ENDBRANCH  25  29
BRANCH  23  31
ATOM     31  O   UNL     1      -1.223   0.133  -2.545  0.00  0.00    -0.489 OA
BRANCH  31  33
ATOM     32  C   UNL     1      -2.460   2.155  -2.075  0.00  0.00    +0.048 C 
ATOM     33  C   UNL     1      -2.251   0.682  -1.718  0.00  0.00    +0.226 C 
ENDBRANCH  31  33
ENDBRANCH  23  31
ENDBRANCH  22  28
ENDBRANCH  21  22
ENDBRANCH  18  21
ENDBRANCH   1  18
TORSDOF 12
