REMARK  Name = ZINC09160742
REMARK  5 active torsions:
REMARK  status: ('A' for Active; 'I' for Inactive)
REMARK    1  A    between atoms: C_4  and  C_7
REMARK    2  A    between atoms: C_14  and  N_36
REMARK    3  A    between atoms: C_15  and  C_34
REMARK    4  A    between atoms: N_23  and  C_26
REMARK    5  A    between atoms: C_26  and  C_27
REMARK                            x       y       z     vdW  Elec       q    Type
REMARK                         _______ _______ _______ _____ _____    ______ ____
ROOT
ATOM      1  C   UNL     1       3.497  -1.302  -0.858  0.00  0.00    +0.101 A 
ATOM      2  C   UNL     1       3.747  -2.525  -0.229  0.00  0.00    +0.066 A 
ATOM      3  C   UNL     1       4.884  -3.054  -0.774  0.00  0.00    +0.224 A 
ATOM      4  N   UNL     1       5.330  -2.192  -1.710  0.00  0.00    -0.246 N 
ATOM      5  H   UNL     1       6.120  -2.306  -2.260  0.00  0.00    +0.192 HD
ATOM      6  N   UNL     1       4.446  -1.102  -1.752  0.00  0.00    -0.171 NA
ATOM      7  O   UNL     1       5.397  -4.245  -0.377  0.00  0.00    -0.423 OA
ATOM      8  C   UNL     1       4.624  -5.043   0.388  0.00  0.00    +0.201 C 
ATOM      9  C   UNL     1       3.484  -4.631   0.991  0.00  0.00    +0.110 C 
ATOM     10  C   UNL     1       2.976  -3.221   0.856  0.00  0.00    +0.145 C 
ATOM     11  C   UNL     1       3.073  -2.482   2.152  0.00  0.00    -0.001 A 
ATOM     12  C   UNL     1       4.154  -2.162   2.944  0.00  0.00    +0.007 A 
ATOM     13  C   UNL     1       3.893  -1.450   4.110  0.00  0.00    +0.000 A 
ATOM     14  C   UNL     1       2.608  -1.083   4.456  0.00  0.00    +0.002 A 
ATOM     15  C   UNL     1       1.516  -1.403   3.664  0.00  0.00    +0.024 A 
ATOM     16  C   UNL     1       1.764  -2.118   2.492  0.00  0.00    +0.041 A 
ATOM     17  N   UNL     1       0.875  -2.564   1.530  0.00  0.00    -0.265 N 
ATOM     18  C   UNL     1       1.499  -3.225   0.532  0.00  0.00    +0.241 C 
ATOM     19  O   UNL     1       0.974  -3.726  -0.441  0.00  0.00    -0.274 OA
ENDROOT
BRANCH   1  23
ATOM     20  C   UNL     1       0.241   1.309  -0.042  0.00  0.00    +0.000 A 
ATOM     21  C   UNL     1       0.905   0.690   1.001  0.00  0.00    +0.001 A 
ATOM     22  C   UNL     1       1.963  -0.159   0.742  0.00  0.00    +0.010 A 
ATOM     23  C   UNL     1       2.360  -0.391  -0.573  0.00  0.00    +0.003 A 
ATOM     24  C   UNL     1       1.688   0.236  -1.619  0.00  0.00    +0.010 A 
ATOM     25  C   UNL     1       0.632   1.083  -1.349  0.00  0.00    +0.001 A 
ENDBRANCH   1  23
BRANCH   8  26
ATOM     26  N   UNL     1       5.016  -6.347   0.565  0.00  0.00    -0.328 N 
ATOM     27  H   UNL     1       5.828  -6.671   0.145  0.00  0.00    +0.145 HD
ATOM     28  H   UNL     1       4.480  -6.944   1.110  0.00  0.00    +0.145 HD
ENDBRANCH   8  26
BRANCH   9  29
ATOM     29  C   UNL     1       2.739  -5.565   1.780  0.00  0.00    +0.102 C 
ATOM     30  N   UNL     1       2.149  -6.305   2.407  0.00  0.00    -0.191 NA
ENDBRANCH   9  29
BRANCH  17  31
ATOM     31  C   UNL     1      -0.573  -2.346   1.588  0.00  0.00    +0.150 C 
BRANCH  31  32
ATOM     32  C   UNL     1      -0.944  -1.194   0.691  0.00  0.00    -0.011 A 
ATOM     33  C   UNL     1      -1.373  -0.001   1.240  0.00  0.00    +0.006 A 
ATOM     34  C   UNL     1      -1.714   1.057   0.417  0.00  0.00    +0.000 A 
ATOM     35  C   UNL     1      -1.625   0.921  -0.956  0.00  0.00    +0.001 A 
ATOM     36  C   UNL     1      -1.195  -0.272  -1.506  0.00  0.00    +0.020 A 
ATOM     37  C   UNL     1      -0.849  -1.328  -0.683  0.00  0.00    +0.046 A 
ATOM     38 CL   UNL     1      -0.303  -2.825  -1.373  0.00  0.00    -0.083 Cl
ENDBRANCH  31  32
ENDBRANCH  17  31
TORSDOF 5
