REMARK  Name = ZINC15477167
REMARK  8 active torsions:
REMARK  status: ('A' for Active; 'I' for Inactive)
REMARK    1  A    between atoms: C_3  and  C_6
REMARK    2  A    between atoms: C_6  and  C_8
REMARK    3  A    between atoms: C_6  and  N_64
REMARK    4  A    between atoms: C_8  and  N_9
REMARK    5  A    between atoms: C_10  and  C_12
REMARK    6  A    between atoms: N_15  and  C_18
REMARK    7  A    between atoms: C_21  and  C_27
REMARK    8  A    between atoms: C_23  and  N_24
REMARK                            x       y       z     vdW  Elec       q    Type
REMARK                         _______ _______ _______ _____ _____    ______ ____
ROOT
ATOM      1  C   UNL     1       4.159  -0.658  -0.952  0.00  0.00    +0.078 C 
ATOM      2  C   UNL     1       3.930   0.465   0.064  0.00  0.00    +0.031 C 
ATOM      3  C   UNL     1       2.587   1.140  -0.223  0.00  0.00    +0.106 C 
ATOM      4  N   UNL     1       2.592   1.684  -1.587  0.00  0.00    -0.328 N 
ATOM      5  C   UNL     1       2.763   0.618  -2.583  0.00  0.00    +0.106 C 
ATOM      6  C   UNL     1       4.112  -0.073  -2.366  0.00  0.00    +0.031 C 
ENDROOT
BRANCH   4   7
ATOM      7  C   UNL     1       1.432   2.421  -1.836  0.00  0.00    +0.060 A 
ATOM      8  C   UNL     1       0.187   1.810  -1.749  0.00  0.00    +0.026 A 
ATOM      9  C   UNL     1      -0.957   2.541  -2.001  0.00  0.00    +0.014 A 
ATOM     10  C   UNL     1      -0.865   3.881  -2.330  0.00  0.00    +0.057 A 
ATOM     11  C   UNL     1       0.372   4.492  -2.418  0.00  0.00    +0.047 A 
ATOM     12  C   UNL     1       1.521   3.765  -2.172  0.00  0.00    +0.148 A 
BRANCH  10  13
ATOM     13  C   UNL     1      -2.117   4.676  -2.599  0.00  0.00    +0.417 C 
ATOM     14  F   UNL     1      -2.435   4.599  -3.959  0.00  0.00    -0.166 F 
ATOM     15  F   UNL     1      -3.172   4.155  -1.843  0.00  0.00    -0.166 F 
ATOM     16  F   UNL     1      -1.905   6.013  -2.245  0.00  0.00    -0.166 F 
ENDBRANCH  10  13
BRANCH  12  17
ATOM     17  N   UNL     1       2.845   4.420  -2.266  0.00  0.00    +0.058 N 
ATOM     18  O   UNL     1       2.922   5.599  -2.560  0.00  0.00    -0.126 OA
ATOM     19  O   UNL     1       3.858   3.779  -2.048  0.00  0.00    -0.126 OA
ENDBRANCH  12  17
ENDBRANCH   4   7
BRANCH   1  21
ATOM     20  N   UNL     1       5.924  -2.304  -1.492  0.00  0.00    -0.316 N 
ATOM     21  C   UNL     1       5.507  -1.287  -0.712  0.00  0.00    +0.216 C 
ATOM     22  O   UNL     1       6.216  -0.879   0.183  0.00  0.00    -0.276 OA
ATOM     23  H   UNL     1       5.357  -2.630  -2.208  0.00  0.00    +0.149 HD
BRANCH  20  24
ATOM     24  C   UNL     1       7.235  -2.916  -1.259  0.00  0.00    +0.096 C 
BRANCH  24  25
ATOM     25  C   UNL     1       7.513  -3.956  -2.346  0.00  0.00    +0.016 C 
BRANCH  25  31
ATOM     26  C   UNL     1       6.225  -5.589  -1.107  0.00  0.00    -0.078 C 
ATOM     27  C   UNL     1       4.974  -6.470  -1.156  0.00  0.00    -0.019 C 
ATOM     28  C   UNL     1       5.128  -7.505  -2.275  0.00  0.00    -0.004 C 
ATOM     29  C   UNL     1       5.360  -6.778  -3.603  0.00  0.00    -0.019 C 
ATOM     30  C   UNL     1       6.599  -5.888  -3.482  0.00  0.00    -0.078 C 
ATOM     31  N   UNL     1       6.377  -4.900  -2.406  0.00  0.00    +0.387 N 
ATOM     32  H   UNL     1       5.518  -4.375  -2.607  0.00  0.00    -0.081 HD
ENDBRANCH  25  31
BRANCH  25  35
ATOM     33  C   UNL     1       8.464  -2.327  -5.512  0.00  0.00    +0.041 A 
ATOM     34  C   UNL     1       8.803  -2.958  -4.293  0.00  0.00    +0.043 A 
ATOM     35  C   UNL     1       7.646  -3.267  -3.679  0.00  0.00    +0.093 A 
ATOM     36  O   UNL     1       6.631  -2.851  -4.454  0.00  0.00    -0.469 OA
ATOM     37  C   UNL     1       7.120  -2.280  -5.566  0.00  0.00    +0.195 A 
ENDBRANCH  25  35
ENDBRANCH  24  25
ENDBRANCH  20  24
ENDBRANCH   1  21
TORSDOF 8
