REMARK  Name = ZINC30822718
REMARK  4 active torsions:
REMARK  status: ('A' for Active; 'I' for Inactive)
REMARK    1  A    between atoms: C_1  and  C_2
REMARK    2  A    between atoms: C_9  and  C_30
REMARK    3  A    between atoms: N_12  and  N_13
REMARK    4  A    between atoms: N_16  and  C_17
REMARK                            x       y       z     vdW  Elec       q    Type
REMARK                         _______ _______ _______ _____ _____    ______ ____
ROOT
ATOM      1  C   UNL     1      -0.093  -0.685   1.502  0.00  0.00    +0.047 C 
ATOM      2  C   UNL     1      -0.683  -0.003   2.710  0.00  0.00    -0.005 A 
ATOM      3  C   UNL     1      -1.967  -0.005   3.088  0.00  0.00    +0.199 A 
ATOM      4  O   UNL     1      -2.120   0.708   4.218  0.00  0.00    -0.463 OA
ATOM      5  C   UNL     1      -0.942   1.219   4.629  0.00  0.00    +0.139 A 
ATOM      6  C   UNL     1       0.036   0.803   3.705  0.00  0.00    +0.024 A 
ATOM      7  C   UNL     1       1.365   1.182   3.870  0.00  0.00    +0.024 A 
ATOM      8  C   UNL     1       1.718   1.974   4.955  0.00  0.00    +0.026 A 
ATOM      9  C   UNL     1       3.122   2.393   5.155  0.00  0.00    -0.002 A 
ATOM     10  C   UNL     1       3.414   3.172   6.238  0.00  0.00    +0.076 A 
ATOM     11  C   UNL     1       2.380   3.552   7.125  0.00  0.00    +0.212 A 
ATOM     12  N   UNL     1       2.670   4.299   8.160  0.00  0.00    -0.273 N 
ATOM     13  O   UNL     1       1.100   3.164   6.932  0.00  0.00    -0.438 OA
ATOM     14  C   UNL     1       0.742   2.390   5.878  0.00  0.00    +0.142 A 
ATOM     15  C   UNL     1      -0.576   2.011   5.710  0.00  0.00    +0.093 A 
ATOM     16  H   UNL     1       1.897   4.527   8.909  0.00  0.00    +0.188 HD
ENDROOT
BRANCH  12  17
ATOM     17  N   UNL     1       3.966   4.809   8.314  0.00  0.00    -0.211 N 
ATOM     18  C   UNL     1       4.296   5.485   9.433  0.00  0.00    +0.322 C 
ATOM     19  O   UNL     1       5.421   5.928   9.567  0.00  0.00    -0.251 OA
ATOM     20  N   UNL     1       3.379   5.670  10.403  0.00  0.00    -0.268 N 
ATOM     21  H   UNL     1       4.715   4.658   7.522  0.00  0.00    +0.177 HD
ATOM     22  H   UNL     1       2.342   5.333  10.252  0.00  0.00    +0.156 HD
BRANCH  20  23
ATOM     23  C   UNL     1       3.744   6.289  11.600  0.00  0.00    +0.043 A 
ATOM     24  C   UNL     1       4.716   7.267  11.608  0.00  0.00    +0.024 A 
ATOM     25  C   UNL     1       5.087   7.890  12.796  0.00  0.00    +0.002 A 
ATOM     26  C   UNL     1       4.504   7.554  13.979  0.00  0.00    +0.008 A 
ATOM     27  C   UNL     1       3.508   6.562  14.013  0.00  0.00    -0.016 A 
ATOM     28  C   UNL     1       3.117   5.925  12.810  0.00  0.00    +0.003 A 
ATOM     29  C   UNL     1       2.127   4.931  12.847  0.00  0.00    +0.010 A 
ATOM     30  C   UNL     1       1.548   4.600  14.034  0.00  0.00    +0.001 A 
ATOM     31  C   UNL     1       1.928   5.230  15.217  0.00  0.00    +0.001 A 
ATOM     32  C   UNL     1       2.888   6.194  15.220  0.00  0.00    +0.008 A 
ENDBRANCH  20  23
ENDBRANCH  12  17
BRANCH   9  33
ATOM     33  C   UNL     1       4.181   1.978   4.209  0.00  0.00    -0.017 A 
ATOM     34  C   UNL     1       4.196   0.679   3.700  0.00  0.00    +0.008 A 
ATOM     35  C   UNL     1       5.183   0.301   2.813  0.00  0.00    +0.001 A 
ATOM     36  C   UNL     1       6.164   1.202   2.439  0.00  0.00    +0.000 A 
ATOM     37  C   UNL     1       6.158   2.490   2.945  0.00  0.00    +0.001 A 
ATOM     38  C   UNL     1       5.173   2.883   3.827  0.00  0.00    +0.008 A 
ENDBRANCH   9  33
TORSDOF 3
