REMARK  Name = ZINC01900745
REMARK  7 active torsions:
REMARK  status: ('A' for Active; 'I' for Inactive)
REMARK    1  A    between atoms: C_1  and  O_2
REMARK    2  A    between atoms: O_2  and  C_3
REMARK    3  A    between atoms: C_7  and  C_11
REMARK    4  A    between atoms: C_8  and  O_9
REMARK    5  A    between atoms: O_9  and  C_10
REMARK    6  A    between atoms: C_13  and  C_38
REMARK    7  A    between atoms: C_38  and  C_40
REMARK                            x       y       z     vdW  Elec       q    Type
REMARK                         _______ _______ _______ _____ _____    ______ ____
ROOT
ATOM      1  C   UNL     1       1.253  -3.840  -2.398  0.00  0.00    +0.074 C 
ATOM      2  C   UNL     1       0.604  -4.621  -3.570  0.00  0.00    +0.155 C 
ATOM      3  N   UNL     1       1.359  -5.868  -3.688  0.00  0.00    -0.311 N 
ATOM      4  C   UNL     1       1.081  -7.002  -4.446  0.00  0.00    +0.038 A 
ATOM      5  C   UNL     1      -0.188  -7.486  -4.668  0.00  0.00    +0.025 A 
ATOM      6  C   UNL     1      -0.358  -8.635  -5.424  0.00  0.00    +0.022 A 
ATOM      7  C   UNL     1       0.740  -9.294  -5.953  0.00  0.00    +0.042 A 
ATOM      8  C   UNL     1       2.019  -8.813  -5.742  0.00  0.00    +0.029 A 
ATOM      9  C   UNL     1       2.204  -7.658  -4.992  0.00  0.00    -0.003 A 
ATOM     10  C   UNL     1       3.541  -7.076  -4.768  0.00  0.00    +0.007 C 
ATOM     11  C   UNL     1       3.748  -6.186  -3.800  0.00  0.00    -0.003 C 
ATOM     12  C   UNL     1       2.614  -5.760  -2.909  0.00  0.00    +0.119 C 
ATOM     13  C   UNL     1       2.725  -4.297  -2.488  0.00  0.00    +0.127 C 
ATOM     14  C   UNL     1       3.488  -3.475  -3.490  0.00  0.00    +0.180 C 
ATOM     15  O   UNL     1       3.231  -3.348  -4.668  0.00  0.00    -0.291 OA
ATOM     16  C   UNL     1       4.600  -2.857  -2.765  0.00  0.00    +0.029 A 
ATOM     17  C   UNL     1       5.599  -2.001  -3.240  0.00  0.00    +0.012 A 
ATOM     18  C   UNL     1       6.542  -1.559  -2.322  0.00  0.00    +0.001 A 
ATOM     19  C   UNL     1       6.507  -1.939  -0.995  0.00  0.00    +0.001 A 
ATOM     20  C   UNL     1       5.526  -2.786  -0.496  0.00  0.00    +0.012 A 
ATOM     21  C   UNL     1       4.564  -3.246  -1.400  0.00  0.00    +0.029 A 
ATOM     22  C   UNL     1       3.424  -4.137  -1.167  0.00  0.00    +0.180 C 
ATOM     23  O   UNL     1       3.107  -4.647  -0.114  0.00  0.00    -0.291 OA
ATOM     24 CL   UNL     1       0.508 -10.737  -6.889  0.00  0.00    -0.084 Cl
ENDROOT
BRANCH   1  29
ATOM     25  C   UNL     1       0.828  -0.138  -1.729  0.00  0.00    +0.162 A 
ATOM     26  C   UNL     1       0.922   0.382  -3.010  0.00  0.00    +0.049 A 
ATOM     27  C   UNL     1       1.124  -0.463  -4.085  0.00  0.00    +0.004 A 
ATOM     28  C   UNL     1       1.231  -1.827  -3.886  0.00  0.00    +0.008 A 
ATOM     29  C   UNL     1       1.137  -2.352  -2.611  0.00  0.00    +0.005 A 
ATOM     30  C   UNL     1       0.941  -1.510  -1.528  0.00  0.00    +0.165 A 
BRANCH  25  32
ATOM     31  C   UNL     1       0.523   2.089  -0.951  0.00  0.00    +0.277 C 
ATOM     32  O   UNL     1       0.630   0.692  -0.670  0.00  0.00    -0.491 OA
ENDBRANCH  25  32
BRANCH  30  33
ATOM     33  O   UNL     1       0.855  -2.025  -0.272  0.00  0.00    -0.491 OA
ATOM     34  C   UNL     1      -0.447  -2.394   0.190  0.00  0.00    +0.277 C 
ENDBRANCH  30  33
ENDBRANCH   1  29
BRANCH   2  35
ATOM     35  C   UNL     1      -0.842  -4.914  -3.262  0.00  0.00    +0.190 C 
ATOM     36  O   UNL     1      -1.143  -5.443  -2.211  0.00  0.00    -0.289 OA
BRANCH  35  37
ATOM     37  C   UNL     1      -1.846  -4.574  -4.194  0.00  0.00    +0.056 A 
ATOM     38  C   UNL     1      -3.224  -4.751  -4.104  0.00  0.00    +0.019 A 
ATOM     39  C   UNL     1      -3.951  -4.316  -5.183  0.00  0.00    +0.008 A 
ATOM     40  C   UNL     1      -3.301  -3.758  -6.236  0.00  0.00    +0.046 A 
ATOM     41  S   UNL     1      -1.681  -3.800  -5.792  0.00  0.00    -0.094 S 
ENDBRANCH  35  37
ENDBRANCH   2  35
TORSDOF 5
