REMARK  Name = ZINC08886951
REMARK  8 active torsions:
REMARK  status: ('A' for Active; 'I' for Inactive)
REMARK    1  A    between atoms: C_1  and  C_2
REMARK    2  A    between atoms: C_8  and  N_10
REMARK    3  A    between atoms: C_11  and  C_30
REMARK    4  A    between atoms: C_14  and  S_15
REMARK    5  A    between atoms: S_15  and  C_16
REMARK    6  A    between atoms: C_16  and  C_17
REMARK    7  A    between atoms: C_17  and  C_18
REMARK    8  A    between atoms: C_18  and  N_19
REMARK                            x       y       z     vdW  Elec       q    Type
REMARK                         _______ _______ _______ _____ _____    ______ ____
ROOT
ATOM      1  N   UNL     1      -5.101   9.952  -3.692  0.00  0.00    -0.299 N 
ATOM      2  C   UNL     1      -5.106  11.151  -3.018  0.00  0.00    +0.167 A 
ATOM      3  N   UNL     1      -4.868  10.884  -1.755  0.00  0.00    -0.128 NA
ATOM      4  N   UNL     1      -4.723   9.617  -1.594  0.00  0.00    -0.122 NA
ATOM      5  C   UNL     1      -4.859   8.998  -2.745  0.00  0.00    +0.192 A 
ENDROOT
BRANCH   1  12
ATOM      6  C   UNL     1      -7.738   9.308  -4.701  0.00  0.00    +0.009 C 
ATOM      7  C   UNL     1      -6.461   8.749  -5.331  0.00  0.00    +0.009 C 
ATOM      8  C   UNL     1      -6.684   8.529  -6.828  0.00  0.00    +0.005 C 
ATOM      9  C   UNL     1      -5.407   7.970  -7.458  0.00  0.00    +0.000 C 
ATOM     10  C   UNL     1      -4.261   8.963  -7.253  0.00  0.00    +0.002 C 
ATOM     11  C   UNL     1      -4.037   9.182  -5.756  0.00  0.00    +0.025 C 
ATOM     12  C   UNL     1      -5.315   9.741  -5.126  0.00  0.00    +0.094 C 
ENDBRANCH   1  12
BRANCH   2  13
ATOM     13  C   UNL     1      -5.329  12.489  -3.606  0.00  0.00    +0.037 A 
ATOM     14  C   UNL     1      -4.938  12.762  -4.923  0.00  0.00    +0.014 A 
ATOM     15  C   UNL     1      -5.173  14.028  -5.428  0.00  0.00    +0.020 A 
ATOM     16  C   UNL     1      -5.772  14.979  -4.620  0.00  0.00    +0.111 A 
ATOM     17  N   UNL     1      -6.125  14.695  -3.381  0.00  0.00    -0.263 NA
ATOM     18  C   UNL     1      -5.927  13.503  -2.857  0.00  0.00    +0.122 A 
ENDBRANCH   2  13
BRANCH   5  19
ATOM     19  S   UNL     1      -4.743   7.261  -3.018  0.00  0.00    -0.086 S 
BRANCH  19  20
ATOM     20  C   UNL     1      -4.407   6.700  -1.330  0.00  0.00    +0.079 C 
BRANCH  20  21
ATOM     21  C   UNL     1      -4.263   5.177  -1.318  0.00  0.00    +0.033 C 
BRANCH  21  22
ATOM     22  C   UNL     1      -3.980   4.702   0.109  0.00  0.00    +0.128 C 
BRANCH  22  23
ATOM     23  N   UNL     1      -3.842   3.244   0.121  0.00  0.00    -0.292 N 
ATOM     24  C   UNL     1      -2.656   2.536  -0.059  0.00  0.00    +0.070 A 
ATOM     25  C   UNL     1      -1.343   2.920  -0.285  0.00  0.00    +0.028 A 
ATOM     26  C   UNL     1      -0.360   1.960  -0.425  0.00  0.00    +0.002 A 
ATOM     27  C   UNL     1      -0.680   0.616  -0.341  0.00  0.00    +0.002 A 
ATOM     28  C   UNL     1      -1.985   0.224  -0.115  0.00  0.00    +0.028 A 
ATOM     29  C   UNL     1      -2.980   1.180   0.021  0.00  0.00    +0.067 A 
ATOM     30  N   UNL     1      -4.353   1.106   0.244  0.00  0.00    -0.306 N 
ATOM     31  H   UNL     1      -4.868   0.291   0.347  0.00  0.00    +0.170 HD
ATOM     32  C   UNL     1      -4.843   2.359   0.292  0.00  0.00    +0.328 A 
ATOM     33  O   UNL     1      -6.011   2.649   0.473  0.00  0.00    -0.247 OA
ENDBRANCH  22  23
ENDBRANCH  21  22
ENDBRANCH  20  21
ENDBRANCH  19  20
ENDBRANCH   5  19
TORSDOF 7
