REMARK  Name = ZINC09781010
REMARK  7 active torsions:
REMARK  status: ('A' for Active; 'I' for Inactive)
REMARK    1  A    between atoms: C_1  and  N_2
REMARK    2  A    between atoms: N_2  and  C_3
REMARK    3  A    between atoms: N_2  and  C_4
REMARK    4  A    between atoms: C_7  and  C_10
REMARK    5  A    between atoms: C_15  and  S_19
REMARK    6  A    between atoms: S_19  and  C_20
REMARK    7  A    between atoms: C_20  and  C_21
REMARK                            x       y       z     vdW  Elec       q    Type
REMARK                         _______ _______ _______ _____ _____    ______ ____
ROOT
ATOM      1  C   UNL     1      -4.870  -2.906   0.033  0.00  0.00    +0.092 C 
ATOM      2  C   UNL     1      -5.634  -2.568   1.277  0.00  0.00    +0.071 A 
ATOM      3  C   UNL     1      -6.722  -1.706   1.230  0.00  0.00    +0.135 A 
ATOM      4  N   UNL     1      -7.377  -1.421   2.350  0.00  0.00    -0.206 NA
ATOM      5  C   UNL     1      -7.000  -1.953   3.505  0.00  0.00    +0.194 A 
ATOM      6  N   UNL     1      -5.968  -2.781   3.586  0.00  0.00    -0.183 NA
ATOM      7  C   UNL     1      -5.268  -3.108   2.503  0.00  0.00    +0.280 A 
ATOM      8  O   UNL     1      -4.215  -3.957   2.595  0.00  0.00    -0.265 OA
ATOM      9  N   UNL     1      -7.114  -1.160   0.019  0.00  0.00    -0.302 N 
ATOM     10  C   UNL     1      -6.715  -1.728  -1.160  0.00  0.00    +0.017 C 
ATOM     11  C   UNL     1      -5.656  -2.562  -1.207  0.00  0.00    +0.024 C 
ATOM     12  C   UNL     1      -5.246  -3.139  -2.421  0.00  0.00    +0.162 C 
ATOM     13  C   UNL     1      -5.954  -2.833  -3.712  0.00  0.00    +0.080 C 
ATOM     14  C   UNL     1      -6.571  -1.433  -3.620  0.00  0.00    +0.014 C 
ATOM     15  C   UNL     1      -7.498  -1.395  -2.407  0.00  0.00    +0.051 C 
ATOM     16  O   UNL     1      -4.300  -3.902  -2.429  0.00  0.00    -0.292 OA
ATOM     17  H   UNL     1      -7.675  -0.368   0.007  0.00  0.00    +0.153 HD
ENDROOT
BRANCH   1  21
ATOM     18  C   UNL     1      -1.198  -0.719   0.010  0.00  0.00    +0.029 A 
ATOM     19  C   UNL     1      -1.181  -2.108   0.008  0.00  0.00    +0.023 A 
ATOM     20  C   UNL     1      -2.369  -2.812   0.016  0.00  0.00    +0.006 A 
ATOM     21  C   UNL     1      -3.575  -2.135   0.025  0.00  0.00    -0.035 A 
ATOM     22  C   UNL     1      -3.596  -0.752   0.027  0.00  0.00    +0.006 A 
ATOM     23  C   UNL     1      -2.411  -0.042   0.025  0.00  0.00    +0.023 A 
BRANCH  18  25
ATOM     24  C   UNL     1      -0.018   1.461   0.010  0.00  0.00    +0.129 C 
ATOM     25  N   UNL     1       0.002  -0.004   0.002  0.00  0.00    -0.336 N 
ATOM     26  C   UNL     1       1.281  -0.719  -0.014  0.00  0.00    +0.129 C 
ENDBRANCH  18  25
ENDBRANCH   1  21
BRANCH   5  27
ATOM     27  S   UNL     1      -7.893  -1.549   4.969  0.00  0.00    -0.081 S 
BRANCH  27  28
ATOM     28  C   UNL     1      -7.044  -2.482   6.272  0.00  0.00    +0.114 C 
BRANCH  28  29
ATOM     29  C   UNL     1      -7.717  -2.223   7.595  0.00  0.00    -0.019 A 
ATOM     30  C   UNL     1      -7.298  -1.171   8.389  0.00  0.00    +0.006 A 
ATOM     31  C   UNL     1      -7.916  -0.933   9.603  0.00  0.00    +0.000 A 
ATOM     32  C   UNL     1      -8.952  -1.746  10.024  0.00  0.00    +0.001 A 
ATOM     33  C   UNL     1      -9.371  -2.797   9.231  0.00  0.00    +0.020 A 
ATOM     34  C   UNL     1      -8.758  -3.033   8.013  0.00  0.00    +0.045 A 
ATOM     35 CL   UNL     1      -9.288  -4.350   7.014  0.00  0.00    -0.083 Cl
ENDBRANCH  28  29
ENDBRANCH  27  28
ENDBRANCH   5  27
TORSDOF 5
