REMARK  Name = ZINC13815634
REMARK  5 active torsions:
REMARK  status: ('A' for Active; 'I' for Inactive)
REMARK    1  A    between atoms: C_1  and  C_2
REMARK    2  A    between atoms: C_9  and  C_28
REMARK    3  A    between atoms: C_11  and  C_19
REMARK    4  A    between atoms: C_23  and  N_25
REMARK    5  A    between atoms: C_28  and  C_30
REMARK                            x       y       z     vdW  Elec       q    Type
REMARK                         _______ _______ _______ _____ _____    ______ ____
ROOT
ATOM      1  C   UNL     1      -0.440   1.787   0.652  0.00  0.00    +0.044 C 
ATOM      2  C   UNL     1      -0.332   0.292   0.492  0.00  0.00    -0.050 A 
ATOM      3  C   UNL     1      -0.343  -0.272  -0.771  0.00  0.00    +0.005 A 
ATOM      4  C   UNL     1      -0.245  -1.639  -0.923  0.00  0.00    +0.024 A 
ATOM      5  C   UNL     1      -0.135  -2.463   0.194  0.00  0.00    +0.039 A 
ATOM      6  C   UNL     1      -0.124  -1.884   1.461  0.00  0.00    +0.004 A 
ATOM      7  C   UNL     1      -0.216  -0.518   1.607  0.00  0.00    +0.011 A 
ATOM      8  C   UNL     1       0.006  -3.024   2.427  0.00  0.00    +0.137 C 
ATOM      9  C   UNL     1      -1.169  -3.069   3.418  0.00  0.00    +0.103 C 
ATOM     10  C   UNL     1      -0.580  -3.861   4.612  0.00  0.00    +0.050 C 
ATOM     11  C   UNL     1       0.945  -3.745   4.452  0.00  0.00    +0.077 C 
ATOM     12  N   UNL     1       1.206  -2.891   3.278  0.00  0.00    -0.271 NA
ATOM     13  C   UNL     1       1.366  -1.453   3.649  0.00  0.00    +0.155 C 
ATOM     14  S   UNL     1       2.312  -1.631   5.225  0.00  0.00    -0.144 S 
ATOM     15  C   UNL     1       1.570  -3.213   5.755  0.00  0.00    +0.090 C 
ATOM     16  C   UNL     1       0.061  -4.261   1.578  0.00  0.00    +0.243 C 
ATOM     17  O   UNL     1       0.164  -5.405   1.968  0.00  0.00    -0.273 OA
ATOM     18  N   UNL     1      -0.027  -3.852   0.297  0.00  0.00    -0.283 N 
ATOM     19  H   UNL     1      -0.016  -4.452  -0.465  0.00  0.00    +0.155 HD
ENDROOT
BRANCH  10  20
ATOM     20  C   UNL     1      -1.021  -3.248   5.916  0.00  0.00    -0.040 A 
ATOM     21  C   UNL     1      -0.770  -1.913   6.171  0.00  0.00    +0.004 A 
ATOM     22  C   UNL     1      -1.175  -1.350   7.368  0.00  0.00    +0.002 A 
ATOM     23  C   UNL     1      -1.830  -2.123   8.308  0.00  0.00    +0.033 A 
ATOM     24  C   UNL     1      -2.081  -3.458   8.052  0.00  0.00    +0.126 A 
ATOM     25  C   UNL     1      -1.681  -4.019   6.854  0.00  0.00    +0.036 A 
BRANCH  24  26
ATOM     26  N   UNL     1      -2.782  -4.286   9.060  0.00  0.00    +0.056 N 
ATOM     27  O   UNL     1      -3.135  -3.794  10.106  0.00  0.00    -0.126 OA
ATOM     28  O   UNL     1      -3.002  -5.453   8.836  0.00  0.00    -0.126 OA
ENDBRANCH  24  26
ENDBRANCH  10  20
BRANCH   9  29
ATOM     29  C   UNL     1      -1.566  -1.677   3.839  0.00  0.00    +0.169 C 
ATOM     30  O   UNL     1      -0.904  -0.725   3.486  0.00  0.00    -0.292 OA
BRANCH  29  31
ATOM     31  C   UNL     1      -2.757  -1.474   4.679  0.00  0.00    +0.018 A 
ATOM     32  C   UNL     1      -3.520  -2.571   5.093  0.00  0.00    +0.011 A 
ATOM     33  C   UNL     1      -4.635  -2.373   5.880  0.00  0.00    +0.001 A 
ATOM     34  C   UNL     1      -4.999  -1.093   6.261  0.00  0.00    +0.000 A 
ATOM     35  C   UNL     1      -4.249  -0.003   5.854  0.00  0.00    +0.001 A 
ATOM     36  C   UNL     1      -3.129  -0.185   5.072  0.00  0.00    +0.011 A 
ENDBRANCH  29  31
ENDBRANCH   9  29
TORSDOF 4
