REMARK  Name = ZINC35592278
REMARK  5 active torsions:
REMARK  status: ('A' for Active; 'I' for Inactive)
REMARK    1  A    between atoms: C_3  and  C_8
REMARK    2  A    between atoms: N_17  and  C_18
REMARK    3  A    between atoms: C_18  and  C_19
REMARK    4  A    between atoms: N_21  and  C_22
REMARK    5  A    between atoms: C_22  and  C_23
REMARK                            x       y       z     vdW  Elec       q    Type
REMARK                         _______ _______ _______ _____ _____    ______ ____
ROOT
ATOM      1  C   UNL     1       3.672   2.184  -0.021  0.00  0.00    +0.011 C 
ATOM      2  C   UNL     1       4.257   2.212   1.370  0.00  0.00    +0.009 A 
ATOM      3  C   UNL     1       3.626   2.434   2.532  0.00  0.00    +0.021 A 
ATOM      4  C   UNL     1       4.593   2.355   3.557  0.00  0.00    +0.019 A 
ATOM      5  C   UNL     1       5.782   2.087   2.973  0.00  0.00    +0.086 A 
ATOM      6  N   UNL     1       5.585   2.002   1.634  0.00  0.00    -0.353 N 
ATOM      7  C   UNL     1       6.577   1.737   0.584  0.00  0.00    +0.103 C 
ATOM      8  C   UNL     1       5.963   2.142  -0.762  0.00  0.00    -0.055 C 
ATOM      9  N   UNL     1       4.639   1.523  -0.914  0.00  0.00    +0.395 N 
ATOM     10  H   UNL     1       4.698   0.544  -0.678  0.00  0.00    -0.080 HD
ENDROOT
BRANCH   1  13
ATOM     11  C   UNL     1      -0.017   1.378   0.010  0.00  0.00    +0.002 A 
ATOM     12  C   UNL     1       1.171   2.086   0.002  0.00  0.00    +0.002 A 
ATOM     13  C   UNL     1       2.378   1.412  -0.013  0.00  0.00    -0.054 A 
ATOM     14  C   UNL     1       2.398   0.029  -0.021  0.00  0.00    +0.022 A 
ATOM     15  C   UNL     1       1.210  -0.679  -0.013  0.00  0.00    +0.041 A 
ATOM     16  C   UNL     1       0.002  -0.004   0.002  0.00  0.00    +0.020 A 
ATOM     17 CL   UNL     1       1.234  -2.415  -0.024  0.00  0.00    -0.084 Cl
ENDBRANCH   1  13
BRANCH   9  18
ATOM     18  C   UNL     1       4.192   1.661  -2.306  0.00  0.00    +0.020 C 
BRANCH  18  19
ATOM     19  C   UNL     1       5.113   0.882  -3.209  0.00  0.00    +0.197 C 
ATOM     20  O   UNL     1       6.050   0.272  -2.739  0.00  0.00    -0.278 OA
ATOM     21  N   UNL     1       4.896   0.864  -4.539  0.00  0.00    -0.310 N 
ATOM     22  H   UNL     1       4.146   1.352  -4.915  0.00  0.00    +0.149 HD
BRANCH  21  23
ATOM     23  C   UNL     1       5.791   0.107  -5.417  0.00  0.00    +0.178 C 
BRANCH  23  24
ATOM     24  C   UNL     1       5.332   0.248  -6.846  0.00  0.00    +0.122 A 
ATOM     25  C   UNL     1       5.729   1.201  -7.708  0.00  0.00    +0.046 A 
ATOM     26  C   UNL     1       5.054   0.957  -8.927  0.00  0.00    +0.041 A 
ATOM     27  C   UNL     1       4.285  -0.130  -8.735  0.00  0.00    +0.195 A 
ATOM     28  O   UNL     1       4.462  -0.558  -7.475  0.00  0.00    -0.466 OA
ENDBRANCH  23  24
ENDBRANCH  21  23
ENDBRANCH  18  19
ENDBRANCH   9  18
TORSDOF 5
