REMARK  Name = ZINC35664487
REMARK  13 active torsions:
REMARK  status: ('A' for Active; 'I' for Inactive)
REMARK    1  A    between atoms: C_1  and  C_2
REMARK    2  A    between atoms: C_2  and  N_3
REMARK    3  A    between atoms: C_4  and  C_24
REMARK    4  A    between atoms: C_5  and  C_19
REMARK    5  A    between atoms: C_6  and  C_11
REMARK    6  A    between atoms: C_13  and  C_18
REMARK    7  A    between atoms: C_16  and  C_17
REMARK    8  A    between atoms: C_19  and  O_21
REMARK    9  A    between atoms: O_21  and  C_22
REMARK   10  A    between atoms: C_22  and  C_23
REMARK   11  A    between atoms: C_24  and  N_25
REMARK   12  A    between atoms: C_29  and  C_32
REMARK   13  A    between atoms: C_33  and  C_35
REMARK                            x       y       z     vdW  Elec       q    Type
REMARK                         _______ _______ _______ _____ _____    ______ ____
ROOT
ATOM      1  N   UNL     1       0.860  -0.484   1.585  0.00  0.00    -0.258 N 
ATOM      2  C   UNL     1       2.207  -0.495   1.356  0.00  0.00    +0.041 C 
ATOM      3  C   UNL     1       3.076  -0.833   2.332  0.00  0.00    +0.080 C 
ATOM      4  C   UNL     1       2.507  -1.198   3.688  0.00  0.00    +0.144 C 
ATOM      5  N   UNL     1       1.042  -1.155   3.831  0.00  0.00    -0.288 N 
ATOM      6  C   UNL     1       0.304  -0.792   2.763  0.00  0.00    +0.307 C 
ATOM      7  O   UNL     1      -0.906  -0.749   2.872  0.00  0.00    -0.252 OA
ATOM      8  H   UNL     1       0.619  -1.378   4.675  0.00  0.00    +0.151 HD
ENDROOT
BRANCH   4   9
ATOM      9  C   UNL     1       2.964  -2.595   4.023  0.00  0.00    -0.019 A 
ATOM     10  C   UNL     1       2.197  -3.682   3.647  0.00  0.00    +0.009 A 
ATOM     11  C   UNL     1       2.616  -4.963   3.954  0.00  0.00    -0.050 A 
ATOM     12  C   UNL     1       3.803  -5.157   4.636  0.00  0.00    +0.003 A 
ATOM     13  C   UNL     1       4.570  -4.070   5.011  0.00  0.00    +0.004 A 
ATOM     14  C   UNL     1       4.153  -2.789   4.701  0.00  0.00    -0.045 A 
ATOM     15  C   UNL     1       4.992  -1.605   5.105  0.00  0.00    +0.044 C 
ATOM     16  C   UNL     1       1.780  -6.148   3.545  0.00  0.00    +0.044 C 
ENDBRANCH   4   9
BRANCH   1  18
ATOM     17  C   UNL     1      -0.248   1.407   0.498  0.00  0.00    +0.025 C 
ATOM     18  C   UNL     1      -0.025  -0.107   0.480  0.00  0.00    +0.111 C 
ENDBRANCH   1  18
BRANCH   3  19
ATOM     19  C   UNL     1       4.471  -0.846   2.097  0.00  0.00    +0.339 C 
ATOM     20  O   UNL     1       5.029  -1.887   1.804  0.00  0.00    -0.245 OA
BRANCH  19  21
ATOM     21  O   UNL     1       5.183   0.296   2.198  0.00  0.00    -0.462 OA
BRANCH  21  22
ATOM     22  C   UNL     1       6.565   0.233   1.839  0.00  0.00    +0.229 C 
ATOM     23  C   UNL     1       7.230   1.579   2.133  0.00  0.00    +0.048 C 
ENDBRANCH  21  22
ENDBRANCH  19  21
ENDBRANCH   3  19
BRANCH   2  24
ATOM     24  C   UNL     1       2.730  -0.125  -0.007  0.00  0.00    +0.136 C 
BRANCH  24  25
ATOM     25  N   UNL     1       2.332  -1.151  -0.980  0.00  0.00    -0.294 NA
ATOM     26  C   UNL     1       2.982  -2.435  -0.685  0.00  0.00    +0.104 C 
ATOM     27  C   UNL     1       2.406  -3.518  -1.605  0.00  0.00    +0.124 C 
ATOM     28  N   UNL     1       2.531  -3.063  -2.998  0.00  0.00    -0.290 N 
ATOM     29  C   UNL     1       2.025  -1.725  -3.341  0.00  0.00    +0.087 C 
ATOM     30  C   UNL     1       2.616  -0.713  -2.353  0.00  0.00    +0.107 C 
ATOM     31  C   UNL     1       2.449  -1.366  -4.766  0.00  0.00    +0.029 C 
ATOM     32  C   UNL     1       3.094  -3.851  -3.935  0.00  0.00    +0.282 C 
ATOM     33  O   UNL     1       3.296  -3.417  -5.054  0.00  0.00    -0.267 OA
BRANCH  32  34
ATOM     34  C   UNL     1       3.464  -5.232  -3.606  0.00  0.00    +0.189 A 
ATOM     35  C   UNL     1       4.168  -6.086  -4.406  0.00  0.00    +0.054 A 
ATOM     36  C   UNL     1       4.293  -7.291  -3.698  0.00  0.00    +0.042 A 
ATOM     37  C   UNL     1       3.666  -7.123  -2.512  0.00  0.00    +0.196 A 
ATOM     38  O   UNL     1       3.173  -5.879  -2.459  0.00  0.00    -0.458 OA
ENDBRANCH  32  34
ENDBRANCH  24  25
ENDBRANCH   2  24
TORSDOF 8
