REMARK  Name = ZINC39966299
REMARK  9 active torsions:
REMARK  status: ('A' for Active; 'I' for Inactive)
REMARK    1  A    between atoms: C_1  and  C_2
REMARK    2  A    between atoms: C_2  and  C_3
REMARK    3  A    between atoms: C_2  and  C_4
REMARK    4  A    between atoms: C_2  and  C_5
REMARK    5  A    between atoms: C_11  and  C_13
REMARK    6  A    between atoms: C_13  and  S_14
REMARK    7  A    between atoms: S_14  and  C_15
REMARK    8  A    between atoms: C_18  and  C_21
REMARK    9  A    between atoms: N_19  and  C_20
REMARK                            x       y       z     vdW  Elec       q    Type
REMARK                         _______ _______ _______ _____ _____    ______ ____
ROOT
ATOM      1  C   UNL     1       0.801  -3.950  -9.343  0.00  0.00    +0.192 A 
ATOM      2  N   UNL     1      -0.472  -4.267  -9.396  0.00  0.00    -0.122 NA
ATOM      3  N   UNL     1      -0.739  -4.838 -10.515  0.00  0.00    -0.128 NA
ATOM      4  C   UNL     1       0.347  -4.921 -11.248  0.00  0.00    +0.165 A 
ATOM      5  N   UNL     1       1.367  -4.350 -10.522  0.00  0.00    -0.305 N 
ATOM      6  C   UNL     1       2.767  -4.204 -10.927  0.00  0.00    +0.153 C 
ENDROOT
BRANCH   4   7
ATOM      7  C   UNL     1       0.454  -5.511 -12.599  0.00  0.00    +0.030 A 
ATOM      8  C   UNL     1       1.452  -6.396 -12.884  0.00  0.00    +0.057 A 
ATOM      9  S   UNL     1       1.121  -6.784 -14.595  0.00  0.00    -0.101 S 
ATOM     10  C   UNL     1      -0.312  -5.758 -14.806  0.00  0.00    -0.006 A 
ATOM     11  C   UNL     1      -0.480  -5.167 -13.598  0.00  0.00    -0.026 A 
ATOM     12  C   UNL     1      -1.604  -4.170 -13.333  0.00  0.00    +0.036 C 
ATOM     13  C   UNL     1      -2.775  -4.446 -14.269  0.00  0.00    +0.005 C 
ATOM     14  C   UNL     1      -2.623  -3.662 -15.570  0.00  0.00    +0.001 C 
ATOM     15  C   UNL     1      -1.367  -4.112 -16.310  0.00  0.00    +0.005 C 
ATOM     16  C   UNL     1      -1.146  -5.598 -16.036  0.00  0.00    +0.043 C 
ENDBRANCH   4   7
BRANCH   1  17
ATOM     17  S   UNL     1       1.625  -3.152  -8.006  0.00  0.00    -0.077 S 
BRANCH  17  18
ATOM     18  C   UNL     1       0.319  -2.902  -6.772  0.00  0.00    +0.173 C 
BRANCH  18  25
ATOM     19  C   UNL     1       0.680  -0.345  -1.302  0.00  0.00    +0.056 A 
ATOM     20  C   UNL     1       2.004  -0.120  -1.492  0.00  0.00    +0.072 A 
ATOM     21  S   UNL     1       2.228  -0.805  -3.125  0.00  0.00    -0.060 S 
ATOM     22  C   UNL     1       0.640  -1.298  -3.390  0.00  0.00    +0.165 A 
ATOM     23  N   UNL     1       0.028  -0.946  -2.280  0.00  0.00    -0.229 NA
ATOM     24  N   UNL     1       0.107  -1.929  -4.508  0.00  0.00    -0.264 N 
ATOM     25  C   UNL     1       0.898  -2.218  -5.560  0.00  0.00    +0.229 C 
ATOM     26  O   UNL     1       2.075  -1.929  -5.531  0.00  0.00    -0.275 OA
ATOM     27  H   UNL     1      -0.835  -2.160  -4.531  0.00  0.00    +0.157 HD
BRANCH  19  29
ATOM     28  C   UNL     1      -0.225   1.581  -0.030  0.00  0.00    +0.017 C 
ATOM     29  C   UNL     1      -0.014   0.066  -0.029  0.00  0.00    +0.005 C 
ATOM     30  C   UNL     1       0.848  -0.328   1.172  0.00  0.00    +0.017 C 
ATOM     31  C   UNL     1      -1.369  -0.637   0.063  0.00  0.00    +0.017 C 
ENDBRANCH  19  29
ENDBRANCH  18  25
ENDBRANCH  17  18
ENDBRANCH   1  17
TORSDOF 5
