REMARK  Name = ZINC50563820
REMARK  5 active torsions:
REMARK  status: ('A' for Active; 'I' for Inactive)
REMARK    1  A    between atoms: C_1  and  C_2
REMARK    2  A    between atoms: N_7  and  S_11
REMARK    3  A    between atoms: C_8  and  C_10
REMARK    4  A    between atoms: S_11  and  C_14
REMARK    5  A    between atoms: C_15  and  N_22
REMARK                            x       y       z     vdW  Elec       q    Type
REMARK                         _______ _______ _______ _____ _____    ______ ____
ROOT
ATOM      1  S   UNL     1       2.618  -3.331   1.615  0.00  0.00    +0.064 S 
ATOM      2  O   UNL     1       3.761  -2.648   2.110  0.00  0.00    -0.153 OA
ATOM      3  O   UNL     1       2.246  -4.624   2.071  0.00  0.00    -0.153 OA
ENDROOT
BRANCH   1   9
ATOM      4  C   UNL     1       0.649   1.336   1.278  0.00  0.00    +0.009 C 
ATOM      5  C   UNL     1       0.573  -0.175   1.049  0.00  0.00    +0.005 C 
ATOM      6  C   UNL     1      -0.864  -0.653   1.270  0.00  0.00    +0.006 C 
ATOM      7  C   UNL     1      -0.949  -2.159   1.010  0.00  0.00    +0.017 C 
ATOM      8  C   UNL     1      -0.037  -2.896   1.995  0.00  0.00    +0.110 C 
ATOM      9  N   UNL     1       1.319  -2.340   1.890  0.00  0.00    -0.173 NA
ATOM     10  C   UNL     1       1.503  -0.890   2.034  0.00  0.00    +0.080 C 
ATOM     11  C   UNL     1       1.156  -0.469   3.464  0.00  0.00    +0.026 C 
ENDBRANCH   1   9
BRANCH   1  12
ATOM     12  C   UNL     1       2.820  -3.452  -0.131  0.00  0.00    +0.140 A 
ATOM     13  C   UNL     1       2.160  -4.448  -0.840  0.00  0.00    +0.053 A 
ATOM     14  C   UNL     1       2.321  -4.540  -2.216  0.00  0.00    +0.040 A 
ATOM     15  C   UNL     1       3.137  -3.641  -2.877  0.00  0.00    +0.021 A 
ATOM     16  C   UNL     1       3.793  -2.650  -2.168  0.00  0.00    +0.032 A 
ATOM     17  C   UNL     1       3.630  -2.552  -0.798  0.00  0.00    +0.047 A 
ATOM     18 BR   UNL     1       4.522  -1.191   0.165  0.00  0.00    -0.048 Br
ATOM     19 BR   UNL     1       3.357  -3.765  -4.751  0.00  0.00    -0.050 Br
BRANCH  13  20
ATOM     20  N   UNL     1       1.336  -5.355  -0.170  0.00  0.00    -0.356 N 
ATOM     21  H   UNL     1       0.975  -5.130   0.702  0.00  0.00    +0.142 HD
ATOM     22  H   UNL     1       1.126  -6.211  -0.576  0.00  0.00    +0.142 HD
ENDBRANCH  13  20
ENDBRANCH   1  12
TORSDOF 3
