REMARK  Name = ZINC15991538
REMARK  5 active torsions:
REMARK  status: ('A' for Active; 'I' for Inactive)
REMARK    1  A    between atoms: C_9  and  C_12
REMARK    2  A    between atoms: N_14  and  N_15
REMARK    3  A    between atoms: C_16  and  C_18
REMARK    4  A    between atoms: C_22  and  S_24
REMARK    5  A    between atoms: S_24  and  N_27
REMARK                            x       y       z     vdW  Elec       q    Type
REMARK                         _______ _______ _______ _____ _____    ______ ____
ROOT
ATOM      1  N   UNL     1       2.181  -4.257  -0.035  0.00  0.00    -0.230 N 
ATOM      2  C   UNL     1       3.194  -5.067  -0.400  0.00  0.00    +0.260 C 
ATOM      3  O   UNL     1       4.133  -4.621  -1.029  0.00  0.00    -0.269 OA
ATOM      4  H   UNL     1       1.432  -4.613   0.467  0.00  0.00    +0.173 HD
ENDROOT
BRANCH   2   5
ATOM      5  C   UNL     1       3.163  -6.499  -0.034  0.00  0.00    +0.040 A 
ATOM      6  C   UNL     1       2.089  -7.013   0.694  0.00  0.00    +0.014 A 
ATOM      7  C   UNL     1       2.062  -8.351   1.026  0.00  0.00    +0.023 A 
ATOM      8  C   UNL     1       3.105  -9.182   0.651  0.00  0.00    +0.067 A 
ATOM      9  C   UNL     1       4.176  -8.676  -0.067  0.00  0.00    +0.124 A 
ATOM     10  C   UNL     1       4.211  -7.341  -0.411  0.00  0.00    +0.043 A 
ATOM     11 CL   UNL     1       3.069 -10.864   1.080  0.00  0.00    -0.082 Cl
BRANCH   9  12
ATOM     12  S   UNL     1       5.498  -9.741  -0.541  0.00  0.00    +0.062 S 
ATOM     13  O   UNL     1       4.902 -10.889  -1.131  0.00  0.00    -0.153 OA
ATOM     14  O   UNL     1       6.442  -8.934  -1.231  0.00  0.00    -0.153 OA
BRANCH  12  15
ATOM     15  N   UNL     1       6.238 -10.253   0.849  0.00  0.00    -0.177 NA
ATOM     16  C   UNL     1       7.335  -9.474   1.377  0.00  0.00    +0.109 C 
ATOM     17  C   UNL     1       8.666  -9.961   0.766  0.00  0.00    +0.017 C 
ATOM     18  C   UNL     1       9.023 -11.282   1.307  0.00  0.00    +0.001 C 
ATOM     19  C   UNL     1       8.025 -12.388   0.974  0.00  0.00    +0.001 C 
ATOM     20  C   UNL     1       6.909 -12.377   1.989  0.00  0.00    +0.017 C 
ATOM     21  C   UNL     1       5.753 -11.489   1.495  0.00  0.00    +0.109 C 
ENDBRANCH  12  15
ENDBRANCH   9  12
ENDBRANCH   2   5
BRANCH   1  24
ATOM     22  C   UNL     1       1.198  -2.089  -0.017  0.00  0.00    +0.273 C 
ATOM     23  O   UNL     1       0.261  -2.534   0.611  0.00  0.00    -0.270 OA
ATOM     24  N   UNL     1       2.211  -2.900  -0.382  0.00  0.00    -0.231 N 
ATOM     25  H   UNL     1       2.960  -2.543  -0.884  0.00  0.00    +0.173 HD
BRANCH  22  34
ATOM     26  C   UNL     1      -0.091   4.126   0.030  0.00  0.00    +0.004 A 
ATOM     27  C   UNL     1      -1.269   3.403   0.034  0.00  0.00    +0.004 A 
ATOM     28  C   UNL     1      -1.234   2.021   0.030  0.00  0.00    +0.049 A 
ATOM     29  C   UNL     1      -0.016   1.357   0.009  0.00  0.00    +0.163 A 
ATOM     30  C   UNL     1       1.168   2.084   0.002  0.00  0.00    +0.162 A 
ATOM     31  C   UNL     1       1.126   3.471   0.014  0.00  0.00    +0.049 A 
ATOM     32  O   UNL     1       2.373   1.453  -0.018  0.00  0.00    -0.484 OA
ATOM     33  C   UNL     1       2.381   0.069   0.348  0.00  0.00    +0.283 C 
ATOM     34  C   UNL     1       1.229  -0.629  -0.390  0.00  0.00    +0.297 C 
ATOM     35  O   UNL     1       0.002  -0.004   0.002  0.00  0.00    -0.472 OA
ENDBRANCH  22  34
ENDBRANCH   1  24
TORSDOF 5
