REMARK  Name = ZINC26363416
REMARK  13 active torsions:
REMARK  status: ('A' for Active; 'I' for Inactive)
REMARK    1  A    between atoms: C_1  and  C_2
REMARK    2  A    between atoms: C_2  and  C_3
REMARK    3  A    between atoms: C_3  and  C_5
REMARK    4  A    between atoms: C_3  and  N_15
REMARK    5  A    between atoms: N_9  and  C_10
REMARK    6  A    between atoms: N_15  and  C_16
REMARK    7  A    between atoms: N_15  and  C_20
REMARK    8  A    between atoms: C_16  and  C_17
REMARK    9  A    between atoms: C_17  and  C_18
REMARK   10  A    between atoms: C_18  and  O_19
REMARK   11  A    between atoms: C_20  and  C_21
REMARK   12  A    between atoms: C_25  and  C_34
REMARK   13  A    between atoms: C_27  and  C_33
REMARK                            x       y       z     vdW  Elec       q    Type
REMARK                         _______ _______ _______ _____ _____    ______ ____
ROOT
ATOM      1  N   UNL     1      -1.335   8.488  -1.471  0.00  0.00    +0.389 N 
ATOM      2  H   UNL     1      -2.150   8.309  -2.188  0.00  0.00    -0.080 HD
ENDROOT
BRANCH   1   3
ATOM      3  C   UNL     1      -1.523   9.828  -0.898  0.00  0.00    +0.003 C 
BRANCH   3   4
ATOM      4  C   UNL     1      -2.995  10.098  -0.725  0.00  0.00    +0.138 A 
ATOM      5  N   UNL     1      -3.884   9.287  -0.206  0.00  0.00    -0.115 NA
ATOM      6  N   UNL     1      -5.028   9.880  -0.233  0.00  0.00    -0.023 NA
ATOM      7  N   UNL     1      -4.893  11.046  -0.762  0.00  0.00    -0.044 NA
ATOM      8  N   UNL     1      -3.654  11.217  -1.079  0.00  0.00    -0.228 N 
BRANCH   8   9
ATOM      9  C   UNL     1      -3.073  12.407  -1.707  0.00  0.00    +0.111 C 
ATOM     10  C   UNL     1      -3.339  13.649  -0.832  0.00  0.00    +0.027 C 
ATOM     11  C   UNL     1      -3.602  14.784  -1.854  0.00  0.00    +0.002 C 
ATOM     12  C   UNL     1      -4.404  14.064  -2.966  0.00  0.00    +0.002 C 
ATOM     13  C   UNL     1      -3.749  12.670  -3.064  0.00  0.00    +0.027 C 
ENDBRANCH   8   9
ENDBRANCH   3   4
BRANCH   3  15
ATOM     14  C   UNL     1       0.685   9.775   0.270  0.00  0.00    +0.002 C 
ATOM     15  C   UNL     1      -0.827   9.903   0.462  0.00  0.00    -0.011 C 
ENDBRANCH   3  15
ENDBRANCH   1   3
BRANCH   1  16
ATOM     16  C   UNL     1      -0.064   8.401  -2.202  0.00  0.00    -0.075 C 
BRANCH  16  17
ATOM     17  C   UNL     1      -0.173   9.189  -3.510  0.00  0.00    +0.009 C 
BRANCH  17  18
ATOM     18  C   UNL     1       1.101   8.991  -4.332  0.00  0.00    +0.154 C 
BRANCH  18  19
ATOM     19  O   UNL     1       0.999   9.727  -5.553  0.00  0.00    -0.395 OA
ATOM     20  H   UNL     1       1.826   9.706  -6.279  0.00  0.00    +0.209 HD
ENDBRANCH  18  19
ENDBRANCH  17  18
ENDBRANCH  16  17
ENDBRANCH   1  16
BRANCH   1  21
ATOM     21  C   UNL     1      -1.415   7.455  -0.430  0.00  0.00    -0.037 C 
BRANCH  21  22
ATOM     22  C   UNL     1      -1.609   6.106  -1.074  0.00  0.00    +0.001 A 
ATOM     23  C   UNL     1      -0.536   5.315  -1.323  0.00  0.00    +0.017 A 
ATOM     24  C   UNL     1      -0.759   4.011  -1.950  0.00  0.00    -0.001 A 
ATOM     25  C   UNL     1       0.308   3.151  -2.231  0.00  0.00    +0.013 A 
ATOM     26  C   UNL     1       0.066   1.941  -2.817  0.00  0.00    -0.050 A 
ATOM     27  C   UNL     1      -1.230   1.556  -3.135  0.00  0.00    +0.008 A 
ATOM     28  C   UNL     1      -2.295   2.389  -2.873  0.00  0.00    -0.026 A 
ATOM     29  C   UNL     1      -2.074   3.625  -2.272  0.00  0.00    +0.052 A 
ATOM     30  N   UNL     1      -3.122   4.475  -1.992  0.00  0.00    -0.322 N 
ATOM     31  H   UNL     1      -4.152   4.179  -2.240  0.00  0.00    +0.169 HD
ATOM     32  C   UNL     1      -2.908   5.671  -1.416  0.00  0.00    +0.251 A 
ATOM     33  O   UNL     1      -3.858   6.398  -1.183  0.00  0.00    -0.268 OA
ATOM     34  C   UNL     1      -3.696   1.962  -3.229  0.00  0.00    +0.046 C 
ATOM     35  C   UNL     1       1.216   1.015  -3.119  0.00  0.00    +0.044 C 
ENDBRANCH  21  22
ENDBRANCH   1  21
TORSDOF 10
