REMARK  Name = ZINC25156087
REMARK  10 active torsions:
REMARK  status: ('A' for Active; 'I' for Inactive)
REMARK    1  A    between atoms: C_1  and  C_2
REMARK    2  A    between atoms: C_8  and  C_27
REMARK    3  A    between atoms: C_12  and  C_13
REMARK    4  A    between atoms: N_15  and  C_16
REMARK    5  A    between atoms: C_16  and  C_17
REMARK    6  A    between atoms: C_17  and  C_19
REMARK    7  A    between atoms: C_17  and  N_24
REMARK    8  A    between atoms: N_24  and  C_25
REMARK    9  A    between atoms: N_24  and  C_26
REMARK   10  A    between atoms: C_27  and  C_28
REMARK                            x       y       z     vdW  Elec       q    Type
REMARK                         _______ _______ _______ _____ _____    ______ ____
ROOT
ATOM      1  C   UNL     1       0.425   0.213  -0.321  0.00  0.00    +0.046 C 
ATOM      2  C   UNL     1       0.676  -1.248  -0.049  0.00  0.00    -0.017 A 
ATOM      3  C   UNL     1       0.945  -2.120  -1.106  0.00  0.00    +0.076 A 
ATOM      4  C   UNL     1       1.032  -1.835  -2.556  0.00  0.00    +0.260 A 
ATOM      5  O   UNL     1       0.859  -0.707  -2.982  0.00  0.00    -0.267 OA
ATOM      6  N   UNL     1       1.308  -2.855  -3.392  0.00  0.00    -0.310 N 
ATOM      7  H   UNL     1       1.369  -2.685  -4.345  0.00  0.00    +0.170 HD
ATOM      8  C   UNL     1       1.504  -4.114  -2.928  0.00  0.00    +0.115 A 
ATOM      9  N   UNL     1       1.434  -4.400  -1.657  0.00  0.00    -0.226 NA
ATOM     10  C   UNL     1       1.168  -3.470  -0.748  0.00  0.00    +0.116 A 
ATOM     11  S   UNL     1       0.993  -3.458   1.018  0.00  0.00    -0.064 S 
ATOM     12  C   UNL     1       0.647  -1.720   1.231  0.00  0.00    +0.079 A 
ENDROOT
BRANCH  12  13
ATOM     13  C   UNL     1       0.393  -0.982   2.472  0.00  0.00    +0.251 C 
ATOM     14  O   UNL     1       0.170   0.214   2.435  0.00  0.00    -0.270 OA
ATOM     15  N   UNL     1       0.406  -1.629   3.655  0.00  0.00    -0.312 N 
ATOM     16  H   UNL     1       0.583  -2.582   3.684  0.00  0.00    +0.149 HD
BRANCH  15  17
ATOM     17  C   UNL     1       0.151  -0.892   4.895  0.00  0.00    +0.094 C 
BRANCH  17  18
ATOM     18  C   UNL     1       0.095  -1.873   6.068  0.00  0.00    -0.014 C 
BRANCH  18  19
ATOM     19  C   UNL     1      -1.091  -2.787   5.902  0.00  0.00    -0.022 A 
ATOM     20  C   UNL     1      -1.130  -4.061   5.439  0.00  0.00    +0.009 A 
ATOM     21  C   UNL     1      -2.346  -4.714   5.374  0.00  0.00    +0.008 A 
ATOM     22  C   UNL     1      -3.465  -4.062   5.776  0.00  0.00    +0.045 A 
ATOM     23  S   UNL     1      -2.810  -2.477   6.273  0.00  0.00    -0.103 S 
ENDBRANCH  18  19
BRANCH  18  24
ATOM     24  N   UNL     1      -0.035  -1.125   7.326  0.00  0.00    +0.382 N 
ATOM     25  C   UNL     1      -0.161  -2.068   8.446  0.00  0.00    -0.096 C 
ATOM     26  C   UNL     1       1.155  -0.287   7.523  0.00  0.00    -0.096 C 
ATOM     27  H   UNL     1      -0.856  -0.540   7.286  0.00  0.00    -0.082 HD
ENDBRANCH  18  24
ENDBRANCH  17  18
ENDBRANCH  15  17
ENDBRANCH  12  13
BRANCH   8  28
ATOM     28  C   UNL     1       1.810  -5.216  -3.910  0.00  0.00    +0.109 C 
BRANCH  28  29
ATOM     29  C   UNL     1       1.985  -6.515  -3.168  0.00  0.00    -0.040 A 
ATOM     30  C   UNL     1       3.236  -6.885  -2.708  0.00  0.00    +0.004 A 
ATOM     31  C   UNL     1       3.397  -8.077  -2.028  0.00  0.00    +0.000 A 
ATOM     32  C   UNL     1       2.308  -8.899  -1.806  0.00  0.00    +0.000 A 
ATOM     33  C   UNL     1       1.058  -8.529  -2.264  0.00  0.00    +0.000 A 
ATOM     34  C   UNL     1       0.895  -7.335  -2.941  0.00  0.00    +0.004 A 
ENDBRANCH  28  29
ENDBRANCH   8  28
TORSDOF 7
