REMARK  Name = ZINC49491606
REMARK  5 active torsions:
REMARK  status: ('A' for Active; 'I' for Inactive)
REMARK    1  A    between atoms: C_4  and  S_7
REMARK    2  A    between atoms: S_7  and  N_10
REMARK    3  A    between atoms: C_17  and  N_20
REMARK    4  A    between atoms: C_21  and  C_23
REMARK    5  A    between atoms: N_28  and  C_30
REMARK                            x       y       z     vdW  Elec       q    Type
REMARK                         _______ _______ _______ _____ _____    ______ ____
ROOT
ATOM      1  N   UNL     1       4.666  -1.359   1.415  0.00  0.00    -0.203 N 
ATOM      2  C   UNL     1       5.555  -0.382   2.057  0.00  0.00    +0.132 C 
ATOM      3  C   UNL     1       6.440  -1.139   3.056  0.00  0.00    +0.025 C 
ATOM      4  C   UNL     1       5.550  -1.746   4.141  0.00  0.00    +0.038 C 
ATOM      5  C   UNL     1       4.426  -2.534   3.521  0.00  0.00    -0.025 A 
ATOM      6  C   UNL     1       4.024  -2.314   2.210  0.00  0.00    +0.056 A 
ATOM      7  C   UNL     1       2.977  -3.050   1.669  0.00  0.00    +0.048 A 
ATOM      8  C   UNL     1       2.329  -4.004   2.439  0.00  0.00    +0.035 A 
ATOM      9  C   UNL     1       2.731  -4.220   3.751  0.00  0.00    +0.024 A 
ATOM     10  C   UNL     1       3.780  -3.493   4.284  0.00  0.00    +0.007 A 
ENDROOT
BRANCH   8  11
ATOM     11  N   UNL     1       1.273  -4.746   1.897  0.00  0.00    -0.285 N 
ATOM     12  C   UNL     1       1.110  -6.038   2.244  0.00  0.00    +0.222 C 
ATOM     13  O   UNL     1       1.827  -6.535   3.087  0.00  0.00    -0.275 OA
ATOM     14  H   UNL     1       0.659  -4.330   1.272  0.00  0.00    +0.155 HD
BRANCH  12  15
ATOM     15  C   UNL     1       0.037  -6.865   1.584  0.00  0.00    +0.102 C 
ATOM     16  C   UNL     1      -1.370  -6.322   1.927  0.00  0.00    +0.110 C 
ATOM     17  C   UNL     1      -2.222  -7.564   2.071  0.00  0.00    +0.221 C 
ATOM     18  O   UNL     1      -3.434  -7.579   2.061  0.00  0.00    -0.275 OA
ATOM     19  N   UNL     1      -1.439  -8.648   2.211  0.00  0.00    -0.271 N 
ATOM     20  C   UNL     1      -0.017  -8.285   2.189  0.00  0.00    +0.127 C 
BRANCH  19  21
ATOM     21  C   UNL     1      -1.919  -9.954   2.359  0.00  0.00    +0.036 A 
ATOM     22  C   UNL     1      -3.283 -10.185   2.480  0.00  0.00    +0.025 A 
ATOM     23  C   UNL     1      -3.754 -11.475   2.625  0.00  0.00    +0.022 A 
ATOM     24  C   UNL     1      -2.867 -12.538   2.650  0.00  0.00    +0.041 A 
ATOM     25  C   UNL     1      -1.508 -12.311   2.529  0.00  0.00    +0.022 A 
ATOM     26  C   UNL     1      -1.032 -11.023   2.378  0.00  0.00    +0.025 A 
ATOM     27 CL   UNL     1      -3.462 -14.158   2.833  0.00  0.00    -0.084 Cl
ENDBRANCH  19  21
ENDBRANCH  12  15
ENDBRANCH   8  11
BRANCH   1  28
ATOM     28  S   UNL     1       4.422  -1.326  -0.223  0.00  0.00    +0.075 S 
ATOM     29  O   UNL     1       4.134  -2.660  -0.618  0.00  0.00    -0.150 OA
ATOM     30  O   UNL     1       5.498  -0.582  -0.779  0.00  0.00    -0.150 OA
BRANCH  28  34
ATOM     31  C   UNL     1       0.663   1.083  -0.971  0.00  0.00    +0.000 A 
ATOM     32  C   UNL     1       1.893   1.714  -0.933  0.00  0.00    +0.002 A 
ATOM     33  C   UNL     1       3.041   0.979  -0.704  0.00  0.00    +0.029 A 
ATOM     34  C   UNL     1       2.959  -0.388  -0.513  0.00  0.00    +0.109 A 
ATOM     35  C   UNL     1       1.730  -1.019  -0.550  0.00  0.00    +0.029 A 
ATOM     36  C   UNL     1       0.582  -0.283  -0.780  0.00  0.00    +0.002 A 
ENDBRANCH  28  34
ENDBRANCH   1  28
TORSDOF 5
