REMARK  Name = ZINC04463959
REMARK  8 active torsions:
REMARK  status: ('A' for Active; 'I' for Inactive)
REMARK    1  A    between atoms: C_1  and  C_2
REMARK    2  A    between atoms: C_5  and  C_31
REMARK    3  A    between atoms: C_6  and  C_8
REMARK    4  A    between atoms: C_8  and  C_10
REMARK    5  A    between atoms: C_10  and  N_11
REMARK    6  A    between atoms: C_14  and  C_18
REMARK    7  A    between atoms: C_14  and  C_25
REMARK    8  A    between atoms: C_18  and  C_19
REMARK                            x       y       z     vdW  Elec       q    Type
REMARK                         _______ _______ _______ _____ _____    ______ ____
ROOT
ATOM      1  N   UNL     1       1.383   0.000  -2.921  0.00  0.00    -0.216 N 
ATOM      2  C   UNL     1       1.698  -1.019  -2.097  0.00  0.00    +0.252 C 
ATOM      3  O   UNL     1       1.218  -2.132  -2.092  0.00  0.00    -0.272 OA
ATOM      4  C   UNL     1       2.780  -0.484  -1.179  0.00  0.00    +0.142 C 
ATOM      5  N   UNL     1       2.966   0.904  -1.635  0.00  0.00    -0.281 N 
ATOM      6  C   UNL     1       2.107   1.093  -2.654  0.00  0.00    +0.310 C 
ATOM      7  O   UNL     1       2.002   2.139  -3.264  0.00  0.00    -0.252 OA
ATOM      8  H   UNL     1       3.586   1.556  -1.272  0.00  0.00    +0.152 HD
ENDROOT
BRANCH   4   9
ATOM      9  C   UNL     1       4.054  -1.271  -1.342  0.00  0.00    -0.015 A 
ATOM     10  C   UNL     1       4.314  -2.346  -0.514  0.00  0.00    +0.006 A 
ATOM     11  C   UNL     1       5.481  -3.071  -0.666  0.00  0.00    +0.000 A 
ATOM     12  C   UNL     1       6.394  -2.714  -1.641  0.00  0.00    +0.000 A 
ATOM     13  C   UNL     1       6.137  -1.635  -2.466  0.00  0.00    +0.000 A 
ATOM     14  C   UNL     1       4.968  -0.913  -2.317  0.00  0.00    +0.006 A 
ENDBRANCH   4   9
BRANCH   1  15
ATOM     15  C   UNL     1       0.372  -0.079  -3.979  0.00  0.00    +0.197 C 
BRANCH  15  16
ATOM     16  C   UNL     1       1.020  -0.541  -5.259  0.00  0.00    +0.181 C 
ATOM     17  O   UNL     1       2.209  -0.780  -5.285  0.00  0.00    -0.290 OA
BRANCH  16  23
ATOM     18  C   UNL     1      -3.427  -0.528  -7.514  0.00  0.00    +0.044 C 
ATOM     19  C   UNL     1      -1.930  -0.697  -7.569  0.00  0.00    -0.050 A 
ATOM     20  C   UNL     1      -1.314  -1.004  -8.770  0.00  0.00    +0.003 A 
ATOM     21  C   UNL     1       0.060  -1.161  -8.831  0.00  0.00    +0.004 A 
ATOM     22  C   UNL     1       0.825  -1.012  -7.694  0.00  0.00    -0.040 A 
ATOM     23  C   UNL     1       0.210  -0.702  -6.477  0.00  0.00    +0.022 A 
ATOM     24  C   UNL     1      -1.179  -0.550  -6.423  0.00  0.00    +0.015 A 
ATOM     25  C   UNL     1       2.321  -1.184  -7.762  0.00  0.00    +0.044 C 
ENDBRANCH  16  23
ENDBRANCH  15  16
ENDBRANCH   1  15
BRANCH   4  26
ATOM     26  C   UNL     1       2.313  -0.514   0.277  0.00  0.00    +0.075 C 
BRANCH  26  27
ATOM     27  C   UNL     1       1.011   0.235   0.403  0.00  0.00    -0.045 A 
ATOM     28  C   UNL     1      -0.189  -0.434   0.247  0.00  0.00    +0.004 A 
ATOM     29  C   UNL     1      -1.383   0.254   0.357  0.00  0.00    +0.000 A 
ATOM     30  C   UNL     1      -1.377   1.608   0.633  0.00  0.00    +0.000 A 
ATOM     31  C   UNL     1      -0.178   2.277   0.790  0.00  0.00    +0.000 A 
ATOM     32  C   UNL     1       1.016   1.590   0.675  0.00  0.00    +0.004 A 
ENDBRANCH  26  27
ENDBRANCH   4  26
TORSDOF 6
