REMARK  Name = ZINC64181704
REMARK  10 active torsions:
REMARK  status: ('A' for Active; 'I' for Inactive)
REMARK    1  A    between atoms: C_1  and  C_2
REMARK    2  A    between atoms: C_3  and  C_30
REMARK    3  A    between atoms: C_4  and  C_29
REMARK    4  A    between atoms: C_7  and  C_8
REMARK    5  A    between atoms: C_8  and  C_10
REMARK    6  A    between atoms: C_10  and  C_12
REMARK    7  A    between atoms: C_10  and  S_13
REMARK    8  A    between atoms: S_13  and  C_14
REMARK    9  A    between atoms: N_19  and  C_20
REMARK   10  A    between atoms: C_30  and  C_32
REMARK                            x       y       z     vdW  Elec       q    Type
REMARK                         _______ _______ _______ _____ _____    ______ ____
ROOT
ATOM      1  S   UNL     1       0.323  -1.055   4.664  0.00  0.00    -0.107 S 
ENDROOT
BRANCH   1   2
ATOM      2  C   UNL     1       0.254  -2.244   6.032  0.00  0.00    +0.236 C 
ATOM      3  N   UNL     1      -1.083  -2.856   6.119  0.00  0.00    -0.259 N 
ATOM      4  N   UNL     1      -0.896  -4.229   5.916  0.00  0.00    -0.283 N 
ATOM      5  C   UNL     1       0.347  -4.513   5.724  0.00  0.00    +0.178 C 
ATOM      6  N   UNL     1       1.152  -3.382   5.774  0.00  0.00    -0.272 N 
ATOM      7  N   UNL     1       0.824  -5.797   5.498  0.00  0.00    -0.304 N 
ATOM      8  C   UNL     1       1.505  -6.542   6.566  0.00  0.00    +0.107 C 
ATOM      9  C   UNL     1       0.818  -7.900   6.735  0.00  0.00    +0.019 C 
ATOM     10  C   UNL     1       0.786  -8.623   5.387  0.00  0.00    +0.003 C 
ATOM     11  C   UNL     1      -0.019  -7.796   4.381  0.00  0.00    +0.019 C 
ATOM     12  C   UNL     1       0.653  -6.439   4.187  0.00  0.00    +0.107 C 
ATOM     13  H   UNL     1      -1.924  -2.401   6.283  0.00  0.00    +0.169 HD
ATOM     14  H   UNL     1      -1.612  -4.884   5.920  0.00  0.00    +0.187 HD
BRANCH   6  15
ATOM     15  C   UNL     1       2.606  -3.329   5.602  0.00  0.00    +0.079 C 
ATOM     16  C   UNL     1       3.295  -4.572   5.035  0.00  0.00    +0.024 C 
ATOM     17  C   UNL     1       3.457  -4.215   6.513  0.00  0.00    +0.024 C 
ENDBRANCH   6  15
ENDBRANCH   1   2
BRANCH   1  18
ATOM     18  C   UNL     1      -0.154  -2.031   3.211  0.00  0.00    +0.119 C 
ATOM     19  C   UNL     1      -1.605  -2.491   3.359  0.00  0.00    +0.027 C 
BRANCH  18  20
ATOM     20  C   UNL     1      -0.019  -1.184   1.971  0.00  0.00    +0.192 C 
ATOM     21  O   UNL     1      -0.090   0.025   2.051  0.00  0.00    -0.289 OA
BRANCH  20  28
ATOM     22  C   UNL     1       0.288   0.341  -0.718  0.00  0.00    +0.047 C 
ATOM     23  C   UNL     1       0.330  -1.148  -0.492  0.00  0.00    -0.012 A 
ATOM     24  C   UNL     1       0.525  -2.145  -1.475  0.00  0.00    +0.041 A 
ATOM     25  C   UNL     1       0.491  -3.370  -0.826  0.00  0.00    +0.024 A 
ATOM     26  N   UNL     1       0.287  -3.157   0.481  0.00  0.00    -0.355 N 
ATOM     27  H   UNL     1       0.222  -3.848   1.159  0.00  0.00    +0.166 HD
ATOM     28  C   UNL     1       0.190  -1.800   0.713  0.00  0.00    +0.087 A 
ATOM     29  C   UNL     1       0.656  -4.717  -1.481  0.00  0.00    +0.064 C 
BRANCH  24  30
ATOM     30  C   UNL     1       0.726  -1.925  -2.911  0.00  0.00    +0.162 C 
ATOM     31  O   UNL     1      -0.231  -1.821  -3.648  0.00  0.00    -0.292 OA
ATOM     32  C   UNL     1       2.122  -1.828  -3.471  0.00  0.00    +0.091 C 
ENDBRANCH  24  30
ENDBRANCH  20  28
ENDBRANCH  18  20
ENDBRANCH   1  18
TORSDOF 6
