REMARK  Name = ZINC16044668
REMARK  8 active torsions:
REMARK  status: ('A' for Active; 'I' for Inactive)
REMARK    1  A    between atoms: C_1  and  C_2
REMARK    2  A    between atoms: C_2  and  N_3
REMARK    3  A    between atoms: N_3  and  C_4
REMARK    4  A    between atoms: N_3  and  C_17
REMARK    5  A    between atoms: C_4  and  C_5
REMARK    6  A    between atoms: C_17  and  C_18
REMARK    7  A    between atoms: C_21  and  C_36
REMARK    8  A    between atoms: C_24  and  C_26
REMARK                            x       y       z     vdW  Elec       q    Type
REMARK                         _______ _______ _______ _____ _____    ______ ____
ROOT
ATOM      1  C   UNL     1      -2.434   1.160   1.526  0.00  0.00    +0.249 C 
ATOM      2  O   UNL     1      -2.133   1.936   0.643  0.00  0.00    -0.272 OA
ATOM      3  N   UNL     1      -3.098   1.601   2.613  0.00  0.00    -0.184 N 
ATOM      4  C   UNL     1      -3.522   2.990   2.852  0.00  0.00    +0.137 C 
ATOM      5  C   UNL     1      -4.225   2.923   4.222  0.00  0.00    +0.087 C 
ATOM      6  C   UNL     1      -4.118   1.467   4.616  0.00  0.00    +0.069 C 
ATOM      7  N   UNL     1      -3.501   0.816   3.691  0.00  0.00    -0.181 NA
ENDROOT
BRANCH   6   8
ATOM      8  C   UNL     1      -4.644   0.881   5.862  0.00  0.00    -0.002 A 
ATOM      9  C   UNL     1      -5.312   1.701   6.791  0.00  0.00    +0.010 A 
ATOM     10  C   UNL     1      -5.806   1.185   7.945  0.00  0.00    +0.009 A 
ATOM     11  C   UNL     1      -5.652  -0.185   8.226  0.00  0.00    -0.018 A 
ATOM     12  C   UNL     1      -6.155  -0.742   9.414  0.00  0.00    +0.008 A 
ATOM     13  C   UNL     1      -5.992  -2.071   9.659  0.00  0.00    +0.001 A 
ATOM     14  C   UNL     1      -5.332  -2.893   8.748  0.00  0.00    +0.001 A 
ATOM     15  C   UNL     1      -4.831  -2.390   7.587  0.00  0.00    +0.008 A 
ATOM     16  C   UNL     1      -4.981  -1.022   7.299  0.00  0.00    -0.017 A 
ATOM     17  C   UNL     1      -4.481  -0.473   6.109  0.00  0.00    +0.018 A 
ENDBRANCH   6   8
BRANCH   4  18
ATOM     18  C   UNL     1      -4.481   3.443   1.782  0.00  0.00    -0.025 A 
ATOM     19  C   UNL     1      -5.434   2.570   1.293  0.00  0.00    +0.005 A 
ATOM     20  C   UNL     1      -6.314   2.985   0.311  0.00  0.00    +0.000 A 
ATOM     21  C   UNL     1      -6.242   4.275  -0.181  0.00  0.00    +0.000 A 
ATOM     22  C   UNL     1      -5.290   5.149   0.309  0.00  0.00    +0.000 A 
ATOM     23  C   UNL     1      -4.412   4.735   1.294  0.00  0.00    +0.005 A 
ENDBRANCH   4  18
BRANCH   1  24
ATOM     24  C   UNL     1      -2.067  -0.296   1.407  0.00  0.00    +0.182 C 
BRANCH  24  25
ATOM     25  N   UNL     1      -1.482  -0.548   0.083  0.00  0.00    -0.287 NA
BRANCH  25  27
ATOM     26  C   UNL     1       0.513  -1.724   0.878  0.00  0.00    +0.020 C 
ATOM     27  C   UNL     1      -0.773  -1.834   0.056  0.00  0.00    +0.082 C 
ENDBRANCH  25  27
BRANCH  25  28
ATOM     28  C   UNL     1      -2.510  -0.491  -0.965  0.00  0.00    +0.159 C 
BRANCH  28  29
ATOM     29  C   UNL     1      -1.848  -0.507  -2.319  0.00  0.00    +0.125 A 
ATOM     30  N   UNL     1      -2.638  -0.456  -3.423  0.00  0.00    -0.309 N 
ATOM     31  H   UNL     1      -3.602  -0.410  -3.322  0.00  0.00    +0.170 HD
ATOM     32  C   UNL     1      -2.093  -0.467  -4.661  0.00  0.00    +0.259 A 
ATOM     33  O   UNL     1      -2.789  -0.421  -5.659  0.00  0.00    -0.267 OA
ATOM     34  C   UNL     1      -0.627  -0.537  -4.755  0.00  0.00    +0.065 A 
ATOM     35  C   UNL     1       0.033  -0.554  -5.981  0.00  0.00    +0.015 A 
ATOM     36  C   UNL     1       1.409  -0.621  -6.011  0.00  0.00    +0.001 A 
ATOM     37  C   UNL     1       2.139  -0.671  -4.831  0.00  0.00    +0.002 A 
ATOM     38  C   UNL     1       1.506  -0.655  -3.608  0.00  0.00    +0.028 A 
ATOM     39  C   UNL     1       0.112  -0.587  -3.552  0.00  0.00    +0.078 A 
ATOM     40  N   UNL     1      -0.552  -0.565  -2.370  0.00  0.00    -0.232 NA
ENDBRANCH  28  29
ENDBRANCH  25  28
ENDBRANCH  24  25
ENDBRANCH   1  24
TORSDOF 7
