REMARK  Name = ZINC34748531
REMARK  10 active torsions:
REMARK  status: ('A' for Active; 'I' for Inactive)
REMARK    1  A    between atoms: C_1  and  C_2
REMARK    2  A    between atoms: C_5  and  C_9
REMARK    3  A    between atoms: C_6  and  C_8
REMARK    4  A    between atoms: C_9  and  N_10
REMARK    5  A    between atoms: C_14  and  C_36
REMARK    6  A    between atoms: C_15  and  C_35
REMARK    7  A    between atoms: N_23  and  C_26
REMARK    8  A    between atoms: C_26  and  C_27
REMARK    9  A    between atoms: C_29  and  C_34
REMARK   10  A    between atoms: C_32  and  C_33
REMARK                            x       y       z     vdW  Elec       q    Type
REMARK                         _______ _______ _______ _____ _____    ______ ____
ROOT
ATOM      1  N   UNL     1      -1.858  -4.263   0.147  0.00  0.00    -0.276 N 
ATOM      2  C   UNL     1      -2.592  -4.461   1.257  0.00  0.00    +0.264 A 
ATOM      3  O   UNL     1      -2.054  -4.530   2.349  0.00  0.00    -0.267 OA
ATOM      4  C   UNL     1      -4.012  -4.588   1.139  0.00  0.00    +0.075 A 
ATOM      5  C   UNL     1      -5.006  -4.803   2.178  0.00  0.00    -0.026 A 
ATOM      6  C   UNL     1      -6.300  -4.892   1.838  0.00  0.00    -0.008 A 
ATOM      7  S   UNL     1      -6.277  -4.691   0.067  0.00  0.00    -0.073 S 
ATOM      8  C   UNL     1      -4.530  -4.492  -0.166  0.00  0.00    +0.117 A 
ATOM      9  N   UNL     1      -3.747  -4.295  -1.221  0.00  0.00    -0.208 NA
ATOM     10  C   UNL     1      -2.443  -4.176  -1.082  0.00  0.00    +0.202 A 
ATOM     11  N   UNL     1      -1.661  -3.968  -2.191  0.00  0.00    -0.304 N 
ATOM     12  C   UNL     1      -0.600  -2.949  -2.187  0.00  0.00    +0.089 C 
ATOM     13  C   UNL     1      -0.765  -2.071  -3.432  0.00  0.00    -0.059 C 
ATOM     14  N   UNL     1      -0.786  -2.920  -4.630  0.00  0.00    +0.384 N 
ATOM     15  C   UNL     1      -1.966  -3.793  -4.603  0.00  0.00    -0.059 C 
ATOM     16  C   UNL     1      -1.856  -4.761  -3.414  0.00  0.00    +0.089 C 
ATOM     17  C   UNL     1      -7.489  -5.112   2.737  0.00  0.00    +0.052 C 
ATOM     18  C   UNL     1      -4.586  -4.925   3.620  0.00  0.00    +0.045 C 
ATOM     19  H   UNL     1       0.049  -3.485  -4.654  0.00  0.00    -0.081 HD
ENDROOT
BRANCH   1  20
ATOM     20  C   UNL     1      -0.404  -4.132   0.261  0.00  0.00    +0.163 C 
BRANCH  20  25
ATOM     21  C   UNL     1       1.790  -8.967   2.540  0.00  0.00    +0.044 C 
ATOM     22  C   UNL     1       1.218  -7.706   1.946  0.00  0.00    -0.050 A 
ATOM     23  C   UNL     1       1.069  -6.578   2.731  0.00  0.00    +0.004 A 
ATOM     24  C   UNL     1       0.545  -5.421   2.185  0.00  0.00    +0.006 A 
ATOM     25  C   UNL     1       0.169  -5.393   0.855  0.00  0.00    -0.025 A 
ATOM     26  C   UNL     1       0.319  -6.520   0.070  0.00  0.00    -0.045 A 
ATOM     27  C   UNL     1       0.848  -7.676   0.615  0.00  0.00    +0.007 A 
ATOM     28  C   UNL     1      -0.091  -6.489  -1.380  0.00  0.00    +0.044 C 
ENDBRANCH  20  25
ENDBRANCH   1  20
BRANCH  14  29
ATOM     29  C   UNL     1      -0.834  -2.072  -5.828  0.00  0.00    -0.043 C 
BRANCH  29  30
ATOM     30  C   UNL     1      -0.696  -2.932  -7.058  0.00  0.00    -0.061 A 
ATOM     31  C   UNL     1      -1.802  -3.195  -7.845  0.00  0.00    +0.005 A 
ATOM     32  C   UNL     1      -1.675  -3.983  -8.973  0.00  0.00    -0.050 A 
ATOM     33  C   UNL     1      -0.443  -4.509  -9.314  0.00  0.00    +0.003 A 
ATOM     34  C   UNL     1       0.663  -4.245  -8.528  0.00  0.00    +0.004 A 
ATOM     35  C   UNL     1       0.537  -3.453  -7.402  0.00  0.00    -0.049 A 
ATOM     36  C   UNL     1       1.744  -3.161  -6.548  0.00  0.00    +0.044 C 
ATOM     37  C   UNL     1      -2.881  -4.271  -9.830  0.00  0.00    +0.044 C 
ENDBRANCH  29  30
ENDBRANCH  14  29
TORSDOF 4
