REMARK  Name = ZINC39980035
REMARK  9 active torsions:
REMARK  status: ('A' for Active; 'I' for Inactive)
REMARK    1  A    between atoms: C_1  and  C_2
REMARK    2  A    between atoms: C_2  and  C_3
REMARK    3  A    between atoms: C_2  and  C_4
REMARK    4  A    between atoms: C_2  and  C_5
REMARK    5  A    between atoms: C_10  and  C_12
REMARK    6  A    between atoms: C_12  and  S_13
REMARK    7  A    between atoms: S_13  and  C_14
REMARK    8  A    between atoms: C_18  and  C_24
REMARK    9  A    between atoms: N_20  and  C_21
REMARK                            x       y       z     vdW  Elec       q    Type
REMARK                         _______ _______ _______ _____ _____    ______ ____
ROOT
ATOM      1  C   UNL     1       0.789  -4.047  -9.350  0.00  0.00    +0.078 C 
ATOM      2  N   UNL     1      -0.216  -3.084  -9.872  0.00  0.00    -0.261 NA
ATOM      3  N   UNL     1      -1.177  -3.951 -10.571  0.00  0.00    -0.264 NA
ATOM      4  C   UNL     1      -1.267  -5.162  -9.723  0.00  0.00    +0.086 C 
ATOM      5  N   UNL     1      -0.010  -5.227  -8.945  0.00  0.00    +0.414 N 
ATOM      6  H   UNL     1       0.209  -2.427 -10.509  0.00  0.00    +0.140 HD
ATOM      7  H   UNL     1      -0.848  -4.182 -11.497  0.00  0.00    +0.139 HD
ATOM      8  H   UNL     1      -0.212  -5.185  -7.957  0.00  0.00    -0.075 HD
ENDROOT
BRANCH   4   9
ATOM      9  C   UNL     1      -2.449  -5.054  -8.793  0.00  0.00    +0.106 A 
ATOM     10  C   UNL     1      -3.603  -4.417  -9.059  0.00  0.00    +0.044 A 
ATOM     11  C   UNL     1      -4.425  -4.566  -7.918  0.00  0.00    +0.041 A 
ATOM     12  C   UNL     1      -3.723  -5.285  -7.024  0.00  0.00    +0.195 A 
ATOM     13  O   UNL     1      -2.529  -5.582  -7.561  0.00  0.00    -0.468 OA
ENDBRANCH   4   9
BRANCH   5  14
ATOM     14  C   UNL     1       0.719  -6.462  -9.261  0.00  0.00    -0.062 C 
ATOM     15  C   UNL     1       0.854  -7.506  -8.151  0.00  0.00    -0.017 C 
ATOM     16  C   UNL     1       2.070  -6.680  -8.576  0.00  0.00    -0.017 C 
ENDBRANCH   5  14
BRANCH   1  17
ATOM     17  S   UNL     1       1.657  -3.346  -7.920  0.00  0.00    -0.150 S 
BRANCH  17  18
ATOM     18  C   UNL     1       0.328  -2.945  -6.753  0.00  0.00    +0.164 C 
BRANCH  18  24
ATOM     19  C   UNL     1       0.707  -0.490  -1.238  0.00  0.00    +0.056 A 
ATOM     20  C   UNL     1       2.057  -0.430  -1.354  0.00  0.00    +0.072 A 
ATOM     21  S   UNL     1       2.282  -1.127  -2.983  0.00  0.00    -0.060 S 
ATOM     22  C   UNL     1       0.662  -1.416  -3.337  0.00  0.00    +0.165 A 
ATOM     23  N   UNL     1       0.116  -1.968  -4.490  0.00  0.00    -0.264 N 
ATOM     24  C   UNL     1       0.920  -2.346  -5.503  0.00  0.00    +0.228 C 
ATOM     25  O   UNL     1       2.121  -2.205  -5.409  0.00  0.00    -0.275 OA
ATOM     26  N   UNL     1       0.039  -0.999  -2.257  0.00  0.00    -0.229 NA
ATOM     27  H   UNL     1      -0.845  -2.081  -4.566  0.00  0.00    +0.157 HD
BRANCH  19  29
ATOM     28  C   UNL     1      -0.019   1.526   0.010  0.00  0.00    +0.017 C 
ATOM     29  C   UNL     1       0.002  -0.004   0.002  0.00  0.00    +0.005 C 
ATOM     30  C   UNL     1       0.742  -0.511   1.242  0.00  0.00    +0.017 C 
ATOM     31  C   UNL     1      -1.433  -0.534   0.013  0.00  0.00    +0.017 C 
ENDBRANCH  19  29
ENDBRANCH  18  24
ENDBRANCH  17  18
ENDBRANCH   1  17
TORSDOF 6
