REMARK  Name = ZINC45513145
REMARK  7 active torsions:
REMARK  status: ('A' for Active; 'I' for Inactive)
REMARK    1  A    between atoms: C_1  and  C_2
REMARK    2  A    between atoms: C_5  and  C_8
REMARK    3  A    between atoms: C_8  and  N_9
REMARK    4  A    between atoms: C_10  and  C_12
REMARK    5  A    between atoms: C_12  and  C_14
REMARK    6  A    between atoms: C_12  and  N_15
REMARK    7  A    between atoms: C_18  and  N_21
REMARK                            x       y       z     vdW  Elec       q    Type
REMARK                         _______ _______ _______ _____ _____    ______ ____
ROOT
ATOM      1  N   UNL     1       3.159  -8.016   0.062  0.00  0.00    +0.387 N 
ATOM      2  C   UNL     1       4.548  -8.476   0.181  0.00  0.00    -0.076 C 
ATOM      3  C   UNL     1       4.571  -9.993   0.380  0.00  0.00    +0.006 C 
ATOM      4  C   UNL     1       3.909 -10.670  -0.823  0.00  0.00    +0.089 C 
ATOM      5  C   UNL     1       2.485 -10.128  -0.982  0.00  0.00    +0.006 C 
ATOM      6  C   UNL     1       2.539  -8.606  -1.131  0.00  0.00    -0.076 C 
ATOM      7  H   UNL     1       2.642  -8.297   0.882  0.00  0.00    -0.081 HD
ENDROOT
BRANCH   4   8
ATOM      8  N   UNL     1       3.860 -12.118  -0.605  0.00  0.00    -0.289 N 
ATOM      9  C   UNL     1       4.459 -13.085  -1.409  0.00  0.00    +0.070 A 
ATOM     10  C   UNL     1       5.223 -13.021  -2.564  0.00  0.00    +0.028 A 
ATOM     11  C   UNL     1       5.687 -14.184  -3.146  0.00  0.00    +0.002 A 
ATOM     12  C   UNL     1       5.393 -15.413  -2.581  0.00  0.00    +0.002 A 
ATOM     13  C   UNL     1       4.632 -15.487  -1.431  0.00  0.00    +0.028 A 
ATOM     14  C   UNL     1       4.162 -14.324  -0.839  0.00  0.00    +0.067 A 
ATOM     15  N   UNL     1       3.392 -14.072   0.294  0.00  0.00    -0.306 N 
ATOM     16  H   UNL     1       3.035 -14.742   0.898  0.00  0.00    +0.170 HD
ATOM     17  C   UNL     1       3.233 -12.741   0.411  0.00  0.00    +0.328 A 
ATOM     18  O   UNL     1       2.613 -12.184   1.298  0.00  0.00    -0.247 OA
ENDBRANCH   4   8
BRANCH   1  19
ATOM     19  C   UNL     1       3.137  -6.551  -0.051  0.00  0.00    +0.016 C 
ATOM     20  C   UNL     1       3.834  -5.936   1.165  0.00  0.00    -0.004 C 
BRANCH  19  22
ATOM     21  N   UNL     1       1.411  -4.917  -0.733  0.00  0.00    -0.313 N 
ATOM     22  C   UNL     1       1.710  -6.073  -0.108  0.00  0.00    +0.199 C 
ATOM     23  O   UNL     1       0.830  -6.727   0.410  0.00  0.00    -0.278 OA
ATOM     24  H   UNL     1       2.114  -4.394  -1.147  0.00  0.00    +0.149 HD
BRANCH  21  25
ATOM     25  C   UNL     1       0.023  -4.452  -0.788  0.00  0.00    +0.139 C 
BRANCH  25  30
ATOM     26  C   UNL     1      -0.221   0.555  -3.663  0.00  0.00    +0.044 C 
ATOM     27  C   UNL     1      -0.157  -0.750  -2.914  0.00  0.00    -0.050 A 
ATOM     28  C   UNL     1      -0.286  -1.946  -3.596  0.00  0.00    +0.003 A 
ATOM     29  C   UNL     1      -0.228  -3.144  -2.908  0.00  0.00    +0.005 A 
ATOM     30  C   UNL     1      -0.040  -3.146  -1.538  0.00  0.00    -0.030 A 
ATOM     31  C   UNL     1       0.090  -1.950  -0.857  0.00  0.00    +0.005 A 
ATOM     32  C   UNL     1       0.036  -0.753  -1.545  0.00  0.00    +0.003 A 
ENDBRANCH  25  30
ENDBRANCH  21  25
ENDBRANCH  19  22
ENDBRANCH   1  19
TORSDOF 5
