REMARK  Name = ZINC20882037
REMARK  9 active torsions:
REMARK  status: ('A' for Active; 'I' for Inactive)
REMARK    1  A    between atoms: C_1  and  C_2
REMARK    2  A    between atoms: C_2  and  O_3
REMARK    3  A    between atoms: O_3  and  C_4
REMARK    4  A    between atoms: C_8  and  C_10
REMARK    5  A    between atoms: C_21  and  C_24
REMARK    6  A    between atoms: C_27  and  O_30
REMARK    7  A    between atoms: O_30  and  C_31
REMARK    8  A    between atoms: C_31  and  C_32
REMARK    9  A    between atoms: C_31  and  C_33
REMARK                            x       y       z     vdW  Elec       q    Type
REMARK                         _______ _______ _______ _____ _____    ______ ____
ROOT
ATOM      1  C   UNL     1      -5.648  -2.382  -8.513  0.00  0.00    +0.063 C 
ATOM      2  C   UNL     1      -5.123  -1.696  -9.776  0.00  0.00    +0.109 C 
ATOM      3  C   UNL     1      -4.825  -0.252  -9.466  0.00  0.00    +0.218 C 
ATOM      4  O   UNL     1      -4.990   0.596 -10.317  0.00  0.00    -0.275 OA
ATOM      5  N   UNL     1      -4.377   0.099  -8.248  0.00  0.00    -0.289 N 
ATOM      6  C   UNL     1      -4.157  -0.841  -7.274  0.00  0.00    +0.018 C 
ATOM      7  C   UNL     1      -4.740  -2.055  -7.351  0.00  0.00    +0.020 C 
ATOM      8  C   UNL     1      -4.522  -3.035  -6.368  0.00  0.00    +0.162 C 
ATOM      9  O   UNL     1      -5.074  -4.113  -6.465  0.00  0.00    -0.292 OA
ATOM     10  C   UNL     1      -3.615  -2.770  -5.196  0.00  0.00    +0.088 C 
ATOM     11  C   UNL     1      -2.551  -1.749  -5.611  0.00  0.00    +0.032 C 
ATOM     12  C   UNL     1      -3.252  -0.487  -6.120  0.00  0.00    +0.059 C 
ATOM     13  H   UNL     1      -4.179   1.157  -8.019  0.00  0.00    +0.155 HD
ENDROOT
BRANCH   1  18
ATOM     14  C   UNL     1      -9.377  -2.330  -7.901  0.00  0.00    +0.121 A 
ATOM     15  C   UNL     1      -9.598  -0.980  -7.670  0.00  0.00    +0.045 A 
ATOM     16  C   UNL     1      -8.542  -0.091  -7.712  0.00  0.00    +0.004 A 
ATOM     17  C   UNL     1      -7.264  -0.546  -7.980  0.00  0.00    +0.004 A 
ATOM     18  C   UNL     1      -7.041  -1.890  -8.216  0.00  0.00    -0.036 A 
ATOM     19  C   UNL     1      -8.095  -2.783  -8.175  0.00  0.00    +0.050 A 
BRANCH  14  20
ATOM     20  O   UNL     1     -10.414  -3.207  -7.859  0.00  0.00    -0.492 OA
BRANCH  20  22
ATOM     21  C   UNL     1     -12.739  -3.798  -7.567  0.00  0.00    +0.048 C 
ATOM     22  C   UNL     1     -11.707  -2.669  -7.572  0.00  0.00    +0.225 C 
ENDBRANCH  20  22
ENDBRANCH  14  20
ENDBRANCH   1  18
BRANCH  11  23
ATOM     23  C   UNL     1      -1.689  -1.405  -4.424  0.00  0.00    -0.043 A 
ATOM     24  C   UNL     1      -0.327  -1.640  -4.469  0.00  0.00    +0.007 A 
ATOM     25  C   UNL     1       0.465  -1.326  -3.382  0.00  0.00    +0.046 A 
ATOM     26  C   UNL     1      -0.106  -0.775  -2.244  0.00  0.00    +0.121 A 
ATOM     27  C   UNL     1      -1.474  -0.546  -2.200  0.00  0.00    +0.046 A 
ATOM     28  C   UNL     1      -2.261  -0.856  -3.292  0.00  0.00    +0.007 A 
BRANCH  26  29
ATOM     29  O   UNL     1       0.671  -0.465  -1.174  0.00  0.00    -0.489 OA
BRANCH  29  30
ATOM     30  C   UNL     1       0.002  -0.011   0.005  0.00  0.00    +0.167 C 
ATOM     31  C   UNL     1      -0.255   1.493  -0.102  0.00  0.00    +0.051 C 
ATOM     32  C   UNL     1       0.875  -0.294   1.228  0.00  0.00    +0.051 C 
ENDBRANCH  29  30
ENDBRANCH  26  29
ENDBRANCH  11  23
TORSDOF 6
