REMARK  Name = ZINC12382325
REMARK  8 active torsions:
REMARK  status: ('A' for Active; 'I' for Inactive)
REMARK    1  A    between atoms: C_1  and  C_2
REMARK    2  A    between atoms: C_2  and  C_3
REMARK    3  A    between atoms: C_2  and  C_4
REMARK    4  A    between atoms: C_4  and  O_5
REMARK    5  A    between atoms: O_5  and  C_6
REMARK    6  A    between atoms: C_6  and  C_8
REMARK    7  A    between atoms: C_21  and  C_24
REMARK    8  A    between atoms: C_28  and  N_30
REMARK                            x       y       z     vdW  Elec       q    Type
REMARK                         _______ _______ _______ _____ _____    ______ ____
ROOT
ATOM      1  C   UNL     1       1.340   0.141  -0.429  0.00  0.00    +0.059 A 
ATOM      2  C   UNL     1      -0.003  -0.234  -0.319  0.00  0.00    +0.017 A 
ATOM      3  C   UNL     1      -0.341  -1.550  -0.204  0.00  0.00    +0.024 A 
ATOM      4  C   UNL     1       0.642  -2.538  -0.195  0.00  0.00    +0.031 A 
ATOM      5  C   UNL     1       1.992  -2.166  -0.294  0.00  0.00    -0.019 A 
ATOM      6  C   UNL     1       2.334  -0.843  -0.421  0.00  0.00    +0.021 A 
ATOM      7  C   UNL     1       3.001  -3.247  -0.256  0.00  0.00    +0.049 C 
ATOM      8  C   UNL     1       4.336  -3.098  -0.891  0.00  0.00    -0.023 C 
ATOM      9  C   UNL     1       4.742  -4.291  -1.309  0.00  0.00    -0.030 C 
ATOM     10  C   UNL     1       3.672  -5.343  -1.008  0.00  0.00    +0.033 C 
ATOM     11  C   UNL     1       2.398  -4.488  -0.980  0.00  0.00    +0.029 C 
ATOM     12  C   UNL     1       1.249  -4.949  -0.102  0.00  0.00    +0.105 C 
ATOM     13  N   UNL     1       0.260  -3.875  -0.110  0.00  0.00    -0.336 N 
ATOM     14  H   UNL     1      -0.683  -4.098  -0.063  0.00  0.00    +0.147 HD
ENDROOT
BRANCH  12  15
ATOM     15  C   UNL     1       1.728  -5.168   1.310  0.00  0.00    -0.025 A 
ATOM     16  C   UNL     1       1.673  -4.134   2.226  0.00  0.00    +0.005 A 
ATOM     17  C   UNL     1       2.107  -4.337   3.523  0.00  0.00    +0.003 A 
ATOM     18  C   UNL     1       2.607  -5.569   3.900  0.00  0.00    +0.033 A 
ATOM     19  C   UNL     1       2.667  -6.601   2.982  0.00  0.00    +0.127 A 
ATOM     20  C   UNL     1       2.227  -6.400   1.687  0.00  0.00    +0.038 A 
BRANCH  19  21
ATOM     21  N   UNL     1       3.202  -7.921   3.385  0.00  0.00    +0.056 N 
ATOM     22  O   UNL     1       3.255  -8.830   2.576  0.00  0.00    -0.126 OA
ATOM     23  O   UNL     1       3.589  -8.098   4.527  0.00  0.00    -0.126 OA
ENDBRANCH  19  21
ENDBRANCH  12  15
BRANCH   1  24
ATOM     24  C   UNL     1       1.705   1.562  -0.560  0.00  0.00    +0.339 C 
ATOM     25  O   UNL     1       2.873   1.884  -0.655  0.00  0.00    -0.245 OA
BRANCH  24  26
ATOM     26  O   UNL     1       0.743   2.506  -0.579  0.00  0.00    -0.461 OA
BRANCH  26  27
ATOM     27  C   UNL     1       1.175   3.886  -0.710  0.00  0.00    +0.235 C 
BRANCH  27  29
ATOM     28  C   UNL     1      -0.747   4.728   0.646  0.00  0.00    +0.010 C 
ATOM     29  C   UNL     1      -0.048   4.805  -0.712  0.00  0.00    +0.020 C 
ATOM     30  C   UNL     1       0.398   6.245  -0.975  0.00  0.00    +0.010 C 
ENDBRANCH  27  29
ENDBRANCH  26  27
ENDBRANCH  24  26
ENDBRANCH   1  24
TORSDOF 6
