REMARK  Name = ZINC57659595
REMARK  6 active torsions:
REMARK  status: ('A' for Active; 'I' for Inactive)
REMARK    1  A    between atoms: C_6  and  C_7
REMARK    2  A    between atoms: C_7  and  C_9
REMARK    3  A    between atoms: C_7  and  C_21
REMARK    4  A    between atoms: C_9  and  C_10
REMARK    5  A    between atoms: N_12  and  C_13
REMARK    6  A    between atoms: C_21  and  N_22
REMARK                            x       y       z     vdW  Elec       q    Type
REMARK                         _______ _______ _______ _____ _____    ______ ____
ROOT
ATOM      1  C   UNL     1      -1.326  -0.763  -0.009  0.00  0.00    +0.010 C 
ENDROOT
BRANCH   1   7
ATOM      2  C   UNL     1      -3.263   0.748  -0.488  0.00  0.00    +0.006 A 
ATOM      3  C   UNL     1      -4.057   1.838  -0.185  0.00  0.00    +0.038 A 
ATOM      4  C   UNL     1      -3.777   2.608   0.931  0.00  0.00    +0.123 A 
ATOM      5  C   UNL     1      -2.702   2.285   1.742  0.00  0.00    +0.038 A 
ATOM      6  C   UNL     1      -1.910   1.195   1.437  0.00  0.00    +0.006 A 
ATOM      7  C   UNL     1      -2.190   0.426   0.323  0.00  0.00    -0.045 A 
ATOM      8  F   UNL     1      -4.551   3.675   1.228  0.00  0.00    -0.205 F 
ENDBRANCH   1   7
BRANCH   1   9
ATOM      9  C   UNL     1      -1.367  -1.762   1.149  0.00  0.00    +0.102 C 
BRANCH   9  10
ATOM     10  C   UNL     1      -2.757  -2.332   1.272  0.00  0.00    +0.214 C 
ATOM     11  O   UNL     1      -3.600  -2.056   0.446  0.00  0.00    -0.276 OA
ATOM     12  N   UNL     1      -3.062  -3.148   2.300  0.00  0.00    -0.311 N 
ATOM     13  H   UNL     1      -2.387  -3.368   2.961  0.00  0.00    +0.149 HD
BRANCH  12  14
ATOM     14  C   UNL     1      -4.413  -3.702   2.420  0.00  0.00    +0.095 C 
ATOM     15  C   UNL     1      -5.315  -2.712   3.174  0.00  0.00    +0.046 C 
ATOM     16  C   UNL     1      -6.635  -3.408   3.585  0.00  0.00    +0.168 C 
ATOM     17  S   UNL     1      -6.129  -5.168   3.749  0.00  0.00    -0.029 S 
ATOM     18  O   UNL     1      -6.833  -5.944   2.790  0.00  0.00    -0.174 OA
ATOM     19  O   UNL     1      -6.180  -5.538   5.121  0.00  0.00    -0.174 OA
ATOM     20  C   UNL     1      -4.367  -5.029   3.231  0.00  0.00    +0.188 C 
ENDBRANCH  12  14
ENDBRANCH   9  10
ENDBRANCH   1   9
BRANCH   1  21
ATOM     21  C   UNL     1       0.115  -0.299  -0.232  0.00  0.00    -0.078 C 
BRANCH  21  22
ATOM     22  N   UNL     1       0.939  -1.444  -0.642  0.00  0.00    +0.379 N 
ATOM     23  H   UNL     1       0.520  -1.890  -1.444  0.00  0.00    -0.090 HD
ATOM     24  H   UNL     1       1.865  -1.123  -0.882  0.00  0.00    -0.090 HD
ATOM     25  H   UNL     1       0.999  -2.105   0.117  0.00  0.00    -0.090 HD
ENDBRANCH  21  22
ENDBRANCH   1  21
TORSDOF 6
