REMARK  Name = ZINC64815464
REMARK  9 active torsions:
REMARK  status: ('A' for Active; 'I' for Inactive)
REMARK    1  A    between atoms: C_1  and  C_2
REMARK    2  A    between atoms: C_2  and  C_3
REMARK    3  A    between atoms: C_6  and  N_9
REMARK    4  A    between atoms: C_14  and  C_31
REMARK    5  A    between atoms: C_18  and  C_19
REMARK    6  A    between atoms: C_18  and  C_20
REMARK    7  A    between atoms: N_22  and  C_23
REMARK    8  A    between atoms: C_23  and  C_24
REMARK    9  A    between atoms: C_27  and  C_30
REMARK                            x       y       z     vdW  Elec       q    Type
REMARK                         _______ _______ _______ _____ _____    ______ ____
ROOT
ATOM      1  N   UNL     1       2.658  -2.080  -4.670  0.00  0.00    -0.250 N 
ATOM      2  C   UNL     1       1.988  -2.447  -5.789  0.00  0.00    +0.270 C 
ATOM      3  O   UNL     1       0.778  -2.362  -5.870  0.00  0.00    -0.268 OA
ATOM      4  C   UNL     1       2.807  -2.955  -6.902  0.00  0.00    +0.125 A 
ATOM      5  C   UNL     1       2.489  -3.235  -8.199  0.00  0.00    +0.063 A 
ATOM      6  C   UNL     1       3.699  -3.672  -8.784  0.00  0.00    +0.100 A 
ATOM      7  N   UNL     1       4.632  -3.637  -7.848  0.00  0.00    -0.170 NA
ATOM      8  N   UNL     1       4.146  -3.236  -6.739  0.00  0.00    -0.256 N 
ATOM      9  C   UNL     1       4.802  -3.077  -5.435  0.00  0.00    +0.179 C 
ATOM     10  C   UNL     1       4.111  -1.954  -4.657  0.00  0.00    +0.135 C 
ATOM     11  C   UNL     1       4.596  -1.985  -3.206  0.00  0.00    +0.044 C 
ENDROOT
BRANCH   1  15
ATOM     12  C   UNL     1       0.515  -1.275  -1.190  0.00  0.00    -0.048 A 
ATOM     13  C   UNL     1       0.858  -2.578  -1.503  0.00  0.00    +0.005 A 
ATOM     14  C   UNL     1       1.568  -2.848  -2.656  0.00  0.00    +0.024 A 
ATOM     15  C   UNL     1       1.938  -1.810  -3.502  0.00  0.00    +0.038 A 
ATOM     16  C   UNL     1       1.591  -0.503  -3.184  0.00  0.00    +0.024 A 
ATOM     17  C   UNL     1       0.876  -0.240  -2.032  0.00  0.00    +0.005 A 
BRANCH  12  19
ATOM     18  C   UNL     1      -1.759  -1.043  -0.229  0.00  0.00    +0.009 C 
ATOM     19  C   UNL     1      -0.260  -0.984   0.070  0.00  0.00    +0.032 C 
ENDBRANCH  12  19
ENDBRANCH   1  15
BRANCH   6  20
ATOM     20  C   UNL     1       3.887  -4.094 -10.190  0.00  0.00    +0.039 A 
ATOM     21  C   UNL     1       5.024  -4.530 -10.814  0.00  0.00    +0.018 A 
ATOM     22  C   UNL     1       4.958  -4.873 -12.148  0.00  0.00    +0.008 A 
ATOM     23  C   UNL     1       3.772  -4.767 -12.800  0.00  0.00    +0.046 A 
ATOM     24  S   UNL     1       2.689  -4.172 -11.511  0.00  0.00    -0.095 S 
ENDBRANCH   6  20
BRANCH  10  25
ATOM     25  C   UNL     1       4.490  -0.628  -5.266  0.00  0.00    +0.239 C 
ATOM     26  O   UNL     1       5.447  -0.017  -4.840  0.00  0.00    -0.273 OA
ATOM     27  N   UNL     1       3.766  -0.122  -6.283  0.00  0.00    -0.309 N 
ATOM     28  H   UNL     1       3.000  -0.611  -6.624  0.00  0.00    +0.149 HD
BRANCH  27  29
ATOM     29  C   UNL     1       4.134   1.166  -6.875  0.00  0.00    +0.139 C 
BRANCH  29  30
ATOM     30  C   UNL     1       3.173   1.503  -7.985  0.00  0.00    -0.030 A 
ATOM     31  C   UNL     1       3.437   1.089  -9.278  0.00  0.00    +0.005 A 
ATOM     32  C   UNL     1       2.555   1.398 -10.296  0.00  0.00    +0.003 A 
ATOM     33  C   UNL     1       1.408   2.119 -10.022  0.00  0.00    -0.050 A 
ATOM     34  C   UNL     1       1.143   2.532  -8.730  0.00  0.00    +0.003 A 
ATOM     35  C   UNL     1       2.023   2.220  -7.710  0.00  0.00    +0.005 A 
ATOM     36  C   UNL     1       0.447   2.457 -11.133  0.00  0.00    +0.044 C 
ENDBRANCH  29  30
ENDBRANCH  27  29
ENDBRANCH  10  25
TORSDOF 6
