REMARK  Name = ZINC06039976
REMARK  6 active torsions:
REMARK  status: ('A' for Active; 'I' for Inactive)
REMARK    1  A    between atoms: C_4  and  C_7
REMARK    2  A    between atoms: C_11  and  C_31
REMARK    3  A    between atoms: N_17  and  C_25
REMARK    4  A    between atoms: C_18  and  C_19
REMARK    5  A    between atoms: C_25  and  C_26
REMARK    6  A    between atoms: C_36  and  O_37
REMARK                            x       y       z     vdW  Elec       q    Type
REMARK                         _______ _______ _______ _____ _____    ______ ____
ROOT
ATOM      1  C   UNL     1       7.179   3.299  -0.150  0.00  0.00    +0.020 A 
ATOM      2  C   UNL     1       6.112   4.264   0.107  0.00  0.00    +0.071 A 
ATOM      3  C   UNL     1       4.675   4.174   0.337  0.00  0.00    +0.169 A 
ATOM      4  N   UNL     1       3.807   3.184   0.403  0.00  0.00    -0.206 NA
ATOM      5  C   UNL     1       2.585   3.672   0.640  0.00  0.00    +0.186 A 
ATOM      6  N   UNL     1       2.652   4.986   0.739  0.00  0.00    -0.143 NA
ATOM      7  N   UNL     1       3.991   5.345   0.548  0.00  0.00    -0.201 N 
ATOM      8  C   UNL     1       4.659   6.528   0.537  0.00  0.00    +0.227 A 
ATOM      9  N   UNL     1       5.941   6.612   0.332  0.00  0.00    -0.217 NA
ATOM     10  C   UNL     1       6.708   5.532   0.115  0.00  0.00    +0.147 A 
ATOM     11  N   UNL     1       8.047   5.367  -0.120  0.00  0.00    -0.317 N 
ATOM     12  C   UNL     1       8.343   4.035  -0.281  0.00  0.00    +0.060 A 
ENDROOT
BRANCH   1  16
ATOM     13  C   UNL     1       6.785  -0.922  -0.441  0.00  0.00    +0.000 A 
ATOM     14  C   UNL     1       6.197  -0.108  -1.393  0.00  0.00    +0.001 A 
ATOM     15  C   UNL     1       6.322   1.263  -1.304  0.00  0.00    +0.008 A 
ATOM     16  C   UNL     1       7.042   1.829  -0.252  0.00  0.00    -0.015 A 
ATOM     17  C   UNL     1       7.636   1.002   0.703  0.00  0.00    +0.008 A 
ATOM     18  C   UNL     1       7.499  -0.367   0.606  0.00  0.00    +0.001 A 
ENDBRANCH   1  16
BRANCH  12  19
ATOM     19  C   UNL     1       9.683   3.480  -0.549  0.00  0.00    -0.001 A 
ATOM     20  C   UNL     1       9.889   2.641  -1.647  0.00  0.00    +0.010 A 
ATOM     21  C   UNL     1      11.146   2.131  -1.896  0.00  0.00    +0.001 A 
ATOM     22  C   UNL     1      12.200   2.438  -1.053  0.00  0.00    +0.000 A 
ATOM     23  C   UNL     1      12.002   3.263   0.040  0.00  0.00    +0.001 A 
ATOM     24  C   UNL     1      10.752   3.785   0.297  0.00  0.00    +0.010 A 
ENDBRANCH  12  19
BRANCH   5  25
ATOM     25  C   UNL     1       1.350   2.863   0.776  0.00  0.00    +0.062 A 
ATOM     26  C   UNL     1       1.404   1.476   0.652  0.00  0.00    +0.015 A 
ATOM     27  C   UNL     1       0.252   0.728   0.780  0.00  0.00    +0.001 A 
ATOM     28  C   UNL     1      -0.959   1.350   1.026  0.00  0.00    +0.004 A 
ATOM     29  C   UNL     1      -1.024   2.724   1.158  0.00  0.00    +0.046 A 
ATOM     30  C   UNL     1       0.126   3.488   1.031  0.00  0.00    +0.128 A 
BRANCH  30  31
ATOM     31  O   UNL     1       0.063   4.839   1.155  0.00  0.00    -0.506 OA
ATOM     32  H   UNL     1      -0.099   5.303   0.322  0.00  0.00    +0.292 HD
ENDBRANCH  30  31
ENDBRANCH   5  25
BRANCH  11  33
ATOM     33  C   UNL     1       9.025   6.455  -0.191  0.00  0.00    +0.198 C 
BRANCH  33  34
ATOM     34  C   UNL     1       9.127   6.947  -1.612  0.00  0.00    +0.124 A 
ATOM     35  C   UNL     1       8.353   7.891  -2.175  0.00  0.00    +0.046 A 
ATOM     36  C   UNL     1       8.794   8.040  -3.510  0.00  0.00    +0.041 A 
ATOM     37  C   UNL     1       9.806   7.172  -3.685  0.00  0.00    +0.195 A 
ATOM     38  O   UNL     1      10.004   6.513  -2.532  0.00  0.00    -0.466 OA
ENDBRANCH  33  34
ENDBRANCH  11  33
TORSDOF 6
