REMARK  Name = ZINC00888362
REMARK  10 active torsions:
REMARK  status: ('A' for Active; 'I' for Inactive)
REMARK    1  A    between atoms: C_1  and  C_2
REMARK    2  A    between atoms: C_5  and  C_7
REMARK    3  A    between atoms: N_10  and  C_12
REMARK    4  A    between atoms: C_12  and  C_13
REMARK    5  A    between atoms: N_15  and  C_16
REMARK    6  A    between atoms: N_15  and  C_28
REMARK    7  A    between atoms: C_19  and  C_22
REMARK    8  A    between atoms: C_28  and  C_30
REMARK    9  A    between atoms: C_28  and  C_35
REMARK   10  A    between atoms: N_37  and  C_38
REMARK                            x       y       z     vdW  Elec       q    Type
REMARK                         _______ _______ _______ _____ _____    ______ ____
ROOT
ATOM      1  C   UNL     1       6.092  -4.485  -2.193  0.00  0.00    +0.244 C 
ATOM      2  O   UNL     1       5.761  -4.143  -3.309  0.00  0.00    -0.273 OA
ATOM      3  N   UNL     1       7.359  -4.880  -1.958  0.00  0.00    -0.251 N 
ENDROOT
BRANCH   3   4
ATOM      4  C   UNL     1       8.324  -4.771  -2.965  0.00  0.00    +0.038 A 
ATOM      5  C   UNL     1       9.585  -5.325  -2.784  0.00  0.00    +0.024 A 
ATOM      6  C   UNL     1      10.535  -5.216  -3.779  0.00  0.00    +0.006 A 
ATOM      7  C   UNL     1      10.233  -4.555  -4.956  0.00  0.00    -0.044 A 
ATOM      8  C   UNL     1       8.979  -4.002  -5.140  0.00  0.00    +0.006 A 
ATOM      9  C   UNL     1       8.022  -4.113  -4.150  0.00  0.00    +0.024 A 
BRANCH   7  10
ATOM     10  C   UNL     1      11.273  -4.438  -6.041  0.00  0.00    +0.019 C 
ATOM     11  C   UNL     1      11.556  -2.960  -6.317  0.00  0.00    +0.008 C 
ATOM     12  C   UNL     1      12.612  -2.841  -7.418  0.00  0.00    +0.001 C 
ATOM     13  C   UNL     1      12.096  -3.509  -8.694  0.00  0.00    +0.000 C 
ATOM     14  C   UNL     1      11.812  -4.987  -8.418  0.00  0.00    +0.001 C 
ATOM     15  C   UNL     1      10.757  -5.106  -7.317  0.00  0.00    +0.008 C 
ENDBRANCH   7  10
ENDBRANCH   3   4
BRANCH   1  16
ATOM     16  C   UNL     1       5.087  -4.469  -1.071  0.00  0.00    +0.264 C 
BRANCH  16  20
ATOM     17  C   UNL     1       2.308  -2.518  -2.035  0.00  0.00    +0.239 A 
ATOM     18  N   UNL     1       1.907  -3.750  -2.385  0.00  0.00    -0.105 NA
ATOM     19  N   UNL     1       2.858  -4.564  -2.075  0.00  0.00    -0.045 NA
ATOM     20  N   UNL     1       3.827  -3.897  -1.552  0.00  0.00    -0.154 N 
ATOM     21  N   UNL     1       3.517  -2.646  -1.521  0.00  0.00    -0.127 NA
BRANCH  17  26
ATOM     22  C   UNL     1       1.099   2.353  -1.899  0.00  0.00    +0.086 C 
ATOM     23  C   UNL     1       1.012   0.868  -2.141  0.00  0.00    +0.103 A 
ATOM     24  C   UNL     1      -0.035   0.222  -2.689  0.00  0.00    +0.045 A 
ATOM     25  C   UNL     1       0.300  -1.147  -2.729  0.00  0.00    +0.053 A 
ATOM     26  C   UNL     1       1.546  -1.261  -2.198  0.00  0.00    +0.175 A 
ATOM     27  O   UNL     1       1.968  -0.030  -1.851  0.00  0.00    -0.457 OA
ENDBRANCH  17  26
ENDBRANCH  16  20
ENDBRANCH   1  16
BRANCH   3  28
ATOM     28  C   UNL     1       7.725  -5.423  -0.648  0.00  0.00    +0.233 C 
BRANCH  28  29
ATOM     29  C   UNL     1       8.067  -6.884  -0.788  0.00  0.00    +0.135 A 
ATOM     30  C   UNL     1       7.928  -7.820   0.169  0.00  0.00    +0.047 A 
ATOM     31  C   UNL     1       8.365  -9.043  -0.389  0.00  0.00    +0.041 A 
ATOM     32  C   UNL     1       8.745  -8.783  -1.652  0.00  0.00    +0.195 A 
ATOM     33  O   UNL     1       8.557  -7.474  -1.890  0.00  0.00    -0.465 OA
ENDBRANCH  28  29
BRANCH  28  34
ATOM     34  C   UNL     1       8.919  -4.677  -0.110  0.00  0.00    +0.242 C 
ATOM     35  O   UNL     1       9.414  -3.778  -0.757  0.00  0.00    -0.273 OA
ATOM     36  N   UNL     1       9.437  -5.009   1.089  0.00  0.00    -0.311 N 
ATOM     37  H   UNL     1       9.042  -5.728   1.606  0.00  0.00    +0.149 HD
BRANCH  36  38
ATOM     38  C   UNL     1      10.598  -4.284   1.611  0.00  0.00    +0.073 C 
ATOM     39  C   UNL     1      11.880  -4.902   1.050  0.00  0.00    +0.022 C 
ATOM     40  C   UNL     1      13.093  -4.144   1.596  0.00  0.00    +0.002 C 
ATOM     41  C   UNL     1      13.107  -4.237   3.123  0.00  0.00    +0.000 C 
ATOM     42  C   UNL     1      11.825  -3.619   3.684  0.00  0.00    +0.002 C 
ATOM     43  C   UNL     1      10.613  -4.376   3.138  0.00  0.00    +0.022 C 
ENDBRANCH  36  38
ENDBRANCH  28  34
ENDBRANCH   3  28
TORSDOF 9
