REMARK  Name = ZINC06084696
REMARK  9 active torsions:
REMARK  status: ('A' for Active; 'I' for Inactive)
REMARK    1  A    between atoms: C_1  and  C_2
REMARK    2  A    between atoms: C_9  and  N_14
REMARK    3  A    between atoms: C_10  and  C_11
REMARK    4  A    between atoms: C_15  and  C_17
REMARK    5  A    between atoms: C_17  and  C_19
REMARK    6  A    between atoms: C_17  and  N_22
REMARK    7  A    between atoms: C_19  and  C_20
REMARK    8  A    between atoms: C_19  and  C_21
REMARK    9  A    between atoms: C_23  and  C_25
REMARK                            x       y       z     vdW  Elec       q    Type
REMARK                         _______ _______ _______ _____ _____    ______ ____
ROOT
ATOM      1  N   UNL     1      -2.010  -0.128   2.944  0.00  0.00    -0.278 N 
ATOM      2  C   UNL     1      -2.274  -1.175   3.751  0.00  0.00    +0.238 C 
ATOM      3  O   UNL     1      -2.993  -2.071   3.365  0.00  0.00    -0.273 OA
ATOM      4  H   UNL     1      -1.498   0.625   3.279  0.00  0.00    +0.155 HD
ENDROOT
BRANCH   1  12
ATOM      5  C   UNL     1      -4.867  -0.467  -4.330  0.00  0.00    +0.008 C 
ATOM      6  C   UNL     1      -4.436   0.077  -2.966  0.00  0.00    -0.009 C 
ATOM      7  C   UNL     1      -3.105   0.821  -3.105  0.00  0.00    +0.008 C 
ATOM      8  C   UNL     1      -2.793   1.576  -1.811  0.00  0.00    +0.037 C 
ATOM      9  C   UNL     1      -2.897   0.607  -0.640  0.00  0.00    -0.023 A 
ATOM     10  C   UNL     1      -3.550  -0.569  -0.765  0.00  0.00    -0.004 A 
ATOM     11  S   UNL     1      -3.396  -1.343   0.820  0.00  0.00    -0.077 S 
ATOM     12  C   UNL     1      -2.471  -0.126   1.637  0.00  0.00    +0.084 A 
ATOM     13  C   UNL     1      -2.303   0.849   0.664  0.00  0.00    +0.068 A 
ATOM     14  C   UNL     1      -4.252  -1.087  -1.982  0.00  0.00    +0.046 C 
BRANCH  13  15
ATOM     15  C   UNL     1      -1.559   2.081   0.944  0.00  0.00    +0.244 C 
ATOM     16  O   UNL     1      -0.359   2.126   0.745  0.00  0.00    -0.270 OA
ATOM     17  N   UNL     1      -2.204   3.164   1.421  0.00  0.00    -0.325 N 
ATOM     18  H   UNL     1      -1.712   3.979   1.605  0.00  0.00    +0.145 HD
ATOM     19  H   UNL     1      -3.161   3.130   1.575  0.00  0.00    +0.145 HD
ENDBRANCH  13  15
ENDBRANCH   1  12
BRANCH   2  20
ATOM     20  C   UNL     1      -1.676  -1.231   5.133  0.00  0.00    +0.162 C 
BRANCH  20  21
ATOM     21  N   UNL     1      -2.501  -2.088   5.988  0.00  0.00    -0.297 N 
ATOM     22  C   UNL     1      -2.493  -1.914   7.324  0.00  0.00    +0.280 C 
ATOM     23  O   UNL     1      -1.802  -1.045   7.821  0.00  0.00    -0.267 OA
ATOM     24  H   UNL     1      -3.052  -2.781   5.592  0.00  0.00    +0.150 HD
BRANCH  22  25
ATOM     25  C   UNL     1      -3.319  -2.772   8.180  0.00  0.00    +0.189 A 
ATOM     26  C   UNL     1      -3.405  -2.704   9.541  0.00  0.00    +0.054 A 
ATOM     27  C   UNL     1      -4.305  -3.705   9.940  0.00  0.00    +0.042 A 
ATOM     28  C   UNL     1      -4.724  -4.332   8.818  0.00  0.00    +0.196 A 
ATOM     29  O   UNL     1      -4.132  -3.764   7.760  0.00  0.00    -0.458 OA
ENDBRANCH  22  25
ENDBRANCH  20  21
BRANCH  20  30
ATOM     30  C   UNL     1      -0.259  -1.803   5.052  0.00  0.00    +0.012 C 
ATOM     31  C   UNL     1       0.398  -1.735   6.433  0.00  0.00    +0.009 C 
ATOM     32  C   UNL     1      -0.323  -3.259   4.589  0.00  0.00    +0.009 C 
ENDBRANCH  20  30
ENDBRANCH   2  20
TORSDOF 6
