REMARK  Name = ZINC63234716
REMARK  11 active torsions:
REMARK  status: ('A' for Active; 'I' for Inactive)
REMARK    1  A    between atoms: C_1  and  C_2
REMARK    2  A    between atoms: C_4  and  C_37
REMARK    3  A    between atoms: N_5  and  C_7
REMARK    4  A    between atoms: C_10  and  C_13
REMARK    5  A    between atoms: N_15  and  C_16
REMARK    6  A    between atoms: C_16  and  C_17
REMARK    7  A    between atoms: C_17  and  C_19
REMARK    8  A    between atoms: C_17  and  C_28
REMARK    9  A    between atoms: C_22  and  N_25
REMARK   10  A    between atoms: N_25  and  C_26
REMARK   11  A    between atoms: N_25  and  C_27
REMARK                            x       y       z     vdW  Elec       q    Type
REMARK                         _______ _______ _______ _____ _____    ______ ____
ROOT
ATOM      1  C   UNL     1       1.941  -8.557   6.107  0.00  0.00    +0.064 C 
ENDROOT
BRANCH   1   2
ATOM      2  C   UNL     1       3.365  -8.192   5.774  0.00  0.00    -0.033 C 
ATOM      3  C   UNL     1       4.037  -7.089   6.175  0.00  0.00    -0.000 A 
ATOM      4  C   UNL     1       3.657  -5.942   7.009  0.00  0.00    +0.010 A 
ATOM      5  C   UNL     1       4.567  -4.968   7.239  0.00  0.00    +0.001 A 
ATOM      6  C   UNL     1       5.861  -5.027   6.702  0.00  0.00    +0.002 A 
ATOM      7  C   UNL     1       6.283  -6.048   5.927  0.00  0.00    +0.026 A 
ATOM      8  C   UNL     1       5.409  -7.127   5.621  0.00  0.00    +0.043 A 
ATOM      9  N   UNL     1       5.579  -8.212   4.905  0.00  0.00    -0.380 N 
ATOM     10  C   UNL     1       4.334  -8.988   4.929  0.00  0.00    +0.145 C 
ATOM     11  H   UNL     1       6.393  -8.462   4.440  0.00  0.00    +0.160 HD
ENDBRANCH   1   2
BRANCH   1  12
ATOM     12  C   UNL     1       1.919  -9.871   6.844  0.00  0.00    -0.039 A 
ATOM     13  C   UNL     1       2.429 -11.008   6.243  0.00  0.00    +0.006 A 
ATOM     14  C   UNL     1       2.410 -12.214   6.916  0.00  0.00    +0.023 A 
ATOM     15  C   UNL     1       1.877 -12.285   8.197  0.00  0.00    +0.029 A 
ATOM     16  C   UNL     1       1.366 -11.141   8.797  0.00  0.00    +0.023 A 
ATOM     17  C   UNL     1       1.393  -9.937   8.121  0.00  0.00    +0.006 A 
BRANCH  15  18
ATOM     18  N   UNL     1       1.856 -13.503   8.879  0.00  0.00    -0.336 N 
ATOM     19  C   UNL     1       2.396 -14.708   8.245  0.00  0.00    +0.129 C 
ATOM     20  C   UNL     1       1.294 -13.576  10.230  0.00  0.00    +0.129 C 
ENDBRANCH  15  18
ENDBRANCH   1  12
BRANCH   1  21
ATOM     21  C   UNL     1       1.131  -8.683   4.815  0.00  0.00    +0.117 C 
BRANCH  21  24
ATOM     22  C   UNL     1       0.384  -7.244   2.996  0.00  0.00    +0.244 C 
ATOM     23  O   UNL     1      -0.155  -8.210   2.492  0.00  0.00    -0.270 OA
ATOM     24  N   UNL     1       1.053  -7.375   4.158  0.00  0.00    -0.310 N 
ATOM     25  H   UNL     1       1.483  -6.604   4.561  0.00  0.00    +0.149 HD
BRANCH  22  29
ATOM     26  C   UNL     1       0.155  -3.453   1.093  0.00  0.00    +0.066 A 
ATOM     27  C   UNL     1      -0.460  -4.557   0.515  0.00  0.00    +0.028 A 
ATOM     28  C   UNL     1      -0.388  -5.788   1.129  0.00  0.00    +0.015 A 
ATOM     29  C   UNL     1       0.305  -5.926   2.334  0.00  0.00    +0.037 A 
ATOM     30  C   UNL     1       0.923  -4.814   2.912  0.00  0.00    +0.015 A 
ATOM     31  C   UNL     1       0.851  -3.588   2.290  0.00  0.00    +0.028 A 
BRANCH  26  36
ATOM     32  C   UNL     1       1.471   0.989  -0.669  0.00  0.00    +0.067 C 
ATOM     33  C   UNL     1       0.674  -0.239  -0.309  0.00  0.00    +0.061 A 
ATOM     34  C   UNL     1      -0.677  -0.453  -0.602  0.00  0.00    +0.047 A 
ATOM     35  C   UNL     1      -1.022  -1.667  -0.116  0.00  0.00    +0.042 A 
ATOM     36  N   UNL     1       0.080  -2.205   0.467  0.00  0.00    -0.237 N 
ATOM     37  N   UNL     1       1.130  -1.288   0.325  0.00  0.00    -0.171 NA
ATOM     38  C   UNL     1      -2.384  -2.308  -0.205  0.00  0.00    +0.066 C 
ENDBRANCH  26  36
ENDBRANCH  22  29
ENDBRANCH  21  24
ENDBRANCH   1  21
TORSDOF 7
