REMARK  Name = ZINC23337349
REMARK  6 active torsions:
REMARK  status: ('A' for Active; 'I' for Inactive)
REMARK    1  A    between atoms: C_1  and  C_2
REMARK    2  A    between atoms: C_2  and  C_3
REMARK    3  A    between atoms: C_2  and  N_4
REMARK    4  A    between atoms: C_6  and  C_9
REMARK    5  A    between atoms: N_23  and  C_24
REMARK    6  A    between atoms: C_24  and  C_25
REMARK                            x       y       z     vdW  Elec       q    Type
REMARK                         _______ _______ _______ _____ _____    ______ ____
ROOT
ATOM      1  C   UNL     1       3.620   4.891   0.003  0.00  0.00    +0.137 C 
ATOM      2  C   UNL     1       2.880   3.574  -0.004  0.00  0.00    +0.042 A 
ATOM      3  C   UNL     1       1.534   3.489   0.007  0.00  0.00    -0.016 A 
ATOM      4  C   UNL     1       1.185   2.074   0.002  0.00  0.00    +0.003 A 
ATOM      5  C   UNL     1      -0.016   1.362   0.009  0.00  0.00    +0.010 A 
ATOM      6  C   UNL     1       0.002  -0.004   0.002  0.00  0.00    +0.001 A 
ATOM      7  C   UNL     1       1.207  -0.694  -0.013  0.00  0.00    +0.002 A 
ATOM      8  C   UNL     1       2.404  -0.013  -0.022  0.00  0.00    +0.026 A 
ATOM      9  C   UNL     1       2.410   1.378  -0.014  0.00  0.00    +0.047 A 
ATOM     10  N   UNL     1       3.417   2.320  -0.018  0.00  0.00    -0.356 N 
ATOM     11  H   UNL     1       4.509   2.190  -0.031  0.00  0.00    +0.166 HD
ATOM     12  C   UNL     1       0.619   4.687   0.021  0.00  0.00    +0.053 C 
ATOM     13  C   UNL     1       1.448   5.918  -0.369  0.00  0.00    +0.090 C 
ATOM     14  N   UNL     1       2.685   5.947   0.424  0.00  0.00    -0.284 NA
ENDROOT
BRANCH   1  17
ATOM     15  N   UNL     1       6.786   4.613   1.791  0.00  0.00    -0.269 N 
ATOM     16  C   UNL     1       6.070   4.601   0.647  0.00  0.00    +0.114 A 
ATOM     17  C   UNL     1       4.774   4.820   0.969  0.00  0.00    +0.013 A 
ATOM     18  C   UNL     1       4.694   4.963   2.358  0.00  0.00    +0.140 A 
ATOM     19  N   UNL     1       5.899   4.840   2.852  0.00  0.00    -0.179 NA
BRANCH  15  21
ATOM     20  C   UNL     1       8.545   2.922   1.953  0.00  0.00    +0.032 C 
ATOM     21  C   UNL     1       8.233   4.419   1.904  0.00  0.00    +0.101 C 
ATOM     22  C   UNL     1       8.928   5.045   0.692  0.00  0.00    +0.032 C 
ENDBRANCH  15  21
ENDBRANCH   1  17
BRANCH  14  23
ATOM     23  C   UNL     1       3.321   7.270   0.360  0.00  0.00    +0.139 C 
BRANCH  23  24
ATOM     24  C   UNL     1       2.430   8.288   1.024  0.00  0.00    +0.041 A 
ATOM     25  C   UNL     1       2.514   8.696   2.305  0.00  0.00    +0.024 A 
ATOM     26  C   UNL     1       1.500   9.654   2.513  0.00  0.00    +0.020 A 
ATOM     27  C   UNL     1       0.828   9.790   1.353  0.00  0.00    +0.094 A 
ATOM     28  N   UNL     1       1.393   8.954   0.431  0.00  0.00    -0.288 N 
ATOM     29  C   UNL     1       0.981   8.805  -0.892  0.00  0.00    +0.235 A 
ATOM     30  N   UNL     1       1.627   7.958  -1.678  0.00  0.00    -0.220 NA
ATOM     31  C   UNL     1       1.259   7.789  -2.937  0.00  0.00    +0.116 A 
ATOM     32  C   UNL     1       0.190   8.519  -3.433  0.00  0.00    +0.039 A 
ATOM     33  C   UNL     1      -0.461   9.400  -2.583  0.00  0.00    +0.116 A 
ATOM     34  N   UNL     1      -0.044   9.517  -1.333  0.00  0.00    -0.220 NA
ENDBRANCH  23  24
ENDBRANCH  14  23
TORSDOF 4
