REMARK  Name = ZINC27523070
REMARK  9 active torsions:
REMARK  status: ('A' for Active; 'I' for Inactive)
REMARK    1  A    between atoms: C_1  and  C_2
REMARK    2  A    between atoms: C_6  and  C_34
REMARK    3  A    between atoms: C_7  and  C_8
REMARK    4  A    between atoms: C_13  and  C_16
REMARK    5  A    between atoms: C_13  and  N_17
REMARK    6  A    between atoms: C_20  and  C_23
REMARK    7  A    between atoms: C_23  and  C_27
REMARK    8  A    between atoms: N_24  and  O_25
REMARK    9  A    between atoms: O_25  and  C_26
REMARK                            x       y       z     vdW  Elec       q    Type
REMARK                         _______ _______ _______ _____ _____    ______ ____
ROOT
ATOM      1  N   UNL     1       0.496   4.045  -1.200  0.00  0.00    +0.383 N 
ATOM      2  C   UNL     1       1.243   3.618  -0.011  0.00  0.00    -0.077 C 
ATOM      3  C   UNL     1       1.333   2.090   0.015  0.00  0.00    -0.009 C 
ATOM      4  C   UNL     1      -0.080   1.500   0.037  0.00  0.00    +0.038 C 
ATOM      5  C   UNL     1      -0.852   2.000  -1.187  0.00  0.00    -0.009 C 
ATOM      6  C   UNL     1      -0.879   3.530  -1.177  0.00  0.00    -0.077 C 
ATOM      7  H   UNL     1       0.998   3.621  -2.082  0.00  0.00    -0.081 HD
ENDROOT
BRANCH   1  13
ATOM      8  C   UNL     1      -1.719   8.956  -1.512  0.00  0.00    +0.249 C 
ATOM      9  O   UNL     1      -2.229   9.270  -2.569  0.00  0.00    -0.270 OA
ATOM     10  N   UNL     1      -0.719   8.052  -1.488  0.00  0.00    -0.298 N 
ATOM     11  C   UNL     1      -0.236   7.438  -2.733  0.00  0.00    +0.107 C 
ATOM     12  C   UNL     1      -0.280   5.914  -2.580  0.00  0.00    +0.007 C 
ATOM     13  C   UNL     1       0.507   5.508  -1.332  0.00  0.00    -0.066 C 
ATOM     14  C   UNL     1      -0.137   6.136  -0.094  0.00  0.00    +0.007 C 
ATOM     15  C   UNL     1      -0.092   7.663  -0.218  0.00  0.00    +0.107 C 
ATOM     16  C   UNL     1       1.952   5.997  -1.458  0.00  0.00    -0.010 C 
BRANCH   8  23
ATOM     17  C   UNL     1      -3.882   7.699   0.003  0.00  0.00    +0.044 C 
ATOM     18  C   UNL     1      -3.228   8.970   0.481  0.00  0.00    -0.035 A 
ATOM     19  C   UNL     1      -3.636   9.581   1.655  0.00  0.00    +0.024 A 
ATOM     20  C   UNL     1      -3.014  10.747   2.063  0.00  0.00    +0.111 A 
ATOM     21  N   UNL     1      -2.041  11.284   1.352  0.00  0.00    -0.259 NA
ATOM     22  C   UNL     1      -1.615  10.739   0.232  0.00  0.00    +0.051 A 
ATOM     23  C   UNL     1      -2.194   9.565  -0.251  0.00  0.00    +0.061 A 
ATOM     24  C   UNL     1      -0.496  11.392  -0.538  0.00  0.00    +0.066 C 
ENDBRANCH   8  23
ENDBRANCH   1  13
BRANCH   4  25
ATOM     25  C   UNL     1       0.002  -0.004   0.002  0.00  0.00    +0.090 C 
ATOM     26  N   UNL     1      -0.403  -0.698   1.016  0.00  0.00    -0.089 NA
BRANCH  25  27
ATOM     27  C   UNL     1       0.544  -0.686  -1.190  0.00  0.00    -0.000 A 
ATOM     28  C   UNL     1       1.115   0.058  -2.224  0.00  0.00    +0.011 A 
ATOM     29  C   UNL     1       1.625  -0.586  -3.332  0.00  0.00    +0.016 A 
ATOM     30  C   UNL     1       1.561  -1.966  -3.425  0.00  0.00    +0.018 A 
ATOM     31  C   UNL     1       0.991  -2.709  -2.406  0.00  0.00    +0.016 A 
ATOM     32  C   UNL     1       0.483  -2.077  -1.290  0.00  0.00    +0.011 A 
ATOM     33 BR   UNL     1       2.255  -2.839  -4.952  0.00  0.00    -0.050 Br
ENDBRANCH  25  27
BRANCH  26  34
ATOM     34  O   UNL     1      -1.026  -0.053   2.112  0.00  0.00    -0.397 OA
ATOM     35  C   UNL     1      -1.422  -0.940   3.160  0.00  0.00    +0.313 C 
ENDBRANCH  26  34
ENDBRANCH   4  25
TORSDOF 5
