REMARK  Name = ZINC03978037
REMARK  11 active torsions:
REMARK  status: ('A' for Active; 'I' for Inactive)
REMARK    1  A    between atoms: C_1  and  C_2
REMARK    2  A    between atoms: C_2  and  C_3
REMARK    3  A    between atoms: C_2  and  C_4
REMARK    4  A    between atoms: C_4  and  C_5
REMARK    5  A    between atoms: C_15  and  O_48
REMARK    6  A    between atoms: C_19  and  C_21
REMARK    7  A    between atoms: C_19  and  N_25
REMARK    8  A    between atoms: C_21  and  C_23
REMARK    9  A    between atoms: C_21  and  C_24
REMARK   10  A    between atoms: C_26  and  C_28
REMARK   11  A    between atoms: C_47  and  N_83
REMARK                            x       y       z     vdW  Elec       q    Type
REMARK                         _______ _______ _______ _____ _____    ______ ____
ROOT
ATOM      1  N   UNL     1      -3.715  -1.509  -2.296  0.00  0.00    -0.279 N 
ATOM      2  C   UNL     1      -4.329  -0.718  -1.394  0.00  0.00    +0.220 C 
ATOM      3  O   UNL     1      -5.306  -0.075  -1.717  0.00  0.00    -0.275 OA
ATOM      4  H   UNL     1      -2.892  -1.966  -2.059  0.00  0.00    +0.152 HD
ENDROOT
BRANCH   2   5
ATOM      5  C   UNL     1      -3.803  -0.632   0.015  0.00  0.00    +0.081 C 
ATOM      6  C   UNL     1      -4.657   0.348   0.827  0.00  0.00    -0.061 C 
ATOM      7  C   UNL     1      -3.162   2.215   0.353  0.00  0.00    -0.033 C 
ATOM      8  C   UNL     1      -3.010   3.419  -0.588  0.00  0.00    +0.028 C 
ATOM      9  C   UNL     1      -1.577   3.885  -0.576  0.00  0.00    -0.009 A 
ATOM     10  C   UNL     1      -0.514   2.947  -0.234  0.00  0.00    +0.011 A 
ATOM     11  C   UNL     1      -0.697   1.594   0.122  0.00  0.00    -0.014 A 
ATOM     12  C   UNL     1       0.454   0.892   0.400  0.00  0.00    +0.009 A 
ATOM     13  C   UNL     1       1.689   1.533   0.324  0.00  0.00    +0.003 A 
ATOM     14  C   UNL     1       1.859   2.868  -0.021  0.00  0.00    +0.026 A 
ATOM     15  C   UNL     1       0.714   3.609  -0.312  0.00  0.00    +0.048 A 
ATOM     16  N   UNL     1       0.412   4.887  -0.675  0.00  0.00    -0.349 N 
ATOM     17  H   UNL     1       1.063   5.594  -0.806  0.00  0.00    +0.166 HD
ATOM     18  C   UNL     1      -0.958   5.034  -0.833  0.00  0.00    +0.087 A 
ATOM     19 BR   UNL     1      -1.823   6.639  -1.332  0.00  0.00    -0.031 Br
ATOM     20  C   UNL     1      -2.106   1.158   0.145  0.00  0.00    -0.056 C 
ATOM     21  C   UNL     1      -2.386  -0.124  -0.003  0.00  0.00    -0.014 C 
ATOM     22  C   UNL     1      -5.488   2.623   0.838  0.00  0.00    -0.095 C 
ATOM     23  N   UNL     1      -4.535   1.694   0.212  0.00  0.00    +0.383 N 
ATOM     24  H   UNL     1      -4.756   1.617  -0.787  0.00  0.00    -0.081 HD
ENDBRANCH   2   5
BRANCH   1  37
ATOM     25  C   UNL     1      -2.834   0.678  -6.150  0.00  0.00    +0.167 C 
ATOM     26  C   UNL     1      -2.196   0.085  -7.378  0.00  0.00    +0.237 C 
ATOM     27  O   UNL     1      -1.980   0.793  -8.339  0.00  0.00    -0.274 OA
ATOM     28  N   UNL     1      -1.863  -1.212  -7.427  0.00  0.00    -0.290 N 
ATOM     29  C   UNL     1      -1.040  -1.853  -8.470  0.00  0.00    +0.108 C 
ATOM     30  C   UNL     1      -0.370  -3.080  -7.823  0.00  0.00    +0.021 C 
ATOM     31  C   UNL     1      -0.896  -3.103  -6.367  0.00  0.00    +0.031 C 
ATOM     32  C   UNL     1      -2.193  -2.268  -6.461  0.00  0.00    +0.156 C 
ATOM     33  C   UNL     1      -2.560  -1.698  -5.106  0.00  0.00    +0.269 C 
ATOM     34  N   UNL     1      -3.222  -0.399  -5.237  0.00  0.00    -0.233 N 
ATOM     35  C   UNL     1      -4.271  -0.364  -4.383  0.00  0.00    +0.271 C 
ATOM     36  O   UNL     1      -5.052   0.553  -4.245  0.00  0.00    -0.270 OA
ATOM     37  C   UNL     1      -4.288  -1.679  -3.633  0.00  0.00    +0.220 C 
ATOM     38  O   UNL     1      -3.472  -2.569  -4.419  0.00  0.00    -0.298 OA
BRANCH  37  39
ATOM     39  C   UNL     1      -5.718  -2.214  -3.533  0.00  0.00    +0.043 C 
ATOM     40  C   UNL     1      -6.213  -2.609  -4.926  0.00  0.00    +0.012 C 
ATOM     41  C   UNL     1      -5.741  -3.439  -2.617  0.00  0.00    +0.012 C 
ENDBRANCH  37  39
BRANCH  33  42
ATOM     42  O   UNL     1      -1.380  -1.554  -4.313  0.00  0.00    -0.348 OA
ATOM     43  H   UNL     1      -1.544  -1.216  -3.422  0.00  0.00    +0.214 HD
ENDBRANCH  33  42
BRANCH  25  44
ATOM     44  C   UNL     1      -4.074   1.477  -6.554  0.00  0.00    +0.035 C 
BRANCH  44  46
ATOM     45  C   UNL     1      -5.392  -0.599  -6.995  0.00  0.00    +0.007 C 
ATOM     46  C   UNL     1      -4.862   0.698  -7.609  0.00  0.00    -0.015 C 
ATOM     47  C   UNL     1      -6.035   1.547  -8.101  0.00  0.00    +0.007 C 
ENDBRANCH  44  46
ENDBRANCH  25  44
ENDBRANCH   1  37
TORSDOF 6
