REMARK  Name = ZINC34788597
REMARK  9 active torsions:
REMARK  status: ('A' for Active; 'I' for Inactive)
REMARK    1  A    between atoms: C_1  and  C_2
REMARK    2  A    between atoms: C_2  and  C_3
REMARK    3  A    between atoms: C_3  and  C_4
REMARK    4  A    between atoms: C_4  and  C_29
REMARK    5  A    between atoms: C_11  and  N_26
REMARK    6  A    between atoms: C_13  and  S_15
REMARK    7  A    between atoms: S_15  and  C_16
REMARK    8  A    between atoms: C_16  and  C_17
REMARK    9  A    between atoms: N_19  and  C_20
REMARK                            x       y       z     vdW  Elec       q    Type
REMARK                         _______ _______ _______ _____ _____    ______ ____
ROOT
ATOM      1  C   UNL     1       0.718  -2.192  -2.047  0.00  0.00    +0.071 C 
ATOM      2  C   UNL     1       1.439  -2.709  -3.295  0.00  0.00    +0.071 C 
ATOM      3  C   UNL     1       1.647  -4.214  -3.134  0.00  0.00    -0.020 A 
ATOM      4  C   UNL     1       1.549  -4.770  -1.903  0.00  0.00    +0.021 A 
ATOM      5  S   UNL     1       1.852  -6.500  -2.147  0.00  0.00    -0.071 S 
ATOM      6  C   UNL     1       2.109  -6.478  -3.893  0.00  0.00    +0.115 A 
ATOM      7  C   UNL     1       1.950  -5.110  -4.234  0.00  0.00    +0.051 A 
ATOM      8  C   UNL     1       2.101  -4.767  -5.609  0.00  0.00    +0.129 A 
ATOM      9  N   UNL     1       2.379  -5.774  -6.435  0.00  0.00    -0.207 NA
ATOM     10  C   UNL     1       2.515  -7.032  -6.045  0.00  0.00    +0.191 A 
ATOM     11  N   UNL     1       2.386  -7.419  -4.774  0.00  0.00    -0.214 NA
ATOM     12  C   UNL     1       1.248  -4.048  -0.627  0.00  0.00    +0.203 C 
ATOM     13  O   UNL     1       1.393  -2.640  -0.868  0.00  0.00    -0.368 OA
ATOM     14  C   UNL     1      -0.719  -2.718  -2.040  0.00  0.00    +0.042 C 
ENDROOT
BRANCH   8  15
ATOM     15  N   UNL     1       1.968  -3.466  -6.059  0.00  0.00    -0.343 N 
ATOM     16  H   UNL     1       1.698  -2.766  -5.444  0.00  0.00    +0.144 HD
ATOM     17  H   UNL     1       2.144  -3.254  -6.989  0.00  0.00    +0.144 HD
ENDBRANCH   8  15
BRANCH   1  18
ATOM     18  C   UNL     1       0.698  -0.662  -2.070  0.00  0.00    +0.035 C 
BRANCH  18  20
ATOM     19  C   UNL     1      -0.056   1.387  -0.856  0.00  0.00    +0.004 C 
ATOM     20  C   UNL     1      -0.036  -0.143  -0.833  0.00  0.00    -0.001 C 
ENDBRANCH  18  20
ENDBRANCH   1  18
BRANCH  10  21
ATOM     21  S   UNL     1       2.884  -8.253  -7.261  0.00  0.00    -0.077 S 
BRANCH  21  22
ATOM     22  C   UNL     1       2.970  -7.316  -8.812  0.00  0.00    +0.173 C 
BRANCH  22  23
ATOM     23  C   UNL     1       3.284  -8.254  -9.949  0.00  0.00    +0.227 C 
ATOM     24  O   UNL     1       3.434  -9.438  -9.734  0.00  0.00    -0.275 OA
ATOM     25  N   UNL     1       3.397  -7.777 -11.204  0.00  0.00    -0.285 N 
ATOM     26  H   UNL     1       3.355  -6.821 -11.366  0.00  0.00    +0.155 HD
BRANCH  25  27
ATOM     27  C   UNL     1       3.575  -8.660 -12.275  0.00  0.00    +0.033 A 
ATOM     28  C   UNL     1       4.370  -8.294 -13.353  0.00  0.00    +0.023 A 
ATOM     29  C   UNL     1       4.544  -9.168 -14.409  0.00  0.00    +0.002 A 
ATOM     30  C   UNL     1       3.927 -10.406 -14.392  0.00  0.00    +0.000 A 
ATOM     31  C   UNL     1       3.135 -10.772 -13.320  0.00  0.00    +0.002 A 
ATOM     32  C   UNL     1       2.962  -9.905 -12.259  0.00  0.00    +0.023 A 
ENDBRANCH  25  27
ENDBRANCH  22  23
ENDBRANCH  21  22
ENDBRANCH  10  21
TORSDOF 7
