REMARK  Name = ZINC40356699
REMARK  13 active torsions:
REMARK  status: ('A' for Active; 'I' for Inactive)
REMARK    1  A    between atoms: C_1  and  C_2
REMARK    2  A    between atoms: C_2  and  C_3
REMARK    3  A    between atoms: C_3  and  C_4
REMARK    4  A    between atoms: C_4  and  N_5
REMARK    5  A    between atoms: N_5  and  C_6
REMARK    6  A    between atoms: N_5  and  S_27
REMARK    7  A    between atoms: C_6  and  C_8
REMARK    8  A    between atoms: C_6  and  C_9
REMARK    9  A    between atoms: N_19  and  C_20
REMARK   10  A    between atoms: S_27  and  C_30
REMARK   11  A    between atoms: C_31  and  C_38
REMARK   12  A    between atoms: C_33  and  C_37
REMARK   13  A    between atoms: C_35  and  C_36
REMARK                            x       y       z     vdW  Elec       q    Type
REMARK                         _______ _______ _______ _____ _____    ______ ____
ROOT
ATOM      1  C   UNL     1      -2.382  -2.913  -0.565  0.00  0.00    +0.143 C 
ATOM      2  C   UNL     1      -2.072  -1.498  -1.059  0.00  0.00    +0.034 C 
ENDROOT
BRANCH   1   3
ATOM      3  C   UNL     1      -1.571  -3.909  -1.353  0.00  0.00    +0.136 A 
ATOM      4  N   UNL     1      -0.286  -3.737  -1.426  0.00  0.00    -0.231 NA
ATOM      5  C   UNL     1       0.508  -4.593  -2.117  0.00  0.00    +0.078 A 
ATOM      6  C   UNL     1       1.890  -4.409  -2.195  0.00  0.00    +0.028 A 
ATOM      7  C   UNL     1       2.657  -5.303  -2.907  0.00  0.00    +0.002 A 
ATOM      8  C   UNL     1       2.075  -6.388  -3.550  0.00  0.00    +0.001 A 
ATOM      9  C   UNL     1       0.714  -6.590  -3.487  0.00  0.00    +0.015 A 
ATOM     10  C   UNL     1      -0.082  -5.698  -2.771  0.00  0.00    +0.065 A 
ATOM     11  C   UNL     1      -1.539  -5.864  -2.669  0.00  0.00    +0.266 A 
ATOM     12  O   UNL     1      -2.108  -6.795  -3.209  0.00  0.00    -0.267 OA
ATOM     13  N   UNL     1      -2.222  -4.946  -1.946  0.00  0.00    -0.263 N 
BRANCH  13  14
ATOM     14  C   UNL     1      -3.612  -5.061  -1.813  0.00  0.00    +0.051 A 
ATOM     15  C   UNL     1      -4.448  -4.149  -2.443  0.00  0.00    +0.029 A 
ATOM     16  C   UNL     1      -5.818  -4.265  -2.311  0.00  0.00    +0.040 A 
ATOM     17  C   UNL     1      -6.358  -5.289  -1.551  0.00  0.00    +0.124 A 
ATOM     18  C   UNL     1      -5.525  -6.199  -0.921  0.00  0.00    +0.040 A 
ATOM     19  C   UNL     1      -4.155  -6.090  -1.056  0.00  0.00    +0.029 A 
ATOM     20  F   UNL     1      -7.698  -5.400  -1.423  0.00  0.00    -0.205 F 
ENDBRANCH  13  14
ENDBRANCH   1   3
BRANCH   1  21
ATOM     21  N   UNL     1      -2.041  -3.020   0.856  0.00  0.00    -0.166 NA
BRANCH  21  22
ATOM     22  S   UNL     1      -3.175  -3.546   1.942  0.00  0.00    +0.062 S 
ATOM     23  O   UNL     1      -4.215  -4.149   1.184  0.00  0.00    -0.153 OA
ATOM     24  O   UNL     1      -2.470  -4.244   2.959  0.00  0.00    -0.153 OA
BRANCH  22  25
ATOM     25  C   UNL     1      -3.871  -2.116   2.702  0.00  0.00    +0.111 A 
ATOM     26  C   UNL     1      -5.061  -1.594   2.232  0.00  0.00    -0.024 A 
ATOM     27  C   UNL     1      -5.607  -0.472   2.829  0.00  0.00    +0.008 A 
ATOM     28  C   UNL     1      -4.962   0.126   3.895  0.00  0.00    -0.050 A 
ATOM     29  C   UNL     1      -3.772  -0.397   4.366  0.00  0.00    +0.008 A 
ATOM     30  C   UNL     1      -3.229  -1.521   3.772  0.00  0.00    -0.024 A 
ATOM     31  C   UNL     1      -1.934  -2.094   4.288  0.00  0.00    +0.046 C 
ATOM     32  C   UNL     1      -5.556   1.349   4.545  0.00  0.00    +0.044 C 
ATOM     33  C   UNL     1      -5.764  -2.246   1.070  0.00  0.00    +0.046 C 
ENDBRANCH  22  25
ENDBRANCH  21  22
BRANCH  21  34
ATOM     34  C   UNL     1      -0.697  -2.662   1.316  0.00  0.00    +0.110 C 
BRANCH  34  35
ATOM     35  C   UNL     1      -0.587  -1.140   1.435  0.00  0.00    +0.017 C 
BRANCH  35  37
ATOM     36  C   UNL     1       0.877   0.748   2.164  0.00  0.00    +0.004 C 
ATOM     37  C   UNL     1       0.767  -0.773   2.045  0.00  0.00    -0.002 C 
ENDBRANCH  35  37
ENDBRANCH  34  35
ENDBRANCH  21  34
ENDBRANCH   1  21
TORSDOF 8
