REMARK  Name = ZINC66193355
REMARK  5 active torsions:
REMARK  status: ('A' for Active; 'I' for Inactive)
REMARK    1  A    between atoms: C_1  and  C_2
REMARK    2  A    between atoms: C_4  and  C_29
REMARK    3  A    between atoms: C_8  and  N_13
REMARK    4  A    between atoms: C_19  and  N_22
REMARK    5  A    between atoms: C_23  and  C_25
REMARK                            x       y       z     vdW  Elec       q    Type
REMARK                         _______ _______ _______ _____ _____    ______ ____
ROOT
ATOM      1  N   UNL     1       0.370  -2.985   5.248  0.00  0.00    -0.292 N 
ATOM      2  C   UNL     1      -0.673  -2.275   4.775  0.00  0.00    +0.303 C 
ATOM      3  O   UNL     1      -0.793  -2.095   3.579  0.00  0.00    -0.253 OA
ATOM      4  N   UNL     1      -1.584  -1.764   5.628  0.00  0.00    -0.286 N 
ATOM      5  C   UNL     1      -2.789  -1.093   5.123  0.00  0.00    +0.111 C 
ATOM      6  C   UNL     1      -2.882   0.298   5.759  0.00  0.00    +0.041 C 
ATOM      7  C   UNL     1      -2.830   0.162   7.283  0.00  0.00    +0.076 C 
ATOM      8  C   UNL     1      -1.499  -0.470   7.695  0.00  0.00    +0.041 C 
ATOM      9  C   UNL     1      -1.393  -1.875   7.081  0.00  0.00    +0.111 C 
ATOM     10  H   UNL     1       0.506  -3.068   6.205  0.00  0.00    +0.151 HD
ENDROOT
BRANCH   1  18
ATOM     11  C   UNL     1       0.899  -7.630   7.275  0.00  0.00    +0.044 C 
ATOM     12  C   UNL     1       1.749  -6.727   6.420  0.00  0.00    -0.050 A 
ATOM     13  C   UNL     1       3.099  -6.988   6.267  0.00  0.00    +0.010 A 
ATOM     14  C   UNL     1       3.877  -6.160   5.485  0.00  0.00    -0.008 A 
ATOM     15  C   UNL     1       3.308  -5.061   4.848  0.00  0.00    +0.128 A 
ATOM     16  C   UNL     1       1.956  -4.804   5.000  0.00  0.00    +0.015 A 
ATOM     17  C   UNL     1       1.180  -5.641   5.784  0.00  0.00    +0.012 A 
ATOM     18  C   UNL     1       1.298  -3.631   4.318  0.00  0.00    +0.111 C 
ATOM     19  C   UNL     1       2.364  -2.624   3.881  0.00  0.00    +0.068 C 
ATOM     20  C   UNL     1       3.480  -3.386   3.155  0.00  0.00    +0.231 C 
ATOM     21  O   UNL     1       4.107  -4.265   4.090  0.00  0.00    -0.491 OA
ATOM     22  C   UNL     1       5.347  -6.444   5.321  0.00  0.00    +0.047 C 
ENDBRANCH   1  18
BRANCH   7  23
ATOM     23  N   UNL     1      -2.952   1.486   7.896  0.00  0.00    -0.312 N 
ATOM     24  C   UNL     1      -3.429   1.607   9.150  0.00  0.00    +0.216 C 
ATOM     25  O   UNL     1      -3.758   0.619   9.772  0.00  0.00    -0.276 OA
ATOM     26  H   UNL     1      -2.689   2.277   7.399  0.00  0.00    +0.149 HD
BRANCH  24  27
ATOM     27  C   UNL     1      -3.555   2.970   9.781  0.00  0.00    +0.075 C 
ATOM     28  C   UNL     1      -2.242   3.490  10.390  0.00  0.00    +0.013 C 
ATOM     29  C   UNL     1      -3.089   4.030  11.555  0.00  0.00    +0.001 C 
ATOM     30  C   UNL     1      -4.115   2.938  11.212  0.00  0.00    +0.013 C 
ENDBRANCH  24  27
ENDBRANCH   7  23
TORSDOF 3
