REMARK  Name = ZINC00969334
REMARK  10 active torsions:
REMARK  status: ('A' for Active; 'I' for Inactive)
REMARK    1  A    between atoms: C_1  and  C_2
REMARK    2  A    between atoms: C_5  and  C_7
REMARK    3  A    between atoms: C_12  and  C_16
REMARK    4  A    between atoms: C_12  and  C_17
REMARK    5  A    between atoms: C_19  and  C_32
REMARK    6  A    between atoms: C_20  and  C_21
REMARK    7  A    between atoms: C_21  and  O_23
REMARK    8  A    between atoms: O_23  and  C_24
REMARK    9  A    between atoms: C_24  and  C_25
REMARK   10  A    between atoms: C_25  and  C_26
REMARK                            x       y       z     vdW  Elec       q    Type
REMARK                         _______ _______ _______ _____ _____    ______ ____
ROOT
ATOM      1  C   UNL     1      -0.045   3.650   0.862  0.00  0.00    +0.128 C 
ATOM      2  C   UNL     1       1.207   2.950   0.397  0.00  0.00    +0.027 C 
ATOM      3  C   UNL     1       1.169   1.660  -0.000  0.00  0.00    +0.016 C 
ATOM      4  C   UNL     1       2.418   0.953  -0.466  0.00  0.00    +0.058 C 
ATOM      5  C   UNL     1       3.636   1.531   0.258  0.00  0.00    -0.023 C 
ATOM      6  C   UNL     1       3.705   3.034  -0.032  0.00  0.00    +0.086 C 
ATOM      7  C   UNL     1       2.412   3.674   0.394  0.00  0.00    +0.162 C 
ATOM      8  O   UNL     1       2.409   4.839   0.741  0.00  0.00    -0.292 OA
ATOM      9  C   UNL     1       3.494   1.304   1.765  0.00  0.00    +0.011 C 
ATOM     10  C   UNL     1       4.907   0.846  -0.248  0.00  0.00    +0.011 C 
ATOM     11  N   UNL     1      -0.011   0.966   0.007  0.00  0.00    -0.321 N 
ATOM     12  C   UNL     1      -1.208   1.627   0.017  0.00  0.00    +0.016 C 
ATOM     13  C   UNL     1      -1.272   2.910   0.418  0.00  0.00    +0.068 C 
ATOM     14  C   UNL     1      -2.461   0.912  -0.420  0.00  0.00    +0.061 C 
ATOM     15  H   UNL     1      -0.002  -0.134   0.006  0.00  0.00    +0.152 HD
ENDROOT
BRANCH   1  20
ATOM     16  C   UNL     1       0.036   2.282   5.716  0.00  0.00    +0.086 C 
ATOM     17  C   UNL     1      -0.001   3.139   4.477  0.00  0.00    +0.102 A 
ATOM     18  C   UNL     1      -0.043   4.484   4.452  0.00  0.00    +0.044 A 
ATOM     19  C   UNL     1      -0.065   4.867   3.091  0.00  0.00    +0.046 A 
ATOM     20  C   UNL     1      -0.036   3.734   2.366  0.00  0.00    +0.117 A 
ATOM     21  O   UNL     1      -0.003   2.691   3.211  0.00  0.00    -0.464 OA
ENDBRANCH   1  20
BRANCH  13  22
ATOM     22  C   UNL     1      -2.521   3.574   0.417  0.00  0.00    +0.338 C 
ATOM     23  O   UNL     1      -3.523   2.985   0.059  0.00  0.00    -0.245 OA
BRANCH  22  24
ATOM     24  O   UNL     1      -2.600   4.862   0.812  0.00  0.00    -0.461 OA
BRANCH  24  25
ATOM     25  C   UNL     1      -3.893   5.470   0.786  0.00  0.00    +0.237 C 
BRANCH  25  26
ATOM     26  C   UNL     1      -3.785   6.919   1.264  0.00  0.00    +0.076 C 
BRANCH  26  27
ATOM     27  C   UNL     1      -5.148   7.561   1.237  0.00  0.00    -0.044 A 
ATOM     28  C   UNL     1      -5.580   8.217   0.099  0.00  0.00    +0.004 A 
ATOM     29  C   UNL     1      -6.832   8.802   0.072  0.00  0.00    +0.000 A 
ATOM     30  C   UNL     1      -7.649   8.738   1.186  0.00  0.00    +0.000 A 
ATOM     31  C   UNL     1      -7.215   8.085   2.325  0.00  0.00    +0.000 A 
ATOM     32  C   UNL     1      -5.965   7.497   2.350  0.00  0.00    +0.004 A 
ENDBRANCH  26  27
ENDBRANCH  25  26
ENDBRANCH  24  25
ENDBRANCH  22  24
ENDBRANCH  13  22
TORSDOF 6
