REMARK  Name = ZINC44420550
REMARK  4 active torsions:
REMARK  status: ('A' for Active; 'I' for Inactive)
REMARK    1  A    between atoms: C_4  and  C_7
REMARK    2  A    between atoms: C_9  and  C_13
REMARK    3  A    between atoms: C_15  and  C_18
REMARK    4  A    between atoms: N_23  and  C_25
REMARK                            x       y       z     vdW  Elec       q    Type
REMARK                         _______ _______ _______ _____ _____    ______ ____
ROOT
ATOM      1  C   UNL     1       5.846  -3.674  -0.084  0.00  0.00    +0.276 A 
ATOM      2  N   UNL     1       7.140  -3.917  -0.091  0.00  0.00    -0.190 NA
ATOM      3  C   UNL     1       7.356  -5.233  -0.106  0.00  0.00    +0.177 A 
ATOM      4  N   UNL     1       6.211  -5.855  -0.109  0.00  0.00    -0.060 NA
ATOM      5  O   UNL     1       5.203  -4.856  -0.089  0.00  0.00    -0.331 OA
ENDROOT
BRANCH   1   8
ATOM      6  C   UNL     1       3.699  -0.689  -0.038  0.00  0.00    +0.093 A 
ATOM      7  C   UNL     1       3.862  -2.083  -0.053  0.00  0.00    +0.062 A 
ATOM      8  C   UNL     1       5.214  -2.345  -0.066  0.00  0.00    +0.123 A 
ATOM      9  N   UNL     1       5.861  -1.140  -0.060  0.00  0.00    -0.272 N 
ATOM     10  H   UNL     1       6.822  -1.009  -0.066  0.00  0.00    +0.189 HD
ATOM     11  N   UNL     1       4.891  -0.130  -0.048  0.00  0.00    -0.173 NA
BRANCH   6  15
ATOM     12  C   UNL     1      -0.017   1.379   0.010  0.00  0.00    +0.000 A 
ATOM     13  C   UNL     1       1.169   2.092   0.002  0.00  0.00    +0.001 A 
ATOM     14  C   UNL     1       2.377   1.425  -0.013  0.00  0.00    +0.010 A 
ATOM     15  C   UNL     1       2.402   0.033  -0.021  0.00  0.00    +0.002 A 
ATOM     16  C   UNL     1       1.205  -0.680  -0.013  0.00  0.00    +0.010 A 
ATOM     17  C   UNL     1       0.002  -0.004   0.002  0.00  0.00    +0.001 A 
ENDBRANCH   6  15
ENDBRANCH   1   8
BRANCH   3  18
ATOM     18  C   UNL     1       8.710  -5.895  -0.119  0.00  0.00    +0.087 C 
ATOM     19  C   UNL     1       8.843  -6.860  -1.320  0.00  0.00    +0.109 C 
ATOM     20  C   UNL     1       9.644  -8.022  -0.775  0.00  0.00    +0.221 C 
ATOM     21  O   UNL     1      10.204  -8.857  -1.453  0.00  0.00    -0.275 OA
ATOM     22  N   UNL     1       9.643  -7.994   0.569  0.00  0.00    -0.268 N 
ATOM     23  C   UNL     1       8.865  -6.859   1.079  0.00  0.00    +0.125 C 
BRANCH  22  24
ATOM     24  C   UNL     1      10.302  -8.929   1.379  0.00  0.00    +0.072 A 
ATOM     25  C   UNL     1      11.615  -8.706   1.772  0.00  0.00    +0.029 A 
ATOM     26  C   UNL     1      12.262  -9.628   2.571  0.00  0.00    +0.040 A 
ATOM     27  C   UNL     1      11.604 -10.775   2.980  0.00  0.00    +0.126 A 
ATOM     28  C   UNL     1      10.296 -11.002   2.590  0.00  0.00    +0.078 A 
ATOM     29  C   UNL     1       9.641 -10.079   1.795  0.00  0.00    +0.147 A 
ATOM     30  F   UNL     1       8.361 -10.296   1.419  0.00  0.00    -0.203 F 
ATOM     31  F   UNL     1      12.241 -11.675   3.761  0.00  0.00    -0.205 F 
ENDBRANCH  22  24
ENDBRANCH   3  18
TORSDOF 4
