REMARK  Name = ZINC32101861
REMARK  9 active torsions:
REMARK  status: ('A' for Active; 'I' for Inactive)
REMARK    1  A    between atoms: C_1  and  C_2
REMARK    2  A    between atoms: C_2  and  O_3
REMARK    3  A    between atoms: O_3  and  C_4
REMARK    4  A    between atoms: C_4  and  C_6
REMARK    5  A    between atoms: C_6  and  O_7
REMARK    6  A    between atoms: O_7  and  C_8
REMARK    7  A    between atoms: C_11  and  C_15
REMARK    8  A    between atoms: C_20  and  N_22
REMARK    9  A    between atoms: N_22  and  C_23
REMARK                            x       y       z     vdW  Elec       q    Type
REMARK                         _______ _______ _______ _____ _____    ______ ____
ROOT
ATOM      1  C   UNL     1       3.772  -6.457  -6.813  0.00  0.00    +0.028 C 
ATOM      2  C   UNL     1       4.789  -5.882  -7.505  0.00  0.00    +0.079 C 
ATOM      3  C   UNL     1       5.585  -6.412  -8.637  0.00  0.00    +0.276 C 
ATOM      4  O   UNL     1       5.383  -7.522  -9.102  0.00  0.00    -0.267 OA
ATOM      5  N   UNL     1       6.520  -5.620  -9.113  0.00  0.00    -0.152 NA
ATOM      6  C   UNL     1       6.749  -4.414  -8.618  0.00  0.00    +0.175 C 
ATOM      7  S   UNL     1       5.541  -4.271  -7.311  0.00  0.00    -0.050 S 
ENDROOT
BRANCH   1  11
ATOM      8  C   UNL     1       1.584  -4.181  -3.982  0.00  0.00    +0.135 A 
ATOM      9  C   UNL     1       2.505  -3.553  -4.812  0.00  0.00    +0.047 A 
ATOM     10  C   UNL     1       3.218  -4.287  -5.733  0.00  0.00    +0.011 A 
ATOM     11  C   UNL     1       3.015  -5.669  -5.833  0.00  0.00    -0.023 A 
ATOM     12  C   UNL     1       2.086  -6.297  -4.994  0.00  0.00    +0.027 A 
ATOM     13  C   UNL     1       1.382  -5.554  -4.072  0.00  0.00    +0.060 A 
ATOM     14 BR   UNL     1       0.132  -6.401  -2.933  0.00  0.00    -0.046 Br
BRANCH   8  15
ATOM     15  O   UNL     1       0.884  -3.452  -3.075  0.00  0.00    -0.480 OA
BRANCH  15  16
ATOM     16  C   UNL     1       1.141  -2.047  -3.035  0.00  0.00    +0.349 C 
BRANCH  16  17
ATOM     17  C   UNL     1       0.279  -1.409  -1.976  0.00  0.00    +0.345 C 
ATOM     18  O   UNL     1      -0.478  -2.088  -1.323  0.00  0.00    -0.247 OA
BRANCH  17  19
ATOM     19  O   UNL     1       0.351  -0.087  -1.759  0.00  0.00    -0.463 OA
BRANCH  19  21
ATOM     20  C   UNL     1      -0.274   1.961  -0.638  0.00  0.00    +0.048 C 
ATOM     21  C   UNL     1      -0.495   0.451  -0.740  0.00  0.00    +0.229 C 
ENDBRANCH  19  21
ENDBRANCH  17  19
ENDBRANCH  16  17
ENDBRANCH  15  16
ENDBRANCH   8  15
ENDBRANCH   1  11
BRANCH   6  22
ATOM     22  N   UNL     1       7.684  -3.494  -9.017  0.00  0.00    -0.192 NA
BRANCH  22  23
ATOM     23  C   UNL     1       8.393  -3.688 -10.207  0.00  0.00    +0.056 A 
ATOM     24  C   UNL     1       7.853  -4.470 -11.219  0.00  0.00    +0.028 A 
ATOM     25  C   UNL     1       8.554  -4.660 -12.393  0.00  0.00    +0.040 A 
ATOM     26  C   UNL     1       9.796  -4.071 -12.562  0.00  0.00    +0.124 A 
ATOM     27  C   UNL     1      10.337  -3.291 -11.554  0.00  0.00    +0.040 A 
ATOM     28  C   UNL     1       9.636  -3.094 -10.380  0.00  0.00    +0.028 A 
ATOM     29  F   UNL     1      10.481  -4.259 -13.711  0.00  0.00    -0.205 F 
ENDBRANCH  22  23
ENDBRANCH   6  22
TORSDOF 8
