REMARK  Name = ZINC65178212
REMARK  5 active torsions:
REMARK  status: ('A' for Active; 'I' for Inactive)
REMARK    1  A    between atoms: C_1  and  C_2
REMARK    2  A    between atoms: C_5  and  C_7
REMARK    3  A    between atoms: C_7  and  N_8
REMARK    4  A    between atoms: C_9  and  C_11
REMARK    5  A    between atoms: C_14  and  C_17
REMARK                            x       y       z     vdW  Elec       q    Type
REMARK                         _______ _______ _______ _____ _____    ______ ____
ROOT
ATOM      1  C   UNL     1       3.107  -5.033  -3.058  0.00  0.00    +0.037 A 
ATOM      2  C   UNL     1       2.561  -4.299  -4.114  0.00  0.00    +0.013 A 
ATOM      3  C   UNL     1       2.844  -4.651  -5.414  0.00  0.00    +0.009 A 
ATOM      4  C   UNL     1       3.675  -5.740  -5.678  0.00  0.00    -0.016 A 
ATOM      5  C   UNL     1       4.221  -6.474  -4.624  0.00  0.00    +0.009 A 
ATOM      6  C   UNL     1       3.944  -6.120  -3.323  0.00  0.00    +0.013 A 
ENDROOT
BRANCH   4   7
ATOM      7  C   UNL     1       3.979  -6.118  -7.078  0.00  0.00    -0.002 A 
ATOM      8  C   UNL     1       3.441  -5.386  -8.144  0.00  0.00    +0.013 A 
ATOM      9  C   UNL     1       3.751  -5.775  -9.431  0.00  0.00    +0.042 A 
ATOM     10  C   UNL     1       4.582  -6.875  -9.627  0.00  0.00    +0.099 A 
ATOM     11  N   UNL     1       5.075  -7.547  -8.597  0.00  0.00    -0.349 N 
ATOM     12  C   UNL     1       4.807  -7.204  -7.353  0.00  0.00    +0.092 A 
ATOM     13  N   UNL     1       4.899  -7.273 -10.918  0.00  0.00    -0.317 N 
ATOM     14  C   UNL     1       4.265  -6.629 -12.077  0.00  0.00    +0.106 C 
ATOM     15  C   UNL     1       5.360  -6.134 -13.027  0.00  0.00    +0.019 C 
ATOM     16  C   UNL     1       6.285  -7.300 -13.384  0.00  0.00    +0.003 C 
ATOM     17  C   UNL     1       6.952  -7.832 -12.113  0.00  0.00    +0.019 C 
ATOM     18  C   UNL     1       5.880  -8.342 -11.153  0.00  0.00    +0.106 C 
ATOM     19  H   UNL     1       5.651  -8.310  -8.762  0.00  0.00    +0.167 HD
ENDBRANCH   4   7
BRANCH   1  21
ATOM     20  N   UNL     1       1.998  -3.608  -1.407  0.00  0.00    -0.304 N 
ATOM     21  C   UNL     1       2.805  -4.657  -1.662  0.00  0.00    +0.244 C 
ATOM     22  O   UNL     1       3.284  -5.292  -0.743  0.00  0.00    -0.270 OA
ATOM     23  H   UNL     1       1.615  -3.101  -2.140  0.00  0.00    +0.149 HD
BRANCH  20  24
ATOM     24  C   UNL     1       1.698  -3.234  -0.023  0.00  0.00    +0.179 C 
BRANCH  24  29
ATOM     25  C   UNL     1       0.091   1.547   0.024  0.00  0.00    +0.086 C 
ATOM     26  C   UNL     1       0.082   0.040   0.008  0.00  0.00    +0.102 A 
ATOM     27  C   UNL     1      -1.015  -0.739  -0.002  0.00  0.00    +0.045 A 
ATOM     28  C   UNL     1      -0.565  -2.079  -0.015  0.00  0.00    +0.046 A 
ATOM     29  C   UNL     1       0.780  -2.039  -0.013  0.00  0.00    +0.122 A 
ATOM     30  O   UNL     1       1.166  -0.752  -0.004  0.00  0.00    -0.463 OA
ENDBRANCH  24  29
ENDBRANCH  20  24
ENDBRANCH   1  21
TORSDOF 4
