REMARK  Name = ZINC63182445
REMARK  7 active torsions:
REMARK  status: ('A' for Active; 'I' for Inactive)
REMARK    1  A    between atoms: C_6  and  C_31
REMARK    2  A    between atoms: C_8  and  C_11
REMARK    3  A    between atoms: C_11  and  C_12
REMARK    4  A    between atoms: C_12  and  C_13
REMARK    5  A    between atoms: C_18  and  C_21
REMARK    6  A    between atoms: N_23  and  C_24
REMARK    7  A    between atoms: C_29  and  O_30
REMARK                            x       y       z     vdW  Elec       q    Type
REMARK                         _______ _______ _______ _____ _____    ______ ____
ROOT
ATOM      1  C   UNL     1      -1.712  -3.828  -0.042  0.00  0.00    +0.216 C 
ATOM      2  O   UNL     1      -1.265  -4.955  -0.060  0.00  0.00    -0.276 OA
ATOM      3  N   UNL     1      -3.045  -3.631  -0.018  0.00  0.00    -0.301 N 
ATOM      4  C   UNL     1      -3.600  -2.271  -0.002  0.00  0.00    +0.108 C 
ATOM      5  C   UNL     1      -4.564  -2.146   1.182  0.00  0.00    +0.032 C 
ATOM      6  C   UNL     1      -5.616  -3.254   1.098  0.00  0.00    +0.078 C 
ATOM      7  C   UNL     1      -4.929  -4.620   1.176  0.00  0.00    +0.032 C 
ATOM      8  C   UNL     1      -3.970  -4.772  -0.014  0.00  0.00    +0.108 C 
ENDROOT
BRANCH   6   9
ATOM      9  C   UNL     1      -6.586  -3.114   2.243  0.00  0.00    +0.220 C 
ATOM     10  O   UNL     1      -6.449  -2.216   3.047  0.00  0.00    -0.275 OA
ATOM     11  N   UNL     1      -7.605  -3.986   2.373  0.00  0.00    -0.282 N 
ATOM     12  H   UNL     1      -7.753  -4.664   1.695  0.00  0.00    +0.155 HD
BRANCH  11  13
ATOM     13  C   UNL     1      -8.451  -3.913   3.488  0.00  0.00    +0.075 A 
ATOM     14  C   UNL     1      -8.762  -2.682   4.046  0.00  0.00    +0.027 A 
ATOM     15  C   UNL     1      -9.597  -2.613   5.144  0.00  0.00    +0.002 A 
ATOM     16  C   UNL     1     -10.124  -3.768   5.691  0.00  0.00    +0.004 A 
ATOM     17  C   UNL     1      -9.819  -4.999   5.140  0.00  0.00    +0.047 A 
ATOM     18  C   UNL     1      -8.987  -5.077   4.035  0.00  0.00    +0.138 A 
BRANCH  18  19
ATOM     19  O   UNL     1      -8.690  -6.286   3.489  0.00  0.00    -0.505 OA
ATOM     20  H   UNL     1      -7.905  -6.706   3.866  0.00  0.00    +0.292 HD
ENDBRANCH  18  19
ENDBRANCH  11  13
ENDBRANCH   6   9
BRANCH   1  21
ATOM     21  C   UNL     1      -0.775  -2.647  -0.046  0.00  0.00    +0.100 C 
BRANCH  21  22
ATOM     22  C   UNL     1       0.671  -3.143  -0.074  0.00  0.00    +0.043 C 
BRANCH  22  29
ATOM     23  C   UNL     1      -0.054   1.388  -0.022  0.00  0.00    +0.001 A 
ATOM     24  C   UNL     1       1.125   2.146  -0.034  0.00  0.00    +0.002 A 
ATOM     25  C   UNL     1       2.352   1.585  -0.058  0.00  0.00    +0.026 A 
ATOM     26  C   UNL     1       2.496   0.170  -0.073  0.00  0.00    +0.043 A 
ATOM     27  N   UNL     1       3.557  -0.599  -0.098  0.00  0.00    -0.374 N 
ATOM     28  C   UNL     1       3.119  -2.000  -0.103  0.00  0.00    +0.137 C 
ATOM     29  C   UNL     1       1.607  -1.962  -0.078  0.00  0.00    -0.034 C 
ATOM     30  C   UNL     1       1.266  -0.653  -0.061  0.00  0.00    -0.000 A 
ATOM     31  C   UNL     1      -0.030   0.036  -0.034  0.00  0.00    +0.010 A 
ATOM     32  H   UNL     1       4.478  -0.294  -0.110  0.00  0.00    +0.161 HD
BRANCH  28  33
ATOM     33  C   UNL     1       3.602  -2.690  -1.353  0.00  0.00    -0.021 A 
ATOM     34  C   UNL     1       3.609  -2.012  -2.558  0.00  0.00    +0.009 A 
ATOM     35  C   UNL     1       4.053  -2.643  -3.704  0.00  0.00    +0.039 A 
ATOM     36  C   UNL     1       4.490  -3.956  -3.646  0.00  0.00    +0.123 A 
ATOM     37  C   UNL     1       4.482  -4.634  -2.438  0.00  0.00    +0.039 A 
ATOM     38  C   UNL     1       4.043  -3.998  -1.292  0.00  0.00    +0.009 A 
ATOM     39  F   UNL     1       4.923  -4.575  -4.766  0.00  0.00    -0.205 F 
ENDBRANCH  28  33
ENDBRANCH  22  29
ENDBRANCH  21  22
ENDBRANCH   1  21
TORSDOF 7
