REMARK  Name = ZINC08791227
REMARK  8 active torsions:
REMARK  status: ('A' for Active; 'I' for Inactive)
REMARK    1  A    between atoms: C_1  and  C_2
REMARK    2  A    between atoms: C_2  and  C_3
REMARK    3  A    between atoms: C_3  and  C_5
REMARK    4  A    between atoms: C_3  and  N_6
REMARK    5  A    between atoms: C_7  and  C_9
REMARK    6  A    between atoms: C_12  and  N_15
REMARK    7  A    between atoms: C_31  and  C_36
REMARK    8  A    between atoms: C_39  and  C_42
REMARK                            x       y       z     vdW  Elec       q    Type
REMARK                         _______ _______ _______ _____ _____    ______ ____
ROOT
ATOM      1  N   UNL     1       0.865   1.884  -0.211  0.00  0.00    -0.193 N 
ATOM      2  C   UNL     1      -0.262   1.144  -0.216  0.00  0.00    +0.248 C 
ATOM      3  O   UNL     1      -0.343  -0.063  -0.293  0.00  0.00    -0.273 OA
ATOM      4  C   UNL     1      -1.407   2.131  -0.114  0.00  0.00    +0.170 C 
ATOM      5  C   UNL     1      -2.279   2.049  -1.366  0.00  0.00    +0.069 C 
ATOM      6  C   UNL     1      -2.980   3.367  -1.576  0.00  0.00    -0.015 A 
ATOM      7  C   UNL     1      -4.157   3.620  -2.388  0.00  0.00    +0.003 A 
ATOM      8  C   UNL     1      -4.965   2.786  -3.165  0.00  0.00    +0.010 A 
ATOM      9  C   UNL     1      -6.020   3.377  -3.817  0.00  0.00    +0.001 A 
ATOM     10  C   UNL     1      -6.280   4.734  -3.718  0.00  0.00    +0.002 A 
ATOM     11  C   UNL     1      -5.496   5.582  -2.954  0.00  0.00    +0.026 A 
ATOM     12  C   UNL     1      -4.419   5.009  -2.280  0.00  0.00    +0.047 A 
ATOM     13  N   UNL     1      -3.466   5.540  -1.460  0.00  0.00    -0.356 N 
ATOM     14  H   UNL     1      -3.401   6.475  -1.210  0.00  0.00    +0.166 HD
ATOM     15  C   UNL     1      -2.615   4.551  -1.042  0.00  0.00    +0.046 A 
ATOM     16  C   UNL     1      -1.427   4.724  -0.116  0.00  0.00    +0.155 C 
ATOM     17  N   UNL     1      -0.716   3.440  -0.115  0.00  0.00    -0.260 N 
ATOM     18  C   UNL     1       0.596   3.196  -0.133  0.00  0.00    +0.317 C 
ATOM     19  O   UNL     1       1.448   4.061  -0.083  0.00  0.00    -0.252 OA
ENDROOT
BRANCH  16  20
ATOM     20  C   UNL     1      -1.897   5.056   1.276  0.00  0.00    -0.021 A 
ATOM     21  C   UNL     1      -1.611   6.292   1.827  0.00  0.00    +0.006 A 
ATOM     22  C   UNL     1      -2.047   6.598   3.102  0.00  0.00    +0.004 A 
ATOM     23  C   UNL     1      -2.760   5.665   3.832  0.00  0.00    -0.050 A 
ATOM     24  C   UNL     1      -3.041   4.427   3.284  0.00  0.00    +0.004 A 
ATOM     25  C   UNL     1      -2.610   4.123   2.006  0.00  0.00    +0.006 A 
ATOM     26  C   UNL     1      -3.230   5.997   5.224  0.00  0.00    +0.044 C 
ENDBRANCH  16  20
BRANCH   1  30
ATOM     27  C   UNL     1       4.713   0.293  -0.414  0.00  0.00    +0.037 A 
ATOM     28  C   UNL     1       3.609  -0.556  -0.297  0.00  0.00    +0.015 A 
ATOM     29  C   UNL     1       2.340  -0.027  -0.230  0.00  0.00    +0.025 A 
ATOM     30  C   UNL     1       2.155   1.351  -0.278  0.00  0.00    +0.045 A 
ATOM     31  C   UNL     1       3.251   2.198  -0.400  0.00  0.00    +0.025 A 
ATOM     32  C   UNL     1       4.524   1.676  -0.462  0.00  0.00    +0.015 A 
BRANCH  27  34
ATOM     33  N   UNL     1       7.139   0.549  -0.599  0.00  0.00    -0.309 N 
ATOM     34  C   UNL     1       6.075  -0.271  -0.486  0.00  0.00    +0.244 C 
ATOM     35  O   UNL     1       6.238  -1.475  -0.445  0.00  0.00    -0.270 OA
ATOM     36  H   UNL     1       7.009   1.510  -0.632  0.00  0.00    +0.149 HD
BRANCH  33  37
ATOM     37  C   UNL     1       8.491  -0.010  -0.670  0.00  0.00    +0.070 C 
ATOM     38  C   UNL     1       8.812  -0.385  -2.119  0.00  0.00    +0.028 C 
BRANCH  37  40
ATOM     39  C   UNL     1       9.257   1.310   1.307  0.00  0.00    +0.005 C 
ATOM     40  C   UNL     1       9.500   1.029  -0.177  0.00  0.00    +0.018 C 
ENDBRANCH  37  40
ENDBRANCH  33  37
ENDBRANCH  27  34
ENDBRANCH   1  30
TORSDOF 5
