REMARK  Name = ZINC12660506
REMARK  11 active torsions:
REMARK  status: ('A' for Active; 'I' for Inactive)
REMARK    1  A    between atoms: C_1  and  C_2
REMARK    2  A    between atoms: C_2  and  C_4
REMARK    3  A    between atoms: C_9  and  C_39
REMARK    4  A    between atoms: C_20  and  C_38
REMARK    5  A    between atoms: C_23  and  O_26
REMARK    6  A    between atoms: O_26  and  C_27
REMARK    7  A    between atoms: C_27  and  C_29
REMARK    8  A    between atoms: C_29  and  C_30
REMARK    9  A    between atoms: C_30  and  N_84
REMARK   10  A    between atoms: C_34  and  C_36
REMARK   11  A    between atoms: C_34  and  C_37
REMARK                            x       y       z     vdW  Elec       q    Type
REMARK                         _______ _______ _______ _____ _____    ______ ____
ROOT
ATOM      1  C   UNL     1      -2.070   0.899   1.327  0.00  0.00    -0.003 C 
ATOM      2  C   UNL     1      -1.906  -0.324   1.849  0.00  0.00    -0.019 C 
ATOM      3  C   UNL     1      -0.488  -0.479   2.370  0.00  0.00    +0.032 C 
ATOM      4  C   UNL     1      -0.040   0.996   2.621  0.00  0.00    +0.006 C 
ATOM      5  C   UNL     1      -0.781   1.669   1.449  0.00  0.00    -0.001 C 
ATOM      6  C   UNL     1      -0.996   3.150   1.641  0.00  0.00    +0.012 C 
ATOM      7  C   UNL     1      -1.595   3.490   2.977  0.00  0.00    +0.005 C 
ATOM      8  C   UNL     1      -0.678   2.947   4.079  0.00  0.00    -0.001 C 
ATOM      9  C   UNL     1      -0.633   1.425   3.963  0.00  0.00    -0.003 C 
ATOM     10  C   UNL     1      -2.047   0.858   4.104  0.00  0.00    +0.004 C 
ATOM     11  C   UNL     1      -2.618   1.248   5.470  0.00  0.00    +0.004 C 
ATOM     12  C   UNL     1      -2.662   2.773   5.588  0.00  0.00    -0.001 C 
ATOM     13  C   UNL     1      -1.247   3.337   5.446  0.00  0.00    -0.026 C 
ATOM     14  C   UNL     1      -1.290   4.862   5.564  0.00  0.00    +0.011 C 
ATOM     15  C   UNL     1      -1.858   5.250   6.931  0.00  0.00    +0.045 C 
ATOM     16  C   UNL     1      -3.273   4.687   7.074  0.00  0.00    +0.177 C 
ATOM     17  C   UNL     1      -3.230   3.162   6.955  0.00  0.00    +0.048 C 
ATOM     18  C   UNL     1      -0.356   2.765   6.550  0.00  0.00    +0.012 C 
ATOM     19  C   UNL     1       0.034   1.456   0.172  0.00  0.00    +0.016 C 
ENDROOT
BRANCH   1  21
ATOM     20  C   UNL     1      -4.565   0.580   0.791  0.00  0.00    +0.091 C 
ATOM     21  C   UNL     1      -3.306   1.406   0.732  0.00  0.00    +0.156 C 
ATOM     22  O   UNL     1      -3.318   2.492   0.192  0.00  0.00    -0.293 OA
ENDBRANCH   1  21
BRANCH  16  23
ATOM     23  O   UNL     1      -3.812   5.055   8.371  0.00  0.00    -0.461 OA
BRANCH  23  24
ATOM     24  C   UNL     1      -4.486   6.214   8.444  0.00  0.00    +0.306 C 
ATOM     25  O   UNL     1      -4.621   6.897   7.456  0.00  0.00    -0.251 OA
BRANCH  24  26
ATOM     26  C   UNL     1      -5.074   6.662   9.757  0.00  0.00    +0.102 C 
BRANCH  26  27
ATOM     27  C   UNL     1      -5.784   8.004   9.566  0.00  0.00    -0.068 C 
BRANCH  27  35
ATOM     28  C   UNL     1      -5.301   8.741  11.820  0.00  0.00    -0.079 C 
ATOM     29  C   UNL     1      -5.926   9.329  13.087  0.00  0.00    -0.018 C 
ATOM     30  C   UNL     1      -6.919   8.323  13.676  0.00  0.00    +0.003 C 
ATOM     31  C   UNL     1      -7.981   7.991  12.624  0.00  0.00    -0.050 C 
ATOM     32  C   UNL     1      -7.296   7.442  11.370  0.00  0.00    -0.072 C 
ATOM     33  C   UNL     1      -8.943   6.941  13.183  0.00  0.00    +0.009 C 
ATOM     34  C   UNL     1      -8.760   9.259  12.267  0.00  0.00    +0.009 C 
ATOM     35  N   UNL     1      -6.373   8.466  10.839  0.00  0.00    +0.380 N 
ATOM     36  H   UNL     1      -6.898   9.332  10.669  0.00  0.00    -0.082 HD
ENDBRANCH  27  35
ENDBRANCH  26  27
ENDBRANCH  24  26
ENDBRANCH  23  24
ENDBRANCH  16  23
TORSDOF 6
