REMARK  Name = ZINC39972761
REMARK  12 active torsions:
REMARK  status: ('A' for Active; 'I' for Inactive)
REMARK    1  A    between atoms: C_1  and  C_2
REMARK    2  A    between atoms: C_2  and  C_3
REMARK    3  A    between atoms: C_3  and  C_5
REMARK    4  A    between atoms: C_3  and  N_6
REMARK    5  A    between atoms: N_9  and  C_10
REMARK    6  A    between atoms: C_11  and  C_26
REMARK    7  A    between atoms: C_12  and  C_16
REMARK    8  A    between atoms: C_13  and  C_15
REMARK    9  A    between atoms: C_19  and  C_22
REMARK   10  A    between atoms: C_22  and  C_23
REMARK   11  A    between atoms: C_22  and  C_24
REMARK   12  A    between atoms: C_22  and  C_25
REMARK                            x       y       z     vdW  Elec       q    Type
REMARK                         _______ _______ _______ _____ _____    ______ ____
ROOT
ATOM      1  C   UNL     1      -5.400   0.400   2.556  0.00  0.00    +0.086 A 
ATOM      2  C   UNL     1      -6.175   0.744   3.652  0.00  0.00    +0.073 A 
ATOM      3  C   UNL     1      -7.611   0.787   3.444  0.00  0.00    +0.006 A 
ATOM      4  C   UNL     1      -8.028   0.482   2.187  0.00  0.00    -0.003 A 
ATOM      5  S   UNL     1      -6.508   0.156   1.321  0.00  0.00    -0.077 S 
ATOM      6  C   UNL     1      -9.436   0.438   1.654  0.00  0.00    +0.052 C 
ENDROOT
BRANCH   1  10
ATOM      7  N   UNL     1      -2.082  -0.162   1.273  0.00  0.00    -0.297 N 
ATOM      8  C   UNL     1      -3.424  -0.053   1.334  0.00  0.00    +0.304 C 
ATOM      9  O   UNL     1      -4.096  -0.264   0.344  0.00  0.00    -0.252 OA
ATOM     10  N   UNL     1      -4.020   0.289   2.493  0.00  0.00    -0.263 N 
ATOM     11  H   UNL     1      -1.545   0.006   2.063  0.00  0.00    +0.151 HD
ATOM     12  H   UNL     1      -3.483   0.457   3.284  0.00  0.00    +0.157 HD
BRANCH   7  13
ATOM     13  C   UNL     1      -1.433  -0.534   0.013  0.00  0.00    +0.071 C 
ATOM     14  C   UNL     1      -1.416  -2.058  -0.121  0.00  0.00    +0.028 C 
BRANCH  13  16
ATOM     15  C   UNL     1      -0.019   1.526   0.010  0.00  0.00    +0.005 C 
ATOM     16  C   UNL     1       0.002  -0.004   0.002  0.00  0.00    +0.019 C 
ENDBRANCH  13  16
ENDBRANCH   7  13
ENDBRANCH   1  10
BRANCH   3  17
ATOM     17  C   UNL     1      -8.558   1.139   4.528  0.00  0.00    -0.016 A 
ATOM     18  C   UNL     1      -8.683   0.313   5.644  0.00  0.00    +0.009 A 
ATOM     19  C   UNL     1      -9.566   0.646   6.651  0.00  0.00    +0.005 A 
ATOM     20  C   UNL     1     -10.327   1.797   6.554  0.00  0.00    -0.042 A 
ATOM     21  C   UNL     1     -10.208   2.620   5.449  0.00  0.00    +0.005 A 
ATOM     22  C   UNL     1      -9.324   2.301   4.439  0.00  0.00    +0.009 A 
BRANCH  20  23
ATOM     23  C   UNL     1     -11.290   2.155   7.657  0.00  0.00    -0.013 C 
ATOM     24  C   UNL     1     -10.522   2.326   8.969  0.00  0.00    +0.015 C 
ATOM     25  C   UNL     1     -12.002   3.463   7.308  0.00  0.00    +0.015 C 
ATOM     26  C   UNL     1     -12.324   1.038   7.814  0.00  0.00    +0.015 C 
ENDBRANCH  20  23
ENDBRANCH   3  17
BRANCH   2  27
ATOM     27  C   UNL     1      -5.576   1.047   4.953  0.00  0.00    +0.244 C 
ATOM     28  O   UNL     1      -5.257   2.190   5.225  0.00  0.00    -0.270 OA
ATOM     29  N   UNL     1      -5.377   0.061   5.850  0.00  0.00    -0.325 N 
ATOM     30  H   UNL     1      -5.631  -0.850   5.634  0.00  0.00    +0.145 HD
ATOM     31  H   UNL     1      -4.981   0.262   6.712  0.00  0.00    +0.145 HD
ENDBRANCH   2  27
TORSDOF 6
