REMARK  Name = ZINC47966619
REMARK  9 active torsions:
REMARK  status: ('A' for Active; 'I' for Inactive)
REMARK    1  A    between atoms: C_1  and  N_2
REMARK    2  A    between atoms: N_2  and  C_3
REMARK    3  A    between atoms: N_2  and  C_21
REMARK    4  A    between atoms: C_3  and  C_4
REMARK    5  A    between atoms: C_4  and  C_5
REMARK    6  A    between atoms: C_5  and  N_6
REMARK    7  A    between atoms: C_7  and  C_9
REMARK    8  A    between atoms: C_9  and  N_11
REMARK    9  A    between atoms: C_21  and  C_22
REMARK                            x       y       z     vdW  Elec       q    Type
REMARK                         _______ _______ _______ _____ _____    ______ ____
ROOT
ATOM      1  N   UNL     1      -0.082  -0.239   4.890  0.00  0.00    -0.308 N 
ATOM      2  C   UNL     1       0.384  -0.583   6.107  0.00  0.00    +0.301 C 
ATOM      3  O   UNL     1       1.424  -1.200   6.207  0.00  0.00    -0.265 OA
ATOM      4  H   UNL     1      -0.913   0.254   4.810  0.00  0.00    +0.149 HD
ENDROOT
BRANCH   2   5
ATOM      5  C   UNL     1      -0.381  -0.206   7.332  0.00  0.00    +0.324 C 
ATOM      6  O   UNL     1      -1.425   0.413   7.231  0.00  0.00    -0.263 OA
BRANCH   5   7
ATOM      7  N   UNL     1       0.079  -0.546   8.534  0.00  0.00    -0.148 NA
ATOM      8  C   UNL     1      -0.604  -0.208   9.627  0.00  0.00    +0.164 A 
ATOM      9  N   UNL     1      -0.283  -0.466  10.920  0.00  0.00    -0.335 N 
ATOM     10  C   UNL     1      -1.116  -0.036  11.934  0.00  0.00    +0.055 A 
ATOM     11  C   UNL     1      -0.979  -0.192  13.320  0.00  0.00    +0.027 A 
ATOM     12  C   UNL     1      -1.927   0.312  14.180  0.00  0.00    +0.002 A 
ATOM     13  C   UNL     1      -3.040   0.985  13.704  0.00  0.00    +0.001 A 
ATOM     14  C   UNL     1      -3.200   1.154  12.341  0.00  0.00    +0.017 A 
ATOM     15  C   UNL     1      -2.253   0.651  11.480  0.00  0.00    +0.039 A 
ATOM     16  S   UNL     1      -2.053   0.638   9.718  0.00  0.00    -0.052 S 
ATOM     17  H   UNL     1       0.530  -0.951  11.132  0.00  0.00    +0.168 HD
ENDBRANCH   5   7
ENDBRANCH   2   5
BRANCH   1  18
ATOM     18  C   UNL     1       0.669  -0.610   3.687  0.00  0.00    +0.103 C 
BRANCH  18  19
ATOM     19  C   UNL     1      -0.071  -0.103   2.448  0.00  0.00    +0.000 C 
BRANCH  19  20
ATOM     20  C   UNL     1       0.713  -0.491   1.192  0.00  0.00    -0.077 C 
BRANCH  20  22
ATOM     21  C   UNL     1      -0.018   1.465   0.010  0.00  0.00    -0.096 C 
ATOM     22  N   UNL     1       0.002  -0.004   0.002  0.00  0.00    +0.381 N 
ATOM     23  H   UNL     1      -0.945  -0.353   0.009  0.00  0.00    -0.082 HD
BRANCH  22  24
ATOM     24  C   UNL     1       0.690  -0.478  -1.207  0.00  0.00    -0.043 C 
BRANCH  24  25
ATOM     25  C   UNL     1      -0.106  -0.083  -2.424  0.00  0.00    -0.064 A 
ATOM     26  C   UNL     1      -1.079  -0.931  -2.919  0.00  0.00    +0.002 A 
ATOM     27  C   UNL     1      -1.808  -0.569  -4.036  0.00  0.00    +0.000 A 
ATOM     28  C   UNL     1      -1.565   0.641  -4.658  0.00  0.00    +0.000 A 
ATOM     29  C   UNL     1      -0.593   1.490  -4.163  0.00  0.00    +0.000 A 
ATOM     30  C   UNL     1       0.134   1.129  -3.043  0.00  0.00    +0.002 A 
ENDBRANCH  24  25
ENDBRANCH  22  24
ENDBRANCH  20  22
ENDBRANCH  19  20
ENDBRANCH  18  19
ENDBRANCH   1  18
TORSDOF 8
