REMARK  Name = ZINC35777886
REMARK  17 active torsions:
REMARK  status: ('A' for Active; 'I' for Inactive)
REMARK    1  A    between atoms: C_1  and  C_2
REMARK    2  A    between atoms: C_3  and  C_22
REMARK    3  A    between atoms: C_4  and  O_13
REMARK    4  A    between atoms: N_5  and  C_7
REMARK    5  A    between atoms: O_13  and  C_14
REMARK    6  A    between atoms: C_17  and  O_20
REMARK    7  A    between atoms: O_20  and  C_21
REMARK    8  A    between atoms: C_22  and  N_23
REMARK    9  A    between atoms: N_23  and  C_24
REMARK   10  A    between atoms: N_23  and  C_36
REMARK   11  A    between atoms: C_24  and  C_25
REMARK   12  A    between atoms: C_25  and  C_27
REMARK   13  A    between atoms: C_25  and  O_35
REMARK   14  A    between atoms: C_27  and  O_28
REMARK   15  A    between atoms: O_28  and  C_29
REMARK   16  A    between atoms: C_36  and  C_37
REMARK   17  A    between atoms: C_36  and  C_38
REMARK                            x       y       z     vdW  Elec       q    Type
REMARK                         _______ _______ _______ _____ _____    ______ ____
ROOT
ATOM      1  C   UNL     1       2.809   2.486  -0.958  0.00  0.00    +0.068 C 
ATOM      2  C   UNL     1       1.993   1.443  -0.239  0.00  0.00    +0.065 A 
ATOM      3  C   UNL     1       1.136   0.518  -0.842  0.00  0.00    +0.021 A 
ATOM      4  C   UNL     1       0.588  -0.246   0.141  0.00  0.00    +0.225 A 
ATOM      5  N   UNL     1       1.091   0.192   1.327  0.00  0.00    -0.200 N 
ATOM      6  N   UNL     1       1.972   1.246   1.055  0.00  0.00    -0.168 NA
ENDROOT
BRANCH   5   7
ATOM      7  C   UNL     1       0.785  -0.324   2.594  0.00  0.00    +0.069 A 
ATOM      8  C   UNL     1      -0.525  -0.656   2.913  0.00  0.00    +0.028 A 
ATOM      9  C   UNL     1      -0.823  -1.164   4.162  0.00  0.00    +0.002 A 
ATOM     10  C   UNL     1       0.182  -1.341   5.095  0.00  0.00    +0.000 A 
ATOM     11  C   UNL     1       1.488  -1.011   4.781  0.00  0.00    +0.002 A 
ATOM     12  C   UNL     1       1.793  -0.508   3.531  0.00  0.00    +0.028 A 
ENDBRANCH   5   7
BRANCH   4  13
ATOM     13  O   UNL     1      -0.299  -1.259  -0.030  0.00  0.00    -0.438 OA
BRANCH  13  14
ATOM     14  C   UNL     1      -1.620  -0.944  -0.108  0.00  0.00    +0.131 A 
ATOM     15  C   UNL     1      -2.031   0.370   0.058  0.00  0.00    +0.050 A 
ATOM     16  C   UNL     1      -3.372   0.690  -0.022  0.00  0.00    +0.049 A 
ATOM     17  C   UNL     1      -4.308  -0.304  -0.269  0.00  0.00    +0.120 A 
ATOM     18  C   UNL     1      -3.897  -1.618  -0.435  0.00  0.00    +0.049 A 
ATOM     19  C   UNL     1      -2.556  -1.937  -0.361  0.00  0.00    +0.050 A 
BRANCH  17  20
ATOM     20  O   UNL     1      -5.629   0.010  -0.347  0.00  0.00    -0.495 OA
ATOM     21  C   UNL     1      -6.537  -1.063  -0.603  0.00  0.00    +0.277 C 
ENDBRANCH  17  20
ENDBRANCH  13  14
ENDBRANCH   4  13
BRANCH   3  22
ATOM     22  C   UNL     1       0.866   0.390  -2.319  0.00  0.00    -0.035 C 
BRANCH  22  23
ATOM     23  N   UNL     1       2.118   0.075  -3.020  0.00  0.00    +0.386 N 
ATOM     24  H   UNL     1       2.833   0.729  -2.740  0.00  0.00    -0.081 HD
BRANCH  23  25
ATOM     25  C   UNL     1       2.540  -1.290  -2.679  0.00  0.00    -0.074 C 
ATOM     26  C   UNL     1       2.933  -1.348  -1.201  0.00  0.00    -0.014 C 
ATOM     27  C   UNL     1       1.387  -2.260  -2.939  0.00  0.00    -0.014 C 
ENDBRANCH  23  25
BRANCH  23  28
ATOM     28  C   UNL     1       1.905   0.174  -4.470  0.00  0.00    -0.043 C 
BRANCH  28  29
ATOM     29  C   UNL     1       3.241   0.001  -5.195  0.00  0.00    +0.135 C 
BRANCH  29  30
ATOM     30  O   UNL     1       4.138   1.038  -4.795  0.00  0.00    -0.390 OA
ATOM     31  H   UNL     1       3.821   1.930  -4.992  0.00  0.00    +0.210 HD
ENDBRANCH  29  30
BRANCH  29  32
ATOM     32  C   UNL     1       3.015   0.076  -6.706  0.00  0.00    +0.258 C 
BRANCH  32  33
ATOM     33  O   UNL     1       4.241  -0.202  -7.386  0.00  0.00    -0.489 OA
BRANCH  33  34
ATOM     34  C   UNL     1       4.214  -0.175  -8.744  0.00  0.00    +0.121 A 
ATOM     35  C   UNL     1       3.032   0.118  -9.409  0.00  0.00    +0.045 A 
ATOM     36  C   UNL     1       3.007   0.145 -10.790  0.00  0.00    +0.004 A 
ATOM     37  C   UNL     1       4.158  -0.120 -11.509  0.00  0.00    +0.000 A 
ATOM     38  C   UNL     1       5.336  -0.413 -10.848  0.00  0.00    +0.004 A 
ATOM     39  C   UNL     1       5.368  -0.435  -9.468  0.00  0.00    +0.045 A 
ENDBRANCH  33  34
ENDBRANCH  32  33
ENDBRANCH  29  32
ENDBRANCH  28  29
ENDBRANCH  23  28
ENDBRANCH  22  23
ENDBRANCH   3  22
TORSDOF 13
