REMARK  Name = ZINC06542306
REMARK  5 active torsions:
REMARK  status: ('A' for Active; 'I' for Inactive)
REMARK    1  A    between atoms: C_1  and  C_2
REMARK    2  A    between atoms: C_3  and  C_17
REMARK    3  A    between atoms: C_4  and  C_10
REMARK    4  A    between atoms: N_19  and  C_20
REMARK    5  A    between atoms: C_23  and  N_26
REMARK                            x       y       z     vdW  Elec       q    Type
REMARK                         _______ _______ _______ _____ _____    ______ ____
ROOT
ATOM      1  C   UNL     1      -3.276  -2.853  -0.929  0.00  0.00    +0.061 C 
ATOM      2  C   UNL     1      -1.889  -3.294  -0.538  0.00  0.00    +0.017 C 
ATOM      3  C   UNL     1      -0.886  -2.391  -0.520  0.00  0.00    +0.056 C 
ATOM      4  C   UNL     1       0.492  -2.876  -0.116  0.00  0.00    +0.139 C 
ATOM      5  N   UNL     1       0.625  -4.304   0.219  0.00  0.00    -0.315 N 
ATOM      6  C   UNL     1      -0.471  -5.084   0.148  0.00  0.00    +0.135 C 
ATOM      7  S   UNL     1      -0.332  -6.746   0.535  0.00  0.00    -0.019 S 
ATOM      8  N   UNL     1      -1.667  -4.602  -0.215  0.00  0.00    -0.300 N 
ATOM      9  H   UNL     1       1.481  -4.674   0.485  0.00  0.00    +0.149 HD
ATOM     10  H   UNL     1      -2.417  -5.215  -0.246  0.00  0.00    +0.154 HD
ENDROOT
BRANCH   4  11
ATOM     11  C   UNL     1       1.440  -2.575  -1.248  0.00  0.00    -0.022 A 
ATOM     12  C   UNL     1       1.364  -3.298  -2.424  0.00  0.00    +0.008 A 
ATOM     13  C   UNL     1       2.230  -3.019  -3.464  0.00  0.00    +0.038 A 
ATOM     14  C   UNL     1       3.181  -2.023  -3.325  0.00  0.00    +0.123 A 
ATOM     15  C   UNL     1       3.260  -1.304  -2.144  0.00  0.00    +0.038 A 
ATOM     16  C   UNL     1       2.390  -1.580  -1.107  0.00  0.00    +0.008 A 
ATOM     17  F   UNL     1       4.032  -1.754  -4.339  0.00  0.00    -0.205 F 
ENDBRANCH   4  11
BRANCH   3  18
ATOM     18  C   UNL     1      -1.114  -1.036  -0.860  0.00  0.00    +0.248 C 
ATOM     19  O   UNL     1      -1.317  -0.214   0.016  0.00  0.00    -0.270 OA
ATOM     20  N   UNL     1      -1.107  -0.655  -2.153  0.00  0.00    -0.282 N 
ATOM     21  H   UNL     1      -1.047  -1.322  -2.854  0.00  0.00    +0.155 HD
BRANCH  20  22
ATOM     22  C   UNL     1      -1.185   0.702  -2.482  0.00  0.00    +0.034 A 
ATOM     23  C   UNL     1      -1.991   1.554  -1.738  0.00  0.00    +0.025 A 
ATOM     24  C   UNL     1      -2.062   2.894  -2.063  0.00  0.00    +0.034 A 
ATOM     25  C   UNL     1      -1.341   3.386  -3.135  0.00  0.00    +0.126 A 
ATOM     26  C   UNL     1      -0.542   2.540  -3.882  0.00  0.00    +0.034 A 
ATOM     27  C   UNL     1      -0.462   1.200  -3.559  0.00  0.00    +0.025 A 
BRANCH  25  28
ATOM     28  N   UNL     1      -1.425   4.822  -3.485  0.00  0.00    +0.056 N 
ATOM     29  O   UNL     1      -0.790   5.257  -4.429  0.00  0.00    -0.126 OA
ATOM     30  O   UNL     1      -2.128   5.569  -2.828  0.00  0.00    -0.126 OA
ENDBRANCH  25  28
ENDBRANCH  20  22
ENDBRANCH   3  18
TORSDOF 4
