REMARK  Name = ZINC32664752
REMARK  11 active torsions:
REMARK  status: ('A' for Active; 'I' for Inactive)
REMARK    1  A    between atoms: C_1  and  C_2
REMARK    2  A    between atoms: C_2  and  C_32
REMARK    3  A    between atoms: N_9  and  C_31
REMARK    4  A    between atoms: C_11  and  C_12
REMARK    5  A    between atoms: C_12  and  C_14
REMARK    6  A    between atoms: C_14  and  N_15
REMARK    7  A    between atoms: N_15  and  C_16
REMARK    8  A    between atoms: N_15  and  C_17
REMARK    9  A    between atoms: C_17  and  C_18
REMARK   10  A    between atoms: N_20  and  C_21
REMARK   11  A    between atoms: C_26  and  C_27
REMARK                            x       y       z     vdW  Elec       q    Type
REMARK                         _______ _______ _______ _____ _____    ______ ____
ROOT
ATOM      1  N   UNL     1      -2.603  -0.355   1.626  0.00  0.00    +0.388 N 
ATOM      2  C   UNL     1      -2.681  -1.788   1.312  0.00  0.00    -0.095 C 
ATOM      3  H   UNL     1      -2.838   0.205   0.709  0.00  0.00    -0.081 HD
ENDROOT
BRANCH   1   4
ATOM      4  C   UNL     1      -1.246   0.018   2.048  0.00  0.00    +0.002 C 
BRANCH   4   5
ATOM      5  C   UNL     1      -0.296  -0.147   0.890  0.00  0.00    +0.141 C 
ATOM      6  O   UNL     1      -0.710  -0.539  -0.184  0.00  0.00    -0.295 OA
BRANCH   5  17
ATOM      7  C   UNL     1       3.556   1.077  -0.636  0.00  0.00    +0.022 C 
ATOM      8  C   UNL     1       3.452  -0.205   0.192  0.00  0.00    +0.030 C 
ATOM      9  C   UNL     1       4.029  -1.375  -0.571  0.00  0.00    -0.015 A 
ATOM     10  C   UNL     1       5.289  -1.640  -1.061  0.00  0.00    +0.006 A 
ATOM     11  C   UNL     1       5.533  -2.823  -1.737  0.00  0.00    +0.000 A 
ATOM     12  C   UNL     1       4.510  -3.736  -1.918  0.00  0.00    +0.002 A 
ATOM     13  C   UNL     1       3.247  -3.474  -1.428  0.00  0.00    +0.024 A 
ATOM     14  C   UNL     1       2.993  -2.284  -0.746  0.00  0.00    +0.038 A 
ATOM     15  N   UNL     1       1.822  -1.803  -0.164  0.00  0.00    -0.305 N 
ATOM     16  C   UNL     1       2.002  -0.582   0.406  0.00  0.00    +0.024 C 
ATOM     17  C   UNL     1       1.063   0.155   1.050  0.00  0.00    +0.064 C 
ATOM     18  C   UNL     1       0.548  -2.526  -0.168  0.00  0.00    +0.135 C 
ATOM     19  C   UNL     1       4.167  -0.036   1.534  0.00  0.00    +0.022 C 
ENDBRANCH   5  17
ENDBRANCH   4   5
ENDBRANCH   1   4
BRANCH   1  20
ATOM     20  C   UNL     1      -3.592   0.015   2.647  0.00  0.00    +0.019 C 
BRANCH  20  21
ATOM     21  C   UNL     1      -4.981  -0.154   2.085  0.00  0.00    +0.201 C 
ATOM     22  O   UNL     1      -5.131  -0.544   0.947  0.00  0.00    -0.278 OA
ATOM     23  N   UNL     1      -6.055   0.129   2.848  0.00  0.00    -0.287 N 
ATOM     24  H   UNL     1      -5.925   0.373   3.912  0.00  0.00    +0.155 HD
BRANCH  23  25
ATOM     25  C   UNL     1      -7.337   0.112   2.285  0.00  0.00    +0.045 A 
ATOM     26  C   UNL     1      -7.493   0.188   0.908  0.00  0.00    +0.024 A 
ATOM     27  C   UNL     1      -8.759   0.171   0.356  0.00  0.00    +0.002 A 
ATOM     28  C   UNL     1      -9.870   0.078   1.174  0.00  0.00    +0.001 A 
ATOM     29  C   UNL     1      -9.718   0.001   2.546  0.00  0.00    +0.014 A 
ATOM     30  C   UNL     1      -8.454   0.012   3.104  0.00  0.00    +0.076 A 
BRANCH  30  31
ATOM     31  C   UNL     1      -8.289  -0.078   4.599  0.00  0.00    +0.419 C 
ATOM     32  F   UNL     1      -9.547  -0.169   5.202  0.00  0.00    -0.166 F 
ATOM     33  F   UNL     1      -7.535  -1.213   4.917  0.00  0.00    -0.166 F 
ATOM     34  F   UNL     1      -7.630   1.065   5.065  0.00  0.00    -0.166 F 
ENDBRANCH  30  31
ENDBRANCH  23  25
ENDBRANCH  20  21
ENDBRANCH   1  20
TORSDOF 7
