REMARK  Name = ZINC12825451
REMARK  10 active torsions:
REMARK  status: ('A' for Active; 'I' for Inactive)
REMARK    1  A    between atoms: C_1  and  C_2
REMARK    2  A    between atoms: C_2  and  C_3
REMARK    3  A    between atoms: C_3  and  C_33
REMARK    4  A    between atoms: N_6  and  C_10
REMARK    5  A    between atoms: C_10  and  C_11
REMARK    6  A    between atoms: C_11  and  O_13
REMARK    7  A    between atoms: O_13  and  C_14
REMARK    8  A    between atoms: C_14  and  C_15
REMARK    9  A    between atoms: C_22  and  C_26
REMARK   10  A    between atoms: C_33  and  C_34
REMARK                            x       y       z     vdW  Elec       q    Type
REMARK                         _______ _______ _______ _____ _____    ______ ____
ROOT
ATOM      1  C   UNL     1       0.002  -0.004   0.002  0.00  0.00    +0.271 C 
ENDROOT
BRANCH   1   2
ATOM      2  C   UNL     1      -1.412  -0.526   0.013  0.00  0.00    +0.033 A 
ATOM      3  C   UNL     1      -2.474   0.358   0.028  0.00  0.00    +0.026 A 
ATOM      4  C   UNL     1      -3.772  -0.121   0.037  0.00  0.00    +0.019 A 
ATOM      5  C   UNL     1      -4.008  -1.484   0.029  0.00  0.00    +0.024 A 
ATOM      6  C   UNL     1      -2.948  -2.371   0.014  0.00  0.00    +0.021 A 
ATOM      7  C   UNL     1      -1.647  -1.894   0.002  0.00  0.00    +0.136 A 
ATOM      8  O   UNL     1      -0.595  -2.756   0.001  0.00  0.00    -0.459 OA
ATOM      9  C   UNL     1      -0.872  -4.110  -0.367  0.00  0.00    +0.340 C 
ATOM     10  O   UNL     1      -2.023  -4.555   0.362  0.00  0.00    -0.333 OA
ATOM     11  C   UNL     1      -3.218  -3.854   0.003  0.00  0.00    +0.203 C 
ATOM     12 BR   UNL     1      -5.224   1.090   0.058  0.00  0.00    -0.050 Br
BRANCH   9  13
ATOM     13  C   UNL     1       0.309  -4.982  -0.027  0.00  0.00    +0.020 A 
ATOM     14  C   UNL     1       1.443  -4.423   0.531  0.00  0.00    +0.010 A 
ATOM     15  C   UNL     1       2.525  -5.223   0.847  0.00  0.00    +0.000 A 
ATOM     16  C   UNL     1       2.477  -6.581   0.595  0.00  0.00    +0.000 A 
ATOM     17  C   UNL     1       1.345  -7.140   0.031  0.00  0.00    +0.000 A 
ATOM     18  C   UNL     1       0.261  -6.340  -0.280  0.00  0.00    +0.010 A 
ENDBRANCH   9  13
ENDBRANCH   1   2
BRANCH   1  19
ATOM     19  O   UNL     1      -0.018   1.448   0.010  0.00  0.00    -0.459 OA
BRANCH  19  20
ATOM     20  C   UNL     1       1.170   2.073   0.002  0.00  0.00    +0.326 C 
ATOM     21  O   UNL     1       2.192   1.429  -0.011  0.00  0.00    -0.249 OA
BRANCH  20  22
ATOM     22  C   UNL     1       1.228   3.579   0.010  0.00  0.00    +0.238 C 
BRANCH  22  26
ATOM     23  C   UNL     1       4.729   4.662   0.616  0.00  0.00    +0.112 C 
ATOM     24  C   UNL     1       3.360   4.237   1.108  0.00  0.00    +0.247 C 
ATOM     25  O   UNL     1       2.998   4.121   2.259  0.00  0.00    -0.273 OA
ATOM     26  N   UNL     1       2.627   4.014  -0.002  0.00  0.00    -0.213 N 
ATOM     27  C   UNL     1       3.334   4.243  -1.114  0.00  0.00    +0.310 C 
ATOM     28  O   UNL     1       2.888   4.114  -2.237  0.00  0.00    -0.252 OA
ATOM     29  N   UNL     1       4.595   4.633  -0.851  0.00  0.00    -0.285 N 
ATOM     30  H   UNL     1       5.281   4.852  -1.500  0.00  0.00    +0.151 HD
BRANCH  23  32
ATOM     31  C   UNL     1       5.487   2.283   0.524  0.00  0.00    +0.006 C 
ATOM     32  C   UNL     1       5.802   3.674   1.078  0.00  0.00    +0.032 C 
ENDBRANCH  23  32
BRANCH  23  33
ATOM     33  C   UNL     1       5.058   6.076   1.098  0.00  0.00    +0.032 C 
ATOM     34  C   UNL     1       3.945   7.034   0.669  0.00  0.00    +0.006 C 
ENDBRANCH  23  33
ENDBRANCH  22  26
ENDBRANCH  20  22
ENDBRANCH  19  20
ENDBRANCH   1  19
TORSDOF 8
