REMARK  Name = ZINC40917067
REMARK  12 active torsions:
REMARK  status: ('A' for Active; 'I' for Inactive)
REMARK    1  A    between atoms: C_1  and  C_2
REMARK    2  A    between atoms: C_2  and  O_3
REMARK    3  A    between atoms: O_3  and  C_4
REMARK    4  A    between atoms: C_4  and  C_6
REMARK    5  A    between atoms: C_7  and  C_34
REMARK    6  A    between atoms: C_14  and  C_16
REMARK    7  A    between atoms: C_18  and  O_32
REMARK    8  A    between atoms: C_19  and  O_23
REMARK    9  A    between atoms: O_23  and  C_24
REMARK   10  A    between atoms: C_24  and  C_25
REMARK   11  A    between atoms: C_28  and  C_31
REMARK   12  A    between atoms: O_32  and  C_33
REMARK                            x       y       z     vdW  Elec       q    Type
REMARK                         _______ _______ _______ _____ _____    ______ ____
ROOT
ATOM      1  C   UNL     1       0.525  -1.079  -4.556  0.00  0.00    -0.014 A 
ATOM      2  C   UNL     1       0.106   0.231  -4.689  0.00  0.00    +0.055 A 
ATOM      3  C   UNL     1      -0.968   0.535  -5.511  0.00  0.00    +0.163 A 
ATOM      4  C   UNL     1      -1.622  -0.481  -6.200  0.00  0.00    +0.176 A 
ATOM      5  C   UNL     1      -1.196  -1.793  -6.062  0.00  0.00    +0.063 A 
ATOM      6  C   UNL     1      -0.121  -2.089  -5.244  0.00  0.00    +0.025 A 
ATOM      7 BR   UNL     1      -2.082  -3.178  -6.998  0.00  0.00    -0.046 Br
ENDROOT
BRANCH   1  16
ATOM      8  C   UNL     1       1.248  -2.359  -2.582  0.00  0.00    +0.082 C 
ATOM      9  C   UNL     1       1.597  -3.654  -2.557  0.00  0.00    +0.020 C 
ATOM     10  N   UNL     1       2.409  -4.213  -3.513  0.00  0.00    -0.286 N 
ATOM     11  C   UNL     1       3.072  -3.349  -4.372  0.00  0.00    +0.240 A 
ATOM     12  N   UNL     1       4.044  -3.560  -5.212  0.00  0.00    -0.092 NA
ATOM     13  N   UNL     1       4.364  -2.464  -5.810  0.00  0.00    -0.021 NA
ATOM     14  N   UNL     1       3.621  -1.490  -5.394  0.00  0.00    -0.042 NA
ATOM     15  N   UNL     1       2.754  -2.030  -4.447  0.00  0.00    -0.201 N 
ATOM     16  C   UNL     1       1.693  -1.407  -3.662  0.00  0.00    +0.181 C 
ATOM     17  C   UNL     1       1.082  -4.525  -1.441  0.00  0.00    +0.061 C 
ATOM     18  H   UNL     1       2.514  -5.175  -3.585  0.00  0.00    +0.155 HD
BRANCH   8  19
ATOM     19  C   UNL     1       0.419  -1.865  -1.550  0.00  0.00    +0.339 C 
ATOM     20  O   UNL     1       0.889  -1.162  -0.676  0.00  0.00    -0.245 OA
BRANCH  19  21
ATOM     21  O   UNL     1      -0.895  -2.174  -1.534  0.00  0.00    -0.462 OA
BRANCH  21  23
ATOM     22  C   UNL     1      -3.127  -2.095  -0.611  0.00  0.00    +0.048 C 
ATOM     23  C   UNL     1      -1.674  -1.641  -0.461  0.00  0.00    +0.229 C 
ENDBRANCH  21  23
ENDBRANCH  19  21
ENDBRANCH   8  19
ENDBRANCH   1  16
BRANCH   3  24
ATOM     24  O   UNL     1      -1.382   1.824  -5.642  0.00  0.00    -0.491 OA
ATOM     25  C   UNL     1      -0.664   2.814  -4.904  0.00  0.00    +0.277 C 
ENDBRANCH   3  24
BRANCH   4  26
ATOM     26  O   UNL     1      -2.677  -0.188  -7.007  0.00  0.00    -0.483 OA
BRANCH  26  27
ATOM     27  C   UNL     1      -2.385   0.107  -8.375  0.00  0.00    +0.264 C 
BRANCH  27  28
ATOM     28  C   UNL     1      -3.667   0.405  -9.109  0.00  0.00    -0.010 A 
ATOM     29  C   UNL     1      -4.370  -0.619  -9.715  0.00  0.00    +0.007 A 
ATOM     30  C   UNL     1      -5.546  -0.346 -10.389  0.00  0.00    +0.004 A 
ATOM     31  C   UNL     1      -6.019   0.952 -10.456  0.00  0.00    -0.050 A 
ATOM     32  C   UNL     1      -5.316   1.975  -9.849  0.00  0.00    +0.004 A 
ATOM     33  C   UNL     1      -4.142   1.702  -9.172  0.00  0.00    +0.007 A 
ATOM     34  C   UNL     1      -7.300   1.250 -11.191  0.00  0.00    +0.044 C 
ENDBRANCH  27  28
ENDBRANCH  26  27
ENDBRANCH   4  26
TORSDOF 8
