REMARK  Name = ZINC02153156
REMARK  11 active torsions:
REMARK  status: ('A' for Active; 'I' for Inactive)
REMARK    1  A    between atoms: C_1  and  C_2
REMARK    2  A    between atoms: C_2  and  C_3
REMARK    3  A    between atoms: C_3  and  C_4
REMARK    4  A    between atoms: C_4  and  N_5
REMARK    5  A    between atoms: C_6  and  C_23
REMARK    6  A    between atoms: C_8  and  O_22
REMARK    7  A    between atoms: C_16  and  C_18
REMARK    8  A    between atoms: C_18  and  C_19
REMARK    9  A    between atoms: C_18  and  C_20
REMARK   10  A    between atoms: C_18  and  C_21
REMARK   11  A    between atoms: C_26  and  C_29
REMARK                            x       y       z     vdW  Elec       q    Type
REMARK                         _______ _______ _______ _____ _____    ______ ____
ROOT
ATOM      1  N   UNL     1       1.425  -2.500  -2.470  0.00  0.00    -0.274 N 
ATOM      2  C   UNL     1       0.781  -2.780  -3.763  0.00  0.00    +0.155 C 
ATOM      3  C   UNL     1       1.944  -3.240  -4.663  0.00  0.00    +0.238 C 
ATOM      4  N   UNL     1       3.120  -3.170  -3.782  0.00  0.00    -0.204 N 
ATOM      5  C   UNL     1       2.739  -2.740  -2.572  0.00  0.00    +0.313 C 
ATOM      6  O   UNL     1       3.514  -2.585  -1.649  0.00  0.00    -0.252 OA
ATOM      7  C   UNL     1       4.422  -3.493  -4.149  0.00  0.00    +0.194 A 
ATOM      8  N   UNL     1       4.878  -3.910  -5.314  0.00  0.00    -0.125 NA
ATOM      9  N   UNL     1       6.102  -4.166  -5.498  0.00  0.00    -0.144 NA
ATOM     10  C   UNL     1       6.947  -4.013  -4.499  0.00  0.00    +0.109 A 
ATOM     11  S   UNL     1       5.830  -3.448  -3.223  0.00  0.00    -0.034 S 
ENDROOT
BRANCH   2  12
ATOM     12  C   UNL     1       0.141  -1.533  -4.316  0.00  0.00    -0.023 A 
ATOM     13  C   UNL     1       0.787  -0.316  -4.205  0.00  0.00    +0.006 A 
ATOM     14  C   UNL     1       0.200   0.828  -4.712  0.00  0.00    +0.004 A 
ATOM     15  C   UNL     1      -1.034   0.755  -5.332  0.00  0.00    -0.050 A 
ATOM     16  C   UNL     1      -1.680  -0.462  -5.444  0.00  0.00    +0.004 A 
ATOM     17  C   UNL     1      -1.091  -1.607  -4.940  0.00  0.00    +0.006 A 
ATOM     18  C   UNL     1      -1.674   2.002  -5.884  0.00  0.00    +0.044 C 
ENDBRANCH   2  12
BRANCH  10  19
ATOM     19  C   UNL     1       8.435  -4.244  -4.447  0.00  0.00    +0.013 C 
ATOM     20  C   UNL     1       9.127  -3.340  -5.469  0.00  0.00    +0.018 C 
ATOM     21  C   UNL     1       8.954  -3.920  -3.045  0.00  0.00    +0.018 C 
ATOM     22  C   UNL     1       8.736  -5.708  -4.777  0.00  0.00    +0.018 C 
ENDBRANCH  10  19
BRANCH   3  23
ATOM     23  O   UNL     1       1.730  -4.579  -5.114  0.00  0.00    -0.372 OA
ATOM     24  H   UNL     1       2.433  -4.918  -5.684  0.00  0.00    +0.212 HD
ENDBRANCH   3  23
BRANCH   1  25
ATOM     25  C   UNL     1       0.739  -2.027  -1.265  0.00  0.00    +0.110 C 
BRANCH  25  26
ATOM     26  C   UNL     1       0.718  -0.497  -1.257  0.00  0.00    +0.019 C 
BRANCH  26  28
ATOM     27  C   UNL     1      -0.019   1.526   0.010  0.00  0.00    +0.004 C 
ATOM     28  C   UNL     1       0.002  -0.004   0.002  0.00  0.00    -0.002 C 
ENDBRANCH  26  28
ENDBRANCH  25  26
ENDBRANCH   1  25
TORSDOF 6
