REMARK  Name = ZINC13028509
REMARK  7 active torsions:
REMARK  status: ('A' for Active; 'I' for Inactive)
REMARK    1  A    between atoms: C_1  and  C_2
REMARK    2  A    between atoms: C_15  and  C_17
REMARK    3  A    between atoms: C_17  and  S_18
REMARK    4  A    between atoms: S_18  and  C_19
REMARK    5  A    between atoms: C_22  and  C_31
REMARK    6  A    between atoms: N_23  and  C_24
REMARK    7  A    between atoms: C_24  and  C_25
REMARK                            x       y       z     vdW  Elec       q    Type
REMARK                         _______ _______ _______ _____ _____    ______ ____
ROOT
ATOM      1  S   UNL     1       2.838   5.274   2.114  0.00  0.00    -0.077 S 
ENDROOT
BRANCH   1   2
ATOM      2  C   UNL     1       4.559   5.401   1.759  0.00  0.00    +0.193 A 
ATOM      3  N   UNL     1       5.328   4.449   1.276  0.00  0.00    -0.122 NA
ATOM      4  N   UNL     1       6.530   4.882   1.138  0.00  0.00    -0.128 NA
ATOM      5  C   UNL     1       6.603   6.135   1.524  0.00  0.00    +0.165 A 
ATOM      6  N   UNL     1       5.341   6.507   1.928  0.00  0.00    -0.298 N 
BRANCH   5   7
ATOM      7  C   UNL     1       7.810   6.987   1.518  0.00  0.00    +0.022 A 
ATOM      8  C   UNL     1       7.997   7.976   2.492  0.00  0.00    +0.031 A 
ATOM      9  C   UNL     1       9.140   8.746   2.451  0.00  0.00    +0.111 A 
ATOM     10  N   UNL     1      10.045   8.566   1.508  0.00  0.00    -0.263 NA
ATOM     11  C   UNL     1       9.906   7.649   0.569  0.00  0.00    +0.111 A 
ATOM     12  C   UNL     1       8.796   6.832   0.536  0.00  0.00    +0.031 A 
ENDBRANCH   5   7
BRANCH   6  13
ATOM     13  C   UNL     1       4.925   7.816   2.437  0.00  0.00    +0.161 C 
BRANCH  13  14
ATOM     14  C   UNL     1       4.603   8.726   1.280  0.00  0.00    -0.028 A 
ATOM     15  C   UNL     1       5.564   9.594   0.795  0.00  0.00    +0.005 A 
ATOM     16  C   UNL     1       5.270  10.425  -0.269  0.00  0.00    +0.000 A 
ATOM     17  C   UNL     1       4.013  10.396  -0.843  0.00  0.00    +0.000 A 
ATOM     18  C   UNL     1       3.050   9.531  -0.355  0.00  0.00    +0.000 A 
ATOM     19  C   UNL     1       3.345   8.697   0.707  0.00  0.00    +0.005 A 
ENDBRANCH  13  14
ENDBRANCH   6  13
ENDBRANCH   1   2
BRANCH   1  20
ATOM     20  C   UNL     1       2.543   3.555   1.630  0.00  0.00    +0.173 C 
BRANCH  20  34
ATOM     21  C   UNL     1      -1.501   1.645   0.430  0.00  0.00    +0.029 C 
ATOM     22  C   UNL     1      -0.767   1.629   1.772  0.00  0.00    +0.087 C 
ATOM     23  C   UNL     1      -0.868   0.234   2.391  0.00  0.00    +0.118 C 
ATOM     24  C   UNL     1       0.153   0.077   3.486  0.00  0.00    +0.219 C 
ATOM     25  O   UNL     1      -0.198   0.117   4.646  0.00  0.00    -0.275 OA
ATOM     26  N   UNL     1       1.458  -0.106   3.187  0.00  0.00    -0.284 N 
ATOM     27  C   UNL     1       1.896  -0.065   1.857  0.00  0.00    +0.055 A 
ATOM     28  C   UNL     1       2.710  -1.060   1.345  0.00  0.00    +0.025 A 
ATOM     29  C   UNL     1       3.150  -0.982   0.036  0.00  0.00    +0.002 A 
ATOM     30  C   UNL     1       2.780   0.086  -0.761  0.00  0.00    +0.002 A 
ATOM     31  C   UNL     1       1.959   1.079  -0.259  0.00  0.00    +0.025 A 
ATOM     32  C   UNL     1       1.504   1.002   1.048  0.00  0.00    +0.058 A 
ATOM     33  N   UNL     1       0.639   1.977   1.560  0.00  0.00    -0.266 N 
ATOM     34  C   UNL     1       1.092   3.213   1.853  0.00  0.00    +0.230 C 
ATOM     35  O   UNL     1       0.333   4.048   2.296  0.00  0.00    -0.274 OA
ATOM     36  H   UNL     1       2.097  -0.267   3.898  0.00  0.00    +0.155 HD
ENDBRANCH  20  34
ENDBRANCH   1  20
TORSDOF 6
