REMARK  Name = ZINC09871079
REMARK  10 active torsions:
REMARK  status: ('A' for Active; 'I' for Inactive)
REMARK    1  A    between atoms: C_1  and  C_2
REMARK    2  A    between atoms: C_2  and  O_3
REMARK    3  A    between atoms: O_3  and  C_4
REMARK    4  A    between atoms: C_4  and  C_6
REMARK    5  A    between atoms: C_7  and  C_29
REMARK    6  A    between atoms: C_9  and  N_11
REMARK    7  A    between atoms: C_12  and  C_14
REMARK    8  A    between atoms: C_14  and  C_15
REMARK    9  A    between atoms: C_22  and  C_28
REMARK   10  A    between atoms: C_23  and  C_27
REMARK                            x       y       z     vdW  Elec       q    Type
REMARK                         _______ _______ _______ _____ _____    ______ ____
ROOT
ATOM      1  C   UNL     1      -1.369   3.290  -2.092  0.00  0.00    +0.127 C 
ENDROOT
BRANCH   1   2
ATOM      2  C   UNL     1      -1.268   3.421  -0.571  0.00  0.00    +0.166 C 
ATOM      3  C   UNL     1      -0.004   4.161  -0.212  0.00  0.00    +0.238 C 
ATOM      4  O   UNL     1      -0.028   5.368  -0.100  0.00  0.00    -0.273 OA
ATOM      5  N   UNL     1       1.149   3.497  -0.015  0.00  0.00    -0.282 N 
ATOM      6  C   UNL     1       1.180   2.098   0.002  0.00  0.00    +0.055 A 
ATOM      7  C   UNL     1       2.387   1.418   0.000  0.00  0.00    +0.028 A 
ATOM      8  C   UNL     1       2.400   0.035  -0.003  0.00  0.00    -0.046 A 
ATOM      9  C   UNL     1       1.212  -0.674  -0.005  0.00  0.00    -0.046 A 
ATOM     10  C   UNL     1       0.002  -0.004   0.002  0.00  0.00    +0.028 A 
ATOM     11  C   UNL     1      -0.017   1.380   0.010  0.00  0.00    +0.049 A 
ATOM     12  N   UNL     1      -1.229   2.083   0.038  0.00  0.00    -0.331 N 
ATOM     13  C   UNL     1       1.237  -2.181  -0.013  0.00  0.00    +0.044 C 
ATOM     14  C   UNL     1       3.713  -0.703  -0.005  0.00  0.00    +0.044 C 
ATOM     15  H   UNL     1       1.972   3.995   0.117  0.00  0.00    +0.155 HD
ATOM     16  H   UNL     1      -2.020   1.699   0.448  0.00  0.00    +0.147 HD
ENDBRANCH   1   2
BRANCH   1  18
ATOM     17  N   UNL     1      -3.000   2.445  -3.749  0.00  0.00    -0.280 N 
ATOM     18  C   UNL     1      -2.689   2.660  -2.455  0.00  0.00    +0.220 C 
ATOM     19  O   UNL     1      -3.472   2.347  -1.583  0.00  0.00    -0.275 OA
ATOM     20  H   UNL     1      -2.375   2.696  -4.446  0.00  0.00    +0.155 HD
BRANCH  17  24
ATOM     21  C   UNL     1      -6.631   0.740  -4.257  0.00  0.00    +0.101 A 
ATOM     22  C   UNL     1      -5.946   0.991  -5.439  0.00  0.00    -0.028 A 
ATOM     23  C   UNL     1      -4.712   1.573  -5.337  0.00  0.00    +0.035 A 
ATOM     24  C   UNL     1      -4.217   1.865  -4.083  0.00  0.00    +0.073 A 
ATOM     25  S   UNL     1      -5.486   1.337  -3.027  0.00  0.00    -0.067 S 
ATOM     26  C   UNL     1      -6.540   0.642  -6.779  0.00  0.00    +0.045 C 
BRANCH  21  27
ATOM     27  C   UNL     1      -7.911   0.160  -4.076  0.00  0.00    +0.346 C 
ATOM     28  O   UNL     1      -8.561  -0.193  -5.042  0.00  0.00    -0.244 OA
BRANCH  27  29
ATOM     29  O   UNL     1      -8.409  -0.000  -2.832  0.00  0.00    -0.461 OA
BRANCH  29  31
ATOM     30  C   UNL     1     -10.098  -0.691  -1.248  0.00  0.00    +0.048 C 
ATOM     31  C   UNL     1      -9.705  -0.592  -2.723  0.00  0.00    +0.229 C 
ENDBRANCH  29  31
ENDBRANCH  27  29
ENDBRANCH  21  27
ENDBRANCH  17  24
ENDBRANCH   1  18
TORSDOF 6
