REMARK  Name = ZINC46842705
REMARK  9 active torsions:
REMARK  status: ('A' for Active; 'I' for Inactive)
REMARK    1  A    between atoms: C_1  and  C_2
REMARK    2  A    between atoms: C_5  and  C_8
REMARK    3  A    between atoms: C_8  and  N_9
REMARK    4  A    between atoms: C_11  and  C_15
REMARK    5  A    between atoms: C_12  and  C_14
REMARK    6  A    between atoms: N_17  and  C_18
REMARK    7  A    between atoms: C_18  and  C_19
REMARK    8  A    between atoms: C_27  and  C_34
REMARK    9  A    between atoms: C_30  and  C_33
REMARK                            x       y       z     vdW  Elec       q    Type
REMARK                         _______ _______ _______ _____ _____    ______ ____
ROOT
ATOM      1  C   UNL     1       4.553  -5.784  -1.584  0.00  0.00    +0.249 C 
ATOM      2  O   UNL     1       5.371  -4.947  -1.915  0.00  0.00    -0.270 OA
ATOM      3  N   UNL     1       4.699  -7.063  -1.982  0.00  0.00    -0.307 N 
ATOM      4  H   UNL     1       4.047  -7.731  -1.718  0.00  0.00    +0.149 HD
ENDROOT
BRANCH   1   7
ATOM      5  N   UNL     1       1.410  -4.722  -0.118  0.00  0.00    -0.248 N 
ATOM      6  C   UNL     1       2.168  -4.968  -1.199  0.00  0.00    +0.140 A 
ATOM      7  C   UNL     1       3.402  -5.399  -0.749  0.00  0.00    +0.096 A 
ATOM      8  C   UNL     1       3.353  -5.401   0.664  0.00  0.00    +0.074 A 
ATOM      9  N   UNL     1       2.169  -4.992   1.027  0.00  0.00    -0.174 NA
ATOM     10  C   UNL     1       4.474  -5.799   1.588  0.00  0.00    +0.068 C 
ATOM     11 CL   UNL     1       1.687  -4.780  -2.857  0.00  0.00    -0.062 Cl
BRANCH   5  12
ATOM     12  C   UNL     1       0.025  -4.245  -0.134  0.00  0.00    +0.180 C 
BRANCH  12  17
ATOM     13  C   UNL     1      -0.027   1.533  -0.111  0.00  0.00    +0.044 C 
ATOM     14  C   UNL     1      -0.014   0.026  -0.117  0.00  0.00    -0.050 A 
ATOM     15  C   UNL     1       0.009  -0.660  -1.316  0.00  0.00    +0.004 A 
ATOM     16  C   UNL     1       0.022  -2.042  -1.322  0.00  0.00    +0.006 A 
ATOM     17  C   UNL     1       0.012  -2.739  -0.128  0.00  0.00    -0.026 A 
ATOM     18  C   UNL     1      -0.010  -2.052   1.072  0.00  0.00    +0.006 A 
ATOM     19  C   UNL     1      -0.018  -0.670   1.078  0.00  0.00    +0.004 A 
ENDBRANCH  12  17
ENDBRANCH   5  12
ENDBRANCH   1   7
BRANCH   3  20
ATOM     20  C   UNL     1       5.844  -7.446  -2.813  0.00  0.00    +0.141 C 
BRANCH  20  21
ATOM     21  C   UNL     1       5.774  -8.920  -3.116  0.00  0.00    -0.014 A 
ATOM     22  C   UNL     1       6.375  -9.840  -2.267  0.00  0.00    +0.010 A 
ATOM     23  C   UNL     1       6.287 -11.184  -2.582  0.00  0.00    +0.042 A 
ATOM     24  C   UNL     1       5.603 -11.566  -3.732  0.00  0.00    +0.099 A 
ATOM     25  N   UNL     1       5.043 -10.659  -4.516  0.00  0.00    -0.349 N 
ATOM     26  C   UNL     1       5.106  -9.370  -4.237  0.00  0.00    +0.089 A 
ATOM     27  N   UNL     1       5.508 -12.914  -4.061  0.00  0.00    -0.312 N 
ATOM     28  C   UNL     1       6.225 -13.936  -3.282  0.00  0.00    +0.137 C 
ATOM     29  C   UNL     1       7.002 -14.829  -4.256  0.00  0.00    +0.133 C 
ATOM     30  O   UNL     1       6.113 -15.309  -5.267  0.00  0.00    -0.371 OA
ATOM     31  C   UNL     1       5.539 -14.280  -6.078  0.00  0.00    +0.133 C 
ATOM     32  C   UNL     1       4.682 -13.360  -5.194  0.00  0.00    +0.137 C 
ATOM     33  C   UNL     1       4.660 -14.913  -7.159  0.00  0.00    +0.039 C 
ATOM     34  C   UNL     1       7.601 -16.014  -3.496  0.00  0.00    +0.039 C 
ATOM     35  H   UNL     1       4.572 -10.948  -5.313  0.00  0.00    +0.167 HD
ENDBRANCH  20  21
ENDBRANCH   3  20
TORSDOF 5
