REMARK  Name = ZINC13032778
REMARK  12 active torsions:
REMARK  status: ('A' for Active; 'I' for Inactive)
REMARK    1  A    between atoms: C_1  and  C_2
REMARK    2  A    between atoms: C_2  and  C_3
REMARK    3  A    between atoms: C_10  and  C_15
REMARK    4  A    between atoms: C_15  and  N_67
REMARK    5  A    between atoms: C_16  and  C_17
REMARK    6  A    between atoms: C_16  and  N_67
REMARK    7  A    between atoms: C_22  and  O_23
REMARK    8  A    between atoms: O_23  and  C_24
REMARK    9  A    between atoms: C_25  and  C_26
REMARK   10  A    between atoms: C_25  and  N_67
REMARK   11  A    between atoms: N_30  and  C_31
REMARK   12  A    between atoms: C_31  and  C_32
REMARK                            x       y       z     vdW  Elec       q    Type
REMARK                         _______ _______ _______ _____ _____    ______ ____
ROOT
ATOM      1  N   UNL     1      -0.899   1.570  -1.012  0.00  0.00    +0.390 N 
ATOM      2  H   UNL     1      -1.917   1.454  -0.946  0.00  0.00    -0.080 HD
ENDROOT
BRANCH   1   3
ATOM      3  C   UNL     1      -0.391   0.733  -2.119  0.00  0.00    -0.036 C 
BRANCH   3  11
ATOM      4  C   UNL     1      -4.620  -3.600  -3.392  0.00  0.00    -0.047 A 
ATOM      5  C   UNL     1      -4.073  -4.592  -2.589  0.00  0.00    +0.005 A 
ATOM      6  C   UNL     1      -2.927  -4.356  -1.861  0.00  0.00    +0.026 A 
ATOM      7  C   UNL     1      -2.311  -3.110  -1.928  0.00  0.00    +0.049 A 
ATOM      8  C   UNL     1      -2.869  -2.107  -2.743  0.00  0.00    -0.001 A 
ATOM      9  C   UNL     1      -4.032  -2.370  -3.474  0.00  0.00    +0.013 A 
ATOM     10  C   UNL     1      -2.217  -0.797  -2.803  0.00  0.00    +0.017 A 
ATOM     11  C   UNL     1      -1.089  -0.601  -2.076  0.00  0.00    +0.001 A 
ATOM     12  C   UNL     1      -0.570  -1.641  -1.275  0.00  0.00    +0.251 A 
ATOM     13  O   UNL     1       0.442  -1.442  -0.626  0.00  0.00    -0.268 OA
ATOM     14  N   UNL     1      -1.165  -2.845  -1.210  0.00  0.00    -0.322 N 
ATOM     15  H   UNL     1      -0.782  -3.538  -0.649  0.00  0.00    +0.169 HD
BRANCH   4  17
ATOM     16  C   UNL     1      -5.497  -4.435  -5.555  0.00  0.00    +0.009 C 
ATOM     17  C   UNL     1      -5.873  -3.883  -4.179  0.00  0.00    +0.032 C 
ENDBRANCH   4  17
ENDBRANCH   3  11
ENDBRANCH   1   3
BRANCH   1  18
ATOM     18  C   UNL     1      -0.594   2.992  -1.272  0.00  0.00    -0.038 C 
BRANCH  18  19
ATOM     19  C   UNL     1      -1.502   3.490  -2.367  0.00  0.00    -0.022 A 
ATOM     20  C   UNL     1      -0.999   3.709  -3.635  0.00  0.00    +0.005 A 
ATOM     21  C   UNL     1      -1.832   4.161  -4.642  0.00  0.00    +0.000 A 
ATOM     22  C   UNL     1      -3.168   4.404  -4.380  0.00  0.00    +0.004 A 
ATOM     23  C   UNL     1      -3.674   4.192  -3.113  0.00  0.00    +0.046 A 
ATOM     24  C   UNL     1      -2.841   3.733  -2.102  0.00  0.00    +0.121 A 
BRANCH  24  25
ATOM     25  O   UNL     1      -3.337   3.524  -0.854  0.00  0.00    -0.495 OA
ATOM     26  C   UNL     1      -4.725   3.795  -0.653  0.00  0.00    +0.277 C 
ENDBRANCH  24  25
ENDBRANCH  18  19
ENDBRANCH   1  18
BRANCH   1  27
ATOM     27  C   UNL     1      -0.285   1.147   0.265  0.00  0.00    +0.001 C 
BRANCH  27  28
ATOM     28  C   UNL     1      -0.978   1.859   1.397  0.00  0.00    +0.135 A 
ATOM     29  N   UNL     1      -0.633   3.007   1.928  0.00  0.00    -0.115 NA
ATOM     30  N   UNL     1      -1.472   3.280   2.867  0.00  0.00    -0.023 NA
ATOM     31  N   UNL     1      -2.340   2.333   2.954  0.00  0.00    -0.044 NA
ATOM     32  N   UNL     1      -2.069   1.438   2.064  0.00  0.00    -0.227 N 
BRANCH  32  33
ATOM     33  C   UNL     1      -2.809   0.197   1.825  0.00  0.00    +0.182 C 
BRANCH  33  34
ATOM     34  C   UNL     1      -2.232  -0.905   2.676  0.00  0.00    -0.026 A 
ATOM     35  C   UNL     1      -1.212  -1.696   2.182  0.00  0.00    +0.008 A 
ATOM     36  C   UNL     1      -0.678  -2.704   2.963  0.00  0.00    +0.038 A 
ATOM     37  C   UNL     1      -1.172  -2.927   4.237  0.00  0.00    +0.123 A 
ATOM     38  C   UNL     1      -2.197  -2.137   4.729  0.00  0.00    +0.038 A 
ATOM     39  C   UNL     1      -2.726  -1.127   3.948  0.00  0.00    +0.008 A 
ATOM     40  F   UNL     1      -0.654  -3.914   5.000  0.00  0.00    -0.205 F 
ENDBRANCH  33  34
ENDBRANCH  32  33
ENDBRANCH  27  28
ENDBRANCH   1  27
TORSDOF 10
