REMARK  Name = ZINC13479393
REMARK  9 active torsions:
REMARK  status: ('A' for Active; 'I' for Inactive)
REMARK    1  A    between atoms: C_1  and  N_2
REMARK    2  A    between atoms: N_2  and  C_3
REMARK    3  A    between atoms: N_2  and  S_28
REMARK    4  A    between atoms: C_3  and  C_4
REMARK    5  A    between atoms: C_4  and  C_6
REMARK    6  A    between atoms: C_4  and  C_21
REMARK    7  A    between atoms: C_6  and  C_7
REMARK    8  A    between atoms: C_7  and  N_69
REMARK    9  A    between atoms: S_28  and  C_31
REMARK                            x       y       z     vdW  Elec       q    Type
REMARK                         _______ _______ _______ _____ _____    ______ ____
ROOT
ATOM      1  C   UNL     1       1.598   2.778  -1.435  0.00  0.00    +0.033 C 
ENDROOT
BRANCH   1   2
ATOM      2  C   UNL     1       1.875   1.527  -2.228  0.00  0.00    -0.042 A 
ATOM      3  C   UNL     1       2.896   0.677  -1.845  0.00  0.00    +0.004 A 
ATOM      4  C   UNL     1       3.147  -0.473  -2.569  0.00  0.00    +0.002 A 
ATOM      5  C   UNL     1       2.384  -0.770  -3.683  0.00  0.00    +0.020 A 
ATOM      6  C   UNL     1       1.365   0.083  -4.070  0.00  0.00    +0.041 A 
ATOM      7  C   UNL     1       1.111   1.232  -3.342  0.00  0.00    +0.024 A 
ATOM      8 CL   UNL     1       0.407  -0.288  -5.469  0.00  0.00    -0.084 Cl
ENDBRANCH   1   2
BRANCH   1   9
ATOM      9  C   UNL     1       1.238   2.401   0.003  0.00  0.00    +0.117 C 
BRANCH   9  11
ATOM     10  C   UNL     1      -1.299   2.367   0.021  0.00  0.00    +0.131 C 
ATOM     11  N   UNL     1      -0.020   1.652   0.011  0.00  0.00    -0.179 NA
BRANCH  11  12
ATOM     12  S   UNL     1       0.002  -0.004   0.002  0.00  0.00    +0.061 S 
ATOM     13  O   UNL     1      -1.243  -0.424  -0.539  0.00  0.00    -0.153 OA
ATOM     14  O   UNL     1       1.248  -0.390  -0.563  0.00  0.00    -0.153 OA
BRANCH  12  15
ATOM     15  C   UNL     1       0.025  -0.534   1.682  0.00  0.00    +0.105 A 
ATOM     16  C   UNL     1       1.231  -0.731   2.328  0.00  0.00    +0.028 A 
ATOM     17  C   UNL     1       1.249  -1.142   3.648  0.00  0.00    +0.002 A 
ATOM     18  C   UNL     1       0.061  -1.366   4.319  0.00  0.00    +0.000 A 
ATOM     19  C   UNL     1      -1.145  -1.174   3.671  0.00  0.00    +0.002 A 
ATOM     20  C   UNL     1      -1.163  -0.758   2.353  0.00  0.00    +0.028 A 
ENDBRANCH  12  15
ENDBRANCH  11  12
ENDBRANCH   9  11
ENDBRANCH   1   9
BRANCH   1  21
ATOM     21  C   UNL     1       2.844   3.666  -1.433  0.00  0.00    -0.009 C 
BRANCH  21  22
ATOM     22  C   UNL     1       3.132   4.145  -2.858  0.00  0.00    -0.078 C 
BRANCH  22  36
ATOM     23  C   UNL     1       5.404   4.393  -2.060  0.00  0.00    -0.075 C 
ATOM     24  C   UNL     1       6.571   5.379  -1.948  0.00  0.00    +0.030 C 
ATOM     25  C   UNL     1       7.060   5.742  -3.345  0.00  0.00    +0.111 C 
ATOM     26  C   UNL     1       5.919   6.298  -4.189  0.00  0.00    +0.030 C 
ATOM     27  C   UNL     1       4.774   5.282  -4.226  0.00  0.00    -0.075 C 
ATOM     28  C   UNL     1       8.210   6.765  -3.260  0.00  0.00    +0.086 C 
ATOM     29  C   UNL     1       9.430   5.863  -3.292  0.00  0.00    -0.002 A 
ATOM     30  C   UNL     1      10.753   6.087  -2.982  0.00  0.00    +0.007 A 
ATOM     31  C   UNL     1      11.671   5.057  -3.086  0.00  0.00    +0.000 A 
ATOM     32  C   UNL     1      11.254   3.806  -3.501  0.00  0.00    +0.004 A 
ATOM     33  C   UNL     1       9.930   3.580  -3.816  0.00  0.00    +0.046 A 
ATOM     34  C   UNL     1       9.001   4.613  -3.718  0.00  0.00    +0.125 A 
ATOM     35  O   UNL     1       7.664   4.613  -3.983  0.00  0.00    -0.485 OA
ATOM     36  N   UNL     1       4.319   5.024  -2.842  0.00  0.00    +0.380 N 
ATOM     37  H   UNL     1       4.067   5.917  -2.403  0.00  0.00    -0.082 HD
ENDBRANCH  22  36
ENDBRANCH  21  22
ENDBRANCH   1  21
TORSDOF 8
