REMARK  Name = ZINC12034408
REMARK  6 active torsions:
REMARK  status: ('A' for Active; 'I' for Inactive)
REMARK    1  A    between atoms: C_5  and  C_7
REMARK    2  A    between atoms: C_7  and  N_8
REMARK    3  A    between atoms: C_19  and  N_53
REMARK    4  A    between atoms: C_23  and  C_24
REMARK    5  A    between atoms: C_23  and  N_53
REMARK    6  A    between atoms: C_27  and  C_31
REMARK                            x       y       z     vdW  Elec       q    Type
REMARK                         _______ _______ _______ _____ _____    ______ ____
ROOT
ATOM      1  N   UNL     1      -9.456  -3.229   3.255  0.00  0.00    -0.293 N 
ATOM      2  C   UNL     1     -10.436  -2.319   3.038  0.00  0.00    +0.203 A 
ATOM      3  N   UNL     1     -10.197  -1.092   2.630  0.00  0.00    -0.230 NA
ATOM      4  C   UNL     1      -8.928  -0.752   2.428  0.00  0.00    +0.116 A 
ATOM      5  C   UNL     1      -7.837  -1.628   2.626  0.00  0.00    +0.076 A 
ATOM      6  C   UNL     1      -8.142  -2.958   3.072  0.00  0.00    +0.263 A 
ATOM      7  O   UNL     1      -7.274  -3.789   3.273  0.00  0.00    -0.267 OA
ATOM      8  C   UNL     1      -6.520  -1.082   2.355  0.00  0.00    -0.023 A 
ATOM      9  C   UNL     1      -6.470   0.206   1.940  0.00  0.00    -0.006 A 
ATOM     10  S   UNL     1      -8.160   0.745   1.893  0.00  0.00    -0.073 S 
ATOM     11  C   UNL     1      -5.248   1.000   1.594  0.00  0.00    +0.027 C 
ATOM     12  C   UNL     1      -4.070   0.031   1.423  0.00  0.00    -0.066 C 
ATOM     13  C   UNL     1      -4.052  -0.933   2.612  0.00  0.00    -0.011 C 
ATOM     14  C   UNL     1      -5.237  -1.894   2.519  0.00  0.00    +0.035 C 
ENDROOT
BRANCH  12  15
ATOM     15  N   UNL     1      -2.805   0.790   1.391  0.00  0.00    +0.384 N 
ATOM     16  H   UNL     1      -2.039   0.185   1.711  0.00  0.00    -0.085 HD
ATOM     17  H   UNL     1      -2.882   1.603   2.014  0.00  0.00    -0.085 HD
BRANCH  15  18
ATOM     18  C   UNL     1      -2.519   1.253   0.020  0.00  0.00    -0.043 C 
BRANCH  18  19
ATOM     19  C   UNL     1      -1.224   2.023   0.019  0.00  0.00    -0.029 A 
ATOM     20  C   UNL     1      -1.242   3.405   0.032  0.00  0.00    +0.005 A 
ATOM     21  C   UNL     1      -0.054   4.112   0.025  0.00  0.00    +0.013 A 
ATOM     22  C   UNL     1       1.153   3.438   0.010  0.00  0.00    +0.058 A 
ATOM     23  C   UNL     1       1.173   2.056   0.002  0.00  0.00    +0.051 A 
ATOM     24  C   UNL     1      -0.016   1.347   0.009  0.00  0.00    +0.125 A 
ATOM     25  F   UNL     1       0.002  -0.004   0.002  0.00  0.00    -0.205 F 
BRANCH  22  26
ATOM     26  C   UNL     1       2.447   4.210   0.001  0.00  0.00    +0.418 C 
ATOM     27  F   UNL     1       2.835   4.456  -1.321  0.00  0.00    -0.166 F 
ATOM     28  F   UNL     1       2.269   5.426   0.669  0.00  0.00    -0.166 F 
ATOM     29  F   UNL     1       3.439   3.464   0.646  0.00  0.00    -0.166 F 
ENDBRANCH  22  26
ENDBRANCH  18  19
ENDBRANCH  15  18
ENDBRANCH  12  15
BRANCH   1  30
ATOM     30  C   UNL     1      -9.836  -4.569   3.710  0.00  0.00    +0.181 C 
BRANCH  30  35
ATOM     31  C   UNL     1     -11.079  -4.421   7.265  0.00  0.00    +0.003 A 
ATOM     32  C   UNL     1      -9.889  -4.658   7.935  0.00  0.00    +0.020 A 
ATOM     33  C   UNL     1      -8.733  -4.856   7.205  0.00  0.00    +0.111 A 
ATOM     34  N   UNL     1      -8.754  -4.826   5.886  0.00  0.00    -0.258 NA
ATOM     35  C   UNL     1      -9.867  -4.598   5.216  0.00  0.00    +0.061 A 
ATOM     36  C   UNL     1     -11.062  -4.391   5.879  0.00  0.00    +0.025 A 
ENDBRANCH  30  35
ENDBRANCH   1  30
TORSDOF 6
