REMARK  Name = ZINC14886848
REMARK  11 active torsions:
REMARK  status: ('A' for Active; 'I' for Inactive)
REMARK    1  A    between atoms: C_1  and  C_2
REMARK    2  A    between atoms: C_5  and  C_8
REMARK    3  A    between atoms: C_13  and  C_16
REMARK    4  A    between atoms: C_16  and  C_27
REMARK    5  A    between atoms: N_19  and  C_23
REMARK    6  A    between atoms: C_23  and  C_24
REMARK    7  A    between atoms: C_24  and  N_71
REMARK    8  A    between atoms: C_25  and  N_71
REMARK    9  A    between atoms: C_26  and  N_71
REMARK   10  A    between atoms: C_27  and  C_28
REMARK   11  A    between atoms: C_28  and  C_29
REMARK                            x       y       z     vdW  Elec       q    Type
REMARK                         _______ _______ _______ _____ _____    ______ ____
ROOT
ATOM      1  C   UNL     1      -4.330   8.029  -2.501  0.00  0.00    +0.116 C 
ATOM      2  C   UNL     1      -3.601   7.716  -3.793  0.00  0.00    +0.247 C 
ATOM      3  O   UNL     1      -3.253   6.626  -4.191  0.00  0.00    -0.273 OA
ATOM      4  N   UNL     1      -3.421   8.903  -4.406  0.00  0.00    -0.226 N 
ATOM      5  C   UNL     1      -3.930   9.911  -3.689  0.00  0.00    +0.309 C 
ATOM      6  O   UNL     1      -3.890  11.075  -4.037  0.00  0.00    -0.252 OA
ATOM      7  N   UNL     1      -4.492   9.493  -2.541  0.00  0.00    -0.285 N 
ATOM      8  H   UNL     1      -4.920  10.047  -1.869  0.00  0.00    +0.151 HD
ENDROOT
BRANCH   1  14
ATOM      9  C   UNL     1      -0.076   5.750   0.033  0.00  0.00    +0.247 C 
ATOM     10  O   UNL     1       0.967   6.371   0.096  0.00  0.00    -0.270 OA
ATOM     11  N   UNL     1      -1.249   6.409  -0.055  0.00  0.00    -0.298 N 
ATOM     12  C   UNL     1      -2.521   5.674  -0.055  0.00  0.00    +0.108 C 
ATOM     13  C   UNL     1      -3.336   6.090  -1.278  0.00  0.00    +0.025 C 
ATOM     14  C   UNL     1      -3.488   7.613  -1.293  0.00  0.00    +0.024 C 
ATOM     15  C   UNL     1      -2.107   8.265  -1.386  0.00  0.00    +0.025 C 
ATOM     16  C   UNL     1      -1.278   7.874  -0.158  0.00  0.00    +0.108 C 
BRANCH   9  21
ATOM     17  C   UNL     1      -0.006  -0.004   0.106  0.00  0.00    +0.044 C 
ATOM     18  C   UNL     1      -0.025   1.503   0.086  0.00  0.00    -0.050 A 
ATOM     19  C   UNL     1       0.794   2.191  -0.792  0.00  0.00    +0.004 A 
ATOM     20  C   UNL     1       0.779   3.570  -0.818  0.00  0.00    +0.013 A 
ATOM     21  C   UNL     1      -0.058   4.272   0.052  0.00  0.00    +0.037 A 
ATOM     22  C   UNL     1      -0.878   3.572   0.939  0.00  0.00    +0.013 A 
ATOM     23  C   UNL     1      -0.856   2.193   0.951  0.00  0.00    +0.004 A 
ENDBRANCH   9  21
ENDBRANCH   1  14
BRANCH   4  24
ATOM     24  C   UNL     1      -2.751   9.068  -5.698  0.00  0.00    +0.099 C 
BRANCH  24  25
ATOM     25  C   UNL     1      -3.782   8.967  -6.824  0.00  0.00    -0.060 C 
BRANCH  25  28
ATOM     26  C   UNL     1      -4.017   8.808  -9.229  0.00  0.00    -0.097 C 
ATOM     27  C   UNL     1      -2.568  10.491  -8.262  0.00  0.00    -0.097 C 
ATOM     28  N   UNL     1      -3.088   9.114  -8.121  0.00  0.00    +0.377 N 
ATOM     29  H   UNL     1      -2.301   8.456  -8.155  0.00  0.00    -0.083 HD
ENDBRANCH  25  28
ENDBRANCH  24  25
ENDBRANCH   4  24
BRANCH   1  30
ATOM     30  C   UNL     1      -5.693   7.335  -2.470  0.00  0.00    +0.040 C 
BRANCH  30  31
ATOM     31  C   UNL     1      -6.514   7.767  -3.687  0.00  0.00    +0.038 C 
BRANCH  31  32
ATOM     32  C   UNL     1      -7.856   7.083  -3.656  0.00  0.00    -0.047 A 
ATOM     33  C   UNL     1      -8.022   5.859  -4.276  0.00  0.00    +0.003 A 
ATOM     34  C   UNL     1      -9.252   5.229  -4.245  0.00  0.00    +0.000 A 
ATOM     35  C   UNL     1     -10.319   5.828  -3.601  0.00  0.00    +0.000 A 
ATOM     36  C   UNL     1     -10.154   7.055  -2.985  0.00  0.00    +0.000 A 
ATOM     37  C   UNL     1      -8.923   7.682  -3.013  0.00  0.00    +0.003 A 
ENDBRANCH  31  32
ENDBRANCH  30  31
ENDBRANCH   1  30
TORSDOF 8
