REMARK  Name = ZINC36073412
REMARK  14 active torsions:
REMARK  status: ('A' for Active; 'I' for Inactive)
REMARK    1  A    between atoms: C_1  and  C_2
REMARK    2  A    between atoms: C_5  and  C_32
REMARK    3  A    between atoms: C_6  and  C_8
REMARK    4  A    between atoms: C_8  and  N_9
REMARK    5  A    between atoms: N_9  and  C_10
REMARK    6  A    between atoms: N_9  and  C_23
REMARK    7  A    between atoms: C_10  and  C_11
REMARK    8  A    between atoms: C_13  and  C_16
REMARK    9  A    between atoms: N_18  and  C_19
REMARK   10  A    between atoms: C_19  and  C_20
REMARK   11  A    between atoms: C_20  and  C_21
REMARK   12  A    between atoms: C_20  and  C_22
REMARK   13  A    between atoms: C_23  and  C_25
REMARK   14  A    between atoms: C_23  and  C_26
REMARK                            x       y       z     vdW  Elec       q    Type
REMARK                         _______ _______ _______ _____ _____    ______ ____
ROOT
ATOM      1  N   UNL     1       1.703  -3.198   2.733  0.00  0.00    +0.393 N 
ATOM      2  H   UNL     1       2.187  -3.708   2.010  0.00  0.00    -0.080 HD
ENDROOT
BRANCH   1   3
ATOM      3  C   UNL     1       1.633  -4.021   3.948  0.00  0.00    -0.040 C 
ATOM      4  C   UNL     1       0.877  -5.316   3.644  0.00  0.00    -0.008 C 
BRANCH   3   5
ATOM      5  C   UNL     1       3.028  -4.350   4.413  0.00  0.00    -0.061 A 
ATOM      6  C   UNL     1       4.009  -4.659   3.490  0.00  0.00    +0.002 A 
ATOM      7  C   UNL     1       5.289  -4.961   3.917  0.00  0.00    +0.000 A 
ATOM      8  C   UNL     1       5.587  -4.954   5.267  0.00  0.00    +0.000 A 
ATOM      9  C   UNL     1       4.606  -4.644   6.190  0.00  0.00    +0.000 A 
ATOM     10  C   UNL     1       3.328  -4.338   5.763  0.00  0.00    +0.002 A 
ENDBRANCH   3   5
ENDBRANCH   1   3
BRANCH   1  11
ATOM     11  C   UNL     1       0.343  -2.877   2.280  0.00  0.00    -0.041 C 
BRANCH  11  17
ATOM     12  C   UNL     1      -0.040   1.379  -0.325  0.00  0.00    +0.044 C 
ATOM     13  C   UNL     1       0.228  -0.103  -0.278  0.00  0.00    -0.050 A 
ATOM     14  C   UNL     1       0.537  -0.786  -1.440  0.00  0.00    +0.003 A 
ATOM     15  C   UNL     1       0.783  -2.146  -1.398  0.00  0.00    +0.004 A 
ATOM     16  C   UNL     1       0.720  -2.822  -0.194  0.00  0.00    -0.049 A 
ATOM     17  C   UNL     1       0.412  -2.139   0.968  0.00  0.00    -0.061 A 
ATOM     18  C   UNL     1       0.171  -0.779   0.926  0.00  0.00    +0.005 A 
ATOM     19  C   UNL     1       0.988  -4.305  -0.148  0.00  0.00    +0.044 C 
ENDBRANCH  11  17
ENDBRANCH   1  11
BRANCH   1  20
ATOM     20  C   UNL     1       2.428  -1.954   3.025  0.00  0.00    +0.020 C 
BRANCH  20  21
ATOM     21  C   UNL     1       1.775  -1.253   4.189  0.00  0.00    +0.179 A 
ATOM     22  N   UNL     1       2.128  -1.373   5.433  0.00  0.00    -0.210 NA
ATOM     23  C   UNL     1       1.311  -0.592   6.190  0.00  0.00    +0.163 A 
ATOM     24  C   UNL     1       0.437   0.014   5.341  0.00  0.00    +0.230 A 
ATOM     25  O   UNL     1       0.742  -0.403   4.102  0.00  0.00    -0.449 OA
BRANCH  23  26
ATOM     26  C   UNL     1       1.362  -0.432   7.655  0.00  0.00    +0.266 C 
ATOM     27  O   UNL     1       0.514   0.228   8.224  0.00  0.00    -0.268 OA
ATOM     28  N   UNL     1       2.349  -1.016   8.363  0.00  0.00    -0.310 N 
ATOM     29  H   UNL     1       3.066  -1.480   7.903  0.00  0.00    +0.149 HD
BRANCH  28  30
ATOM     30  C   UNL     1       2.338  -0.951   9.826  0.00  0.00    +0.107 C 
BRANCH  30  31
ATOM     31  C   UNL     1       3.618  -1.584  10.374  0.00  0.00    -0.000 C 
ATOM     32  C   UNL     1       3.666  -1.405  11.893  0.00  0.00    +0.009 C 
ATOM     33  C   UNL     1       3.635  -3.076  10.035  0.00  0.00    +0.009 C 
ENDBRANCH  30  31
ENDBRANCH  28  30
ENDBRANCH  23  26
ENDBRANCH  20  21
ENDBRANCH   1  20
TORSDOF 9
