REMARK  Name = ZINC39999227
REMARK  12 active torsions:
REMARK  status: ('A' for Active; 'I' for Inactive)
REMARK    1  A    between atoms: C_1  and  C_2
REMARK    2  A    between atoms: C_2  and  C_3
REMARK    3  A    between atoms: C_3  and  C_4
REMARK    4  A    between atoms: C_4  and  C_5
REMARK    5  A    between atoms: C_5  and  C_7
REMARK    6  A    between atoms: C_5  and  C_9
REMARK    7  A    between atoms: C_7  and  C_8
REMARK    8  A    between atoms: C_9  and  N_10
REMARK    9  A    between atoms: C_14  and  C_15
REMARK   10  A    between atoms: C_16  and  O_27
REMARK   11  A    between atoms: C_21  and  C_26
REMARK   12  A    between atoms: O_27  and  C_28
REMARK                            x       y       z     vdW  Elec       q    Type
REMARK                         _______ _______ _______ _____ _____    ______ ____
ROOT
ATOM      1  C   UNL     1       2.631  -6.423  -8.249  0.00  0.00    +0.103 A 
ATOM      2  C   UNL     1       3.948  -5.964  -8.474  0.00  0.00    +0.235 A 
ATOM      3  N   UNL     1       4.689  -6.539  -9.408  0.00  0.00    -0.194 NA
ATOM      4  C   UNL     1       4.225  -7.546 -10.149  0.00  0.00    +0.144 A 
ATOM      5  C   UNL     1       5.059  -8.117 -11.127  0.00  0.00    +0.047 A 
ATOM      6  C   UNL     1       4.593  -9.148 -11.889  0.00  0.00    +0.008 A 
ATOM      7  C   UNL     1       3.290  -9.623 -11.687  0.00  0.00    -0.034 A 
ATOM      8  C   UNL     1       2.502  -9.062 -10.742  0.00  0.00    +0.099 A 
ATOM      9  N   UNL     1       2.959  -8.032  -9.975  0.00  0.00    -0.267 N 
ATOM     10  C   UNL     1       2.149  -7.496  -9.036  0.00  0.00    +0.269 A 
ATOM     11  O   UNL     1       1.020  -7.927  -8.873  0.00  0.00    -0.266 OA
ATOM     12  C   UNL     1       2.766 -10.761 -12.524  0.00  0.00    +0.045 C 
ENDROOT
BRANCH   1  17
ATOM     13  N   UNL     1       2.287  -5.186  -3.680  0.00  0.00    -0.255 N 
ATOM     14  C   UNL     1       1.658  -5.118  -4.841  0.00  0.00    +0.258 C 
ATOM     15  O   UNL     1       0.597  -4.528  -4.944  0.00  0.00    -0.269 OA
ATOM     16  C   UNL     1       2.256  -5.753  -5.967  0.00  0.00    +0.077 C 
ATOM     17  C   UNL     1       1.817  -5.828  -7.256  0.00  0.00    +0.039 C 
ATOM     18  S   UNL     1       3.740  -6.426  -5.231  0.00  0.00    -0.061 S 
ATOM     19  C   UNL     1       3.467  -5.836  -3.567  0.00  0.00    +0.121 C 
ATOM     20  S   UNL     1       4.450  -6.043  -2.180  0.00  0.00    -0.027 S 
BRANCH  13  21
ATOM     21  C   UNL     1       1.700  -4.544  -2.502  0.00  0.00    +0.118 C 
BRANCH  21  22
ATOM     22  C   UNL     1       2.198  -3.101  -2.407  0.00  0.00    +0.007 C 
BRANCH  22  23
ATOM     23  C   UNL     1       1.679  -2.302  -3.604  0.00  0.00    +0.002 C 
ATOM     24  C   UNL     1       2.248  -0.883  -3.556  0.00  0.00    +0.004 C 
ENDBRANCH  22  23
BRANCH  22  25
ATOM     25  C   UNL     1       1.686  -2.469  -1.111  0.00  0.00    +0.005 C 
BRANCH  25  26
ATOM     26  C   UNL     1       2.319  -3.178   0.088  0.00  0.00    +0.000 C 
BRANCH  26  28
ATOM     27  C   UNL     1       2.529  -3.184   2.577  0.00  0.00    +0.004 C 
ATOM     28  C   UNL     1       1.895  -2.475   1.379  0.00  0.00    -0.003 C 
ENDBRANCH  26  28
ENDBRANCH  25  26
ENDBRANCH  22  25
ENDBRANCH  21  22
ENDBRANCH  13  21
ENDBRANCH   1  17
BRANCH   2  29
ATOM     29  O   UNL     1       4.449  -4.944  -7.740  0.00  0.00    -0.434 OA
BRANCH  29  30
ATOM     30  C   UNL     1       5.679  -4.467  -8.067  0.00  0.00    +0.165 A 
ATOM     31  C   UNL     1       6.803  -4.925  -7.395  0.00  0.00    +0.049 A 
ATOM     32  C   UNL     1       8.052  -4.439  -7.729  0.00  0.00    +0.004 A 
ATOM     33  C   UNL     1       8.184  -3.496  -8.732  0.00  0.00    +0.003 A 
ATOM     34  C   UNL     1       7.067  -3.037  -9.404  0.00  0.00    +0.042 A 
ATOM     35  C   UNL     1       5.814  -3.523  -9.078  0.00  0.00    +0.165 A 
ATOM     36  F   UNL     1       4.722  -3.079  -9.738  0.00  0.00    -0.202 F 
ENDBRANCH  29  30
ENDBRANCH   2  29
TORSDOF 9
