REMARK  Name = ZINC35993399
REMARK  12 active torsions:
REMARK  status: ('A' for Active; 'I' for Inactive)
REMARK    1  A    between atoms: C_1  and  C_2
REMARK    2  A    between atoms: C_2  and  O_3
REMARK    3  A    between atoms: O_3  and  C_4
REMARK    4  A    between atoms: C_4  and  C_6
REMARK    5  A    between atoms: C_7  and  C_22
REMARK    6  A    between atoms: N_8  and  C_21
REMARK    7  A    between atoms: C_12  and  C_14
REMARK    8  A    between atoms: C_19  and  C_20
REMARK    9  A    between atoms: C_22  and  N_23
REMARK   10  A    between atoms: C_30  and  C_32
REMARK   11  A    between atoms: C_32  and  C_33
REMARK   12  A    between atoms: C_32  and  C_34
REMARK                            x       y       z     vdW  Elec       q    Type
REMARK                         _______ _______ _______ _____ _____    ______ ____
ROOT
ATOM      1  C   UNL     1       1.438  -2.397  -2.619  0.00  0.00    +0.080 C 
ATOM      2  C   UNL     1       1.641  -3.723  -2.774  0.00  0.00    +0.041 C 
ATOM      3  N   UNL     1       2.613  -4.194  -3.610  0.00  0.00    -0.260 N 
ATOM      4  C   UNL     1       3.425  -3.404  -4.325  0.00  0.00    +0.307 C 
ATOM      5  O   UNL     1       4.261  -3.917  -5.042  0.00  0.00    -0.252 OA
ATOM      6  N   UNL     1       3.343  -2.060  -4.275  0.00  0.00    -0.288 N 
ATOM      7  C   UNL     1       2.321  -1.451  -3.407  0.00  0.00    +0.144 C 
ATOM      8  C   UNL     1       2.778  -5.645  -3.730  0.00  0.00    +0.139 C 
ATOM      9  H   UNL     1       3.942  -1.506  -4.801  0.00  0.00    +0.151 HD
ENDROOT
BRANCH   7  10
ATOM     10  C   UNL     1       3.028  -0.550  -2.427  0.00  0.00    -0.020 A 
ATOM     11  C   UNL     1       3.144  -0.926  -1.102  0.00  0.00    +0.006 A 
ATOM     12  C   UNL     1       3.792  -0.100  -0.203  0.00  0.00    +0.000 A 
ATOM     13  C   UNL     1       4.325   1.102  -0.629  0.00  0.00    +0.000 A 
ATOM     14  C   UNL     1       4.210   1.478  -1.954  0.00  0.00    +0.004 A 
ATOM     15  C   UNL     1       3.566   0.649  -2.854  0.00  0.00    -0.045 A 
ATOM     16  C   UNL     1       3.445   1.056  -4.300  0.00  0.00    +0.044 C 
ENDBRANCH   7  10
BRANCH   1  17
ATOM     17  C   UNL     1       0.431  -1.908  -1.754  0.00  0.00    +0.339 C 
ATOM     18  O   UNL     1      -0.279  -2.686  -1.146  0.00  0.00    -0.245 OA
BRANCH  17  19
ATOM     19  O   UNL     1       0.259  -0.578  -1.603  0.00  0.00    -0.462 OA
BRANCH  19  21
ATOM     20  C   UNL     1      -0.686   1.371  -0.531  0.00  0.00    +0.048 C 
ATOM     21  C   UNL     1      -0.716  -0.154  -0.648  0.00  0.00    +0.229 C 
ENDBRANCH  19  21
ENDBRANCH  17  19
ENDBRANCH   1  17
BRANCH   2  22
ATOM     22  C   UNL     1       0.781  -4.699  -2.013  0.00  0.00    +0.136 C 
BRANCH  22  23
ATOM     23  N   UNL     1      -0.506  -4.858  -2.702  0.00  0.00    -0.295 NA
ATOM     24  C   UNL     1      -1.522  -5.392  -1.797  0.00  0.00    +0.086 C 
ATOM     25  C   UNL     1      -2.862  -4.777  -2.138  0.00  0.00    +0.034 C 
ATOM     26  C   UNL     1      -3.605  -5.679  -3.138  0.00  0.00    +0.109 C 
ATOM     27  N   UNL     1      -2.683  -6.229  -4.151  0.00  0.00    -0.300 N 
ATOM     28  C   UNL     1      -1.641  -5.435  -4.769  0.00  0.00    +0.123 C 
ATOM     29  C   UNL     1      -0.343  -5.536  -3.932  0.00  0.00    +0.103 C 
ATOM     30  C   UNL     1      -2.816  -7.520  -4.515  0.00  0.00    +0.218 C 
ATOM     31  O   UNL     1      -2.071  -7.996  -5.345  0.00  0.00    -0.275 OA
BRANCH  30  32
ATOM     32  C   UNL     1      -3.890  -8.373  -3.890  0.00  0.00    +0.069 C 
ATOM     33  C   UNL     1      -5.261  -7.762  -4.186  0.00  0.00    +0.017 C 
ATOM     34  C   UNL     1      -3.824  -9.785  -4.474  0.00  0.00    +0.017 C 
ENDBRANCH  30  32
ENDBRANCH  22  23
ENDBRANCH   2  22
TORSDOF 7
