REMARK  Name = ZINC32866411
REMARK  10 active torsions:
REMARK  status: ('A' for Active; 'I' for Inactive)
REMARK    1  A    between atoms: C_1  and  C_2
REMARK    2  A    between atoms: C_2  and  O_3
REMARK    3  A    between atoms: O_3  and  C_4
REMARK    4  A    between atoms: C_7  and  C_24
REMARK    5  A    between atoms: C_9  and  C_10
REMARK    6  A    between atoms: C_10  and  O_12
REMARK    7  A    between atoms: O_12  and  C_13
REMARK    8  A    between atoms: C_13  and  C_14
REMARK    9  A    between atoms: C_17  and  C_19
REMARK   10  A    between atoms: C_24  and  N_25
REMARK                            x       y       z     vdW  Elec       q    Type
REMARK                         _______ _______ _______ _____ _____    ______ ____
ROOT
ATOM      1  C   UNL     1      -9.531   3.949   0.073  0.00  0.00    +0.134 A 
ATOM      2  C   UNL     1     -10.489   4.952   0.083  0.00  0.00    +0.047 A 
ATOM      3  C   UNL     1     -10.103   6.277   0.088  0.00  0.00    +0.009 A 
ATOM      4  C   UNL     1      -8.759   6.616   0.082  0.00  0.00    -0.029 A 
ATOM      5  C   UNL     1      -7.794   5.633   0.078  0.00  0.00    +0.023 A 
ATOM      6  C   UNL     1      -8.171   4.287   0.068  0.00  0.00    +0.101 A 
ENDROOT
BRANCH   6   7
ATOM      7  C   UNL     1      -7.144   3.230   0.057  0.00  0.00    +0.343 C 
ATOM      8  O   UNL     1      -7.475   2.061   0.053  0.00  0.00    -0.245 OA
BRANCH   7   9
ATOM      9  O   UNL     1      -5.837   3.560   0.052  0.00  0.00    -0.452 OA
BRANCH   9  10
ATOM     10  C   UNL     1      -4.881   2.467   0.041  0.00  0.00    +0.328 C 
BRANCH  10  11
ATOM     11  C   UNL     1      -3.481   3.024   0.036  0.00  0.00    +0.257 C 
ATOM     12  O   UNL     1      -3.306   4.224   0.042  0.00  0.00    -0.272 OA
ATOM     13  N   UNL     1      -2.424   2.189   0.027  0.00  0.00    -0.249 N 
ATOM     14  C   UNL     1      -1.171   2.687   0.022  0.00  0.00    +0.257 C 
ATOM     15  O   UNL     1      -0.996   3.891   0.028  0.00  0.00    -0.269 OA
ATOM     16  H   UNL     1      -2.582   1.101   0.022  0.00  0.00    +0.158 HD
BRANCH  14  17
ATOM     17  C   UNL     1      -0.022   1.780   0.012  0.00  0.00    +0.074 A 
ATOM     18  C   UNL     1       1.331   2.083   0.001  0.00  0.00    +0.021 A 
ATOM     19  C   UNL     1       2.208   1.028  -0.013  0.00  0.00    +0.008 A 
ATOM     20  C   UNL     1       1.719  -0.241  -0.016  0.00  0.00    +0.046 A 
ATOM     21  S   UNL     1       0.002  -0.004   0.002  0.00  0.00    -0.092 S 
ENDBRANCH  14  17
ENDBRANCH  10  11
ENDBRANCH   9  10
ENDBRANCH   7   9
ENDBRANCH   6   7
BRANCH   1  22
ATOM     22  O   UNL     1      -9.909   2.646   0.069  0.00  0.00    -0.491 OA
BRANCH  22  24
ATOM     23  C   UNL     1     -11.543   0.865   0.069  0.00  0.00    +0.048 C 
ATOM     24  C   UNL     1     -11.313   2.377   0.075  0.00  0.00    +0.226 C 
ENDBRANCH  22  24
ENDBRANCH   1  22
BRANCH   4  25
ATOM     25  C   UNL     1      -8.352   8.067   0.087  0.00  0.00    +0.152 C 
BRANCH  25  26
ATOM     26  N   UNL     1      -8.212   8.530   1.470  0.00  0.00    -0.230 N 
ATOM     27  C   UNL     1      -9.206   9.076   2.194  0.00  0.00    +0.254 C 
ATOM     28  O   UNL     1     -10.344   9.259   1.812  0.00  0.00    -0.270 OA
ATOM     29  C   UNL     1      -8.682   9.412   3.535  0.00  0.00    +0.049 A 
ATOM     30  C   UNL     1      -9.230   9.979   4.674  0.00  0.00    +0.014 A 
ATOM     31  C   UNL     1      -8.440  10.167   5.797  0.00  0.00    +0.001 A 
ATOM     32  C   UNL     1      -7.109   9.793   5.788  0.00  0.00    +0.001 A 
ATOM     33  C   UNL     1      -6.547   9.224   4.655  0.00  0.00    +0.014 A 
ATOM     34  C   UNL     1      -7.325   9.030   3.526  0.00  0.00    +0.049 A 
ATOM     35  C   UNL     1      -7.072   8.471   2.181  0.00  0.00    +0.254 C 
ATOM     36  O   UNL     1      -6.011   8.031   1.785  0.00  0.00    -0.270 OA
ENDBRANCH  25  26
ENDBRANCH   4  25
TORSDOF 9
