REMARK  Name = ZINC04663676
REMARK  9 active torsions:
REMARK  status: ('A' for Active; 'I' for Inactive)
REMARK    1  A    between atoms: C_1  and  C_2
REMARK    2  A    between atoms: C_2  and  C_3
REMARK    3  A    between atoms: C_5  and  C_34
REMARK    4  A    between atoms: C_7  and  N_27
REMARK    5  A    between atoms: C_16  and  C_18
REMARK    6  A    between atoms: C_21  and  C_24
REMARK    7  A    between atoms: C_24  and  C_25
REMARK    8  A    between atoms: C_24  and  C_26
REMARK    9  A    between atoms: N_27  and  C_28
REMARK                            x       y       z     vdW  Elec       q    Type
REMARK                         _______ _______ _______ _____ _____    ______ ____
ROOT
ATOM      1  C   UNL     1      -8.316  -0.681   0.247  0.00  0.00    +0.086 C 
ATOM      2  C   UNL     1      -9.225   0.456  -0.249  0.00  0.00    +0.031 C 
ATOM      3  C   UNL     1      -8.842   0.797  -1.689  0.00  0.00    +0.107 C 
ATOM      4  C   UNL     1      -7.360   1.040  -1.797  0.00  0.00    -0.006 A 
ATOM      5  C   UNL     1      -6.876   1.762  -2.875  0.00  0.00    +0.007 A 
ATOM      6  C   UNL     1      -5.521   1.994  -3.007  0.00  0.00    +0.000 A 
ATOM      7  C   UNL     1      -4.637   1.505  -2.062  0.00  0.00    +0.002 A 
ATOM      8  C   UNL     1      -5.112   0.786  -0.983  0.00  0.00    +0.024 A 
ATOM      9  C   UNL     1      -6.476   0.553  -0.848  0.00  0.00    +0.042 A 
ATOM     10  N   UNL     1      -6.937  -0.175   0.257  0.00  0.00    -0.264 N 
ATOM     11  C   UNL     1      -6.127  -0.413   1.307  0.00  0.00    +0.251 C 
ATOM     12  O   UNL     1      -4.953  -0.102   1.252  0.00  0.00    -0.270 OA
ATOM     13  C   UNL     1      -9.040   1.689   0.637  0.00  0.00    +0.011 C 
ENDROOT
BRANCH  11  14
ATOM     14  C   UNL     1      -6.667  -1.051   2.527  0.00  0.00    +0.037 A 
ATOM     15  C   UNL     1      -6.116  -0.756   3.775  0.00  0.00    +0.013 A 
ATOM     16  C   UNL     1      -6.623  -1.355   4.909  0.00  0.00    +0.004 A 
ATOM     17  C   UNL     1      -7.677  -2.247   4.811  0.00  0.00    -0.045 A 
ATOM     18  C   UNL     1      -8.224  -2.548   3.577  0.00  0.00    +0.004 A 
ATOM     19  C   UNL     1      -7.729  -1.952   2.435  0.00  0.00    +0.013 A 
BRANCH  17  20
ATOM     20  C   UNL     1      -8.227  -2.897   6.054  0.00  0.00    +0.013 C 
ATOM     21  C   UNL     1      -9.705  -2.533   6.210  0.00  0.00    +0.012 C 
ATOM     22  C   UNL     1      -8.086  -4.416   5.940  0.00  0.00    +0.012 C 
ENDBRANCH  17  20
ENDBRANCH  11  14
BRANCH   1  24
ATOM     23  C   UNL     1      -7.576  -3.034  -0.148  0.00  0.00    +0.006 C 
ATOM     24  C   UNL     1      -8.421  -1.883  -0.694  0.00  0.00    +0.020 C 
ENDBRANCH   1  24
BRANCH   3  25
ATOM     25  N   UNL     1      -9.561   2.004  -2.107  0.00  0.00    -0.337 N 
ATOM     26  H   UNL     1      -9.852   2.650  -1.444  0.00  0.00    +0.147 HD
BRANCH  25  27
ATOM     27  C   UNL     1      -9.829   2.223  -3.460  0.00  0.00    +0.028 A 
ATOM     28  C   UNL     1      -9.409   1.302  -4.411  0.00  0.00    +0.023 A 
ATOM     29  C   UNL     1      -9.680   1.520  -5.748  0.00  0.00    +0.002 A 
ATOM     30  C   UNL     1     -10.358   2.659  -6.141  0.00  0.00    +0.000 A 
ATOM     31  C   UNL     1     -10.773   3.580  -5.197  0.00  0.00    +0.002 A 
ATOM     32  C   UNL     1     -10.511   3.366  -3.859  0.00  0.00    +0.023 A 
ENDBRANCH  25  27
ENDBRANCH   3  25
TORSDOF 5
