REMARK  Name = ZINC63514085
REMARK  9 active torsions:
REMARK  status: ('A' for Active; 'I' for Inactive)
REMARK    1  A    between atoms: C_1  and  C_2
REMARK    2  A    between atoms: C_4  and  C_12
REMARK    3  A    between atoms: C_12  and  C_13
REMARK    4  A    between atoms: C_13  and  N_14
REMARK    5  A    between atoms: N_14  and  S_15
REMARK    6  A    between atoms: S_15  and  C_18
REMARK    7  A    between atoms: C_22  and  C_24
REMARK    8  A    between atoms: N_26  and  C_27
REMARK    9  A    between atoms: C_31  and  N_33
REMARK                            x       y       z     vdW  Elec       q    Type
REMARK                         _______ _______ _______ _____ _____    ______ ____
ROOT
ATOM      1  C   UNL     1      -7.039  -1.473  -0.040  0.00  0.00    +0.106 A 
ATOM      2  C   UNL     1      -6.760  -2.229   1.085  0.00  0.00    +0.028 A 
ATOM      3  C   UNL     1      -7.431  -1.989   2.271  0.00  0.00    +0.003 A 
ATOM      4  C   UNL     1      -8.384  -0.993   2.339  0.00  0.00    +0.013 A 
ATOM      5  C   UNL     1      -8.670  -0.227   1.208  0.00  0.00    +0.039 A 
ATOM      6  C   UNL     1      -7.986  -0.471   0.015  0.00  0.00    +0.041 A 
ENDROOT
BRANCH   5   7
ATOM      7  C   UNL     1      -9.690   0.841   1.273  0.00  0.00    +0.248 C 
ATOM      8  O   UNL     1      -9.937   1.506   0.286  0.00  0.00    -0.270 OA
ATOM      9  N   UNL     1     -10.345   1.077   2.426  0.00  0.00    -0.281 N 
ATOM     10  H   UNL     1     -10.198   0.503   3.195  0.00  0.00    +0.155 HD
BRANCH   9  11
ATOM     11  C   UNL     1     -11.239   2.149   2.516  0.00  0.00    +0.036 A 
ATOM     12  C   UNL     1     -11.355   2.861   3.703  0.00  0.00    +0.023 A 
ATOM     13  C   UNL     1     -12.238   3.920   3.788  0.00  0.00    +0.004 A 
ATOM     14  C   UNL     1     -13.007   4.270   2.693  0.00  0.00    +0.033 A 
ATOM     15  C   UNL     1     -12.894   3.563   1.510  0.00  0.00    +0.128 A 
ATOM     16  C   UNL     1     -12.009   2.507   1.417  0.00  0.00    +0.056 A 
BRANCH  15  17
ATOM     17  N   UNL     1     -13.720   3.941   0.341  0.00  0.00    +0.056 N 
ATOM     18  O   UNL     1     -14.492   4.868   0.421  0.00  0.00    -0.126 OA
ATOM     19  O   UNL     1     -13.621   3.324  -0.694  0.00  0.00    -0.126 OA
ENDBRANCH  15  17
ENDBRANCH   9  11
ENDBRANCH   5   7
BRANCH   1  20
ATOM     20  S   UNL     1      -6.179  -1.787  -1.545  0.00  0.00    +0.058 S 
ATOM     21  O   UNL     1      -7.006  -1.304  -2.595  0.00  0.00    -0.153 OA
ATOM     22  O   UNL     1      -5.735  -3.136  -1.486  0.00  0.00    -0.153 OA
BRANCH  20  23
ATOM     23  N   UNL     1      -4.820  -0.841  -1.539  0.00  0.00    -0.190 NA
ATOM     24  H   UNL     1      -4.720  -0.133  -2.194  0.00  0.00    +0.148 HD
BRANCH  23  25
ATOM     25  C   UNL     1      -3.770  -1.073  -0.544  0.00  0.00    +0.110 C 
BRANCH  25  26
ATOM     26  C   UNL     1      -2.494  -0.346  -0.971  0.00  0.00    +0.050 C 
BRANCH  26  29
ATOM     27  C   UNL     1      -0.011   1.478   0.037  0.00  0.00    +0.035 C 
ATOM     28  C   UNL     1       0.002  -0.051   0.022  0.00  0.00    +0.103 C 
ATOM     29  C   UNL     1      -1.413  -0.585   0.052  0.00  0.00    -0.037 C 
ATOM     30  C   UNL     1      -1.513  -1.319   1.184  0.00  0.00    -0.001 A 
ATOM     31  C   UNL     1      -2.615  -2.085   1.778  0.00  0.00    +0.010 A 
ATOM     32  C   UNL     1      -2.409  -2.732   2.947  0.00  0.00    +0.001 A 
ATOM     33  C   UNL     1      -1.172  -2.688   3.605  0.00  0.00    +0.002 A 
ATOM     34  C   UNL     1      -0.112  -2.005   3.122  0.00  0.00    +0.026 A 
ATOM     35  C   UNL     1      -0.217  -1.289   1.898  0.00  0.00    +0.043 A 
ATOM     36  N   UNL     1       0.652  -0.564   1.233  0.00  0.00    -0.378 N 
ATOM     37  H   UNL     1       1.570  -0.394   1.498  0.00  0.00    +0.160 HD
ENDBRANCH  26  29
ENDBRANCH  25  26
ENDBRANCH  23  25
ENDBRANCH  20  23
ENDBRANCH   1  20
TORSDOF 8
