REMARK  Name = ZINC17334919
REMARK  8 active torsions:
REMARK  status: ('A' for Active; 'I' for Inactive)
REMARK    1  A    between atoms: C_1  and  C_2
REMARK    2  A    between atoms: C_5  and  S_19
REMARK    3  A    between atoms: C_7  and  C_8
REMARK    4  A    between atoms: N_10  and  C_11
REMARK    5  A    between atoms: C_11  and  C_12
REMARK    6  A    between atoms: C_12  and  C_13
REMARK    7  A    between atoms: S_19  and  N_22
REMARK    8  A    between atoms: C_27  and  C_29
REMARK                            x       y       z     vdW  Elec       q    Type
REMARK                         _______ _______ _______ _____ _____    ______ ____
ROOT
ATOM      1  C   UNL     1      -7.520   1.213   1.661  0.00  0.00    +0.044 C 
ATOM      2  C   UNL     1      -6.301   2.017   1.290  0.00  0.00    -0.038 A 
ATOM      3  C   UNL     1      -5.415   2.422   2.267  0.00  0.00    +0.006 A 
ATOM      4  C   UNL     1      -4.295   3.160   1.927  0.00  0.00    +0.029 A 
ATOM      5  C   UNL     1      -4.056   3.498   0.607  0.00  0.00    +0.106 A 
ATOM      6  C   UNL     1      -4.937   3.104  -0.379  0.00  0.00    +0.041 A 
ATOM      7  C   UNL     1      -6.066   2.354  -0.044  0.00  0.00    +0.041 A 
ENDROOT
BRANCH   7   8
ATOM      8  C   UNL     1      -7.011   1.924  -1.096  0.00  0.00    +0.244 C 
ATOM      9  O   UNL     1      -8.043   1.360  -0.792  0.00  0.00    -0.270 OA
ATOM     10  N   UNL     1      -6.726   2.156  -2.393  0.00  0.00    -0.311 N 
ATOM     11  H   UNL     1      -5.902   2.606  -2.636  0.00  0.00    +0.149 HD
BRANCH  10  12
ATOM     12  C   UNL     1      -7.663   1.730  -3.436  0.00  0.00    +0.109 C 
BRANCH  12  13
ATOM     13  C   UNL     1      -7.105   2.112  -4.809  0.00  0.00    +0.049 C 
BRANCH  13  14
ATOM     14  C   UNL     1      -8.069   1.673  -5.882  0.00  0.00    -0.072 C 
ATOM     15  C   UNL     1      -8.925   2.539  -6.319  0.00  0.00    -0.028 C 
ATOM     16  C   UNL     1      -9.951   2.248  -7.375  0.00  0.00    +0.027 C 
ATOM     17  C   UNL     1      -9.575   0.976  -8.139  0.00  0.00    +0.004 C 
ATOM     18  C   UNL     1      -9.255  -0.125  -7.120  0.00  0.00    +0.005 C 
ATOM     19  C   UNL     1      -7.971   0.261  -6.381  0.00  0.00    +0.030 C 
ENDBRANCH  13  14
ENDBRANCH  12  13
ENDBRANCH  10  12
ENDBRANCH   7   8
BRANCH   5  20
ATOM     20  S   UNL     1      -2.627   4.438   0.185  0.00  0.00    +0.061 S 
ATOM     21  O   UNL     1      -2.143   5.005   1.395  0.00  0.00    -0.153 OA
ATOM     22  O   UNL     1      -2.981   5.231  -0.940  0.00  0.00    -0.153 OA
BRANCH  20  23
ATOM     23  N   UNL     1      -1.473   3.370  -0.333  0.00  0.00    -0.174 NA
ATOM     24  C   UNL     1      -1.238   3.159  -1.768  0.00  0.00    +0.110 C 
ATOM     25  C   UNL     1       0.250   3.371  -2.060  0.00  0.00    +0.017 C 
ATOM     26  C   UNL     1       1.080   2.465  -1.148  0.00  0.00    +0.003 C 
ATOM     27  C   UNL     1       0.818   2.833   0.314  0.00  0.00    +0.020 C 
ATOM     28  C   UNL     1      -0.665   2.614   0.634  0.00  0.00    +0.077 C 
ATOM     29  C   UNL     1      -0.962   3.107   2.052  0.00  0.00    +0.026 C 
ENDBRANCH  20  23
ENDBRANCH   5  20
TORSDOF 6
