REMARK  Name = ZINC39840907
REMARK  11 active torsions:
REMARK  status: ('A' for Active; 'I' for Inactive)
REMARK    1  A    between atoms: C_1  and  C_2
REMARK    2  A    between atoms: C_2  and  C_3
REMARK    3  A    between atoms: C_3  and  C_4
REMARK    4  A    between atoms: C_4  and  O_5
REMARK    5  A    between atoms: O_5  and  C_6
REMARK    6  A    between atoms: C_9  and  C_12
REMARK    7  A    between atoms: C_13  and  C_14
REMARK    8  A    between atoms: C_22  and  C_23
REMARK    9  A    between atoms: C_26  and  C_28
REMARK   10  A    between atoms: C_31  and  C_34
REMARK   11  A    between atoms: C_34  and  C_36
REMARK                            x       y       z     vdW  Elec       q    Type
REMARK                         _______ _______ _______ _____ _____    ______ ____
ROOT
ATOM      1  C   UNL     1       2.538  -9.992  -4.394  0.00  0.00    +0.176 A 
ATOM      2  N   UNL     1       2.062 -10.920  -3.546  0.00  0.00    -0.201 NA
ATOM      3  C   UNL     1       2.348 -12.106  -4.002  0.00  0.00    +0.200 A 
ATOM      4  N   UNL     1       3.032 -11.996  -5.181  0.00  0.00    -0.169 N 
ATOM      5  N   UNL     1       3.129 -10.595  -5.401  0.00  0.00    -0.142 NA
ATOM      6  C   UNL     1       3.418 -13.114  -5.811  0.00  0.00    +0.288 A 
ATOM      7  O   UNL     1       4.029 -13.063  -6.863  0.00  0.00    -0.265 OA
ATOM      8  C   UNL     1       3.080 -14.400  -5.193  0.00  0.00    +0.085 A 
ATOM      9  C   UNL     1       3.351 -15.668  -5.622  0.00  0.00    +0.067 C 
ATOM     10  S   UNL     1       2.218 -13.858  -3.725  0.00  0.00    -0.044 S 
ENDROOT
BRANCH   9  11
ATOM     11  C   UNL     1       2.926 -16.777  -4.859  0.00  0.00    +0.130 A 
ATOM     12  C   UNL     1       3.139 -18.108  -5.174  0.00  0.00    +0.050 A 
ATOM     13  C   UNL     1       2.557 -18.863  -4.155  0.00  0.00    +0.050 A 
ATOM     14  C   UNL     1       2.011 -17.973  -3.256  0.00  0.00    +0.136 A 
ATOM     15  O   UNL     1       2.249 -16.723  -3.694  0.00  0.00    -0.455 OA
BRANCH  14  16
ATOM     16  C   UNL     1       1.292 -18.329  -2.020  0.00  0.00    +0.017 A 
ATOM     17  C   UNL     1       1.123 -19.675  -1.673  0.00  0.00    +0.012 A 
ATOM     18  C   UNL     1       0.457 -20.006  -0.528  0.00  0.00    +0.012 A 
ATOM     19  C   UNL     1      -0.056 -18.998   0.300  0.00  0.00    +0.017 A 
ATOM     20  C   UNL     1       0.115 -17.652  -0.048  0.00  0.00    +0.012 A 
ATOM     21  C   UNL     1       0.784 -17.322  -1.191  0.00  0.00    +0.012 A 
BRANCH  19  22
ATOM     22  C   UNL     1      -0.773 -19.354   1.532  0.00  0.00    +0.160 C 
ATOM     23  O   UNL     1      -1.008 -20.517   1.782  0.00  0.00    -0.292 OA
ATOM     24  C   UNL     1      -1.215 -18.273   2.484  0.00  0.00    +0.091 C 
ENDBRANCH  19  22
ENDBRANCH  14  16
ENDBRANCH   9  11
BRANCH   1  26
ATOM     25  C   UNL     1       1.784  -8.035  -3.147  0.00  0.00    +0.011 C 
ATOM     26  C   UNL     1       2.413  -8.534  -4.224  0.00  0.00    +0.050 C 
BRANCH  25  30
ATOM     27  C   UNL     1       1.423  -3.834  -2.658  0.00  0.00    +0.121 A 
ATOM     28  C   UNL     1       0.890  -4.691  -1.703  0.00  0.00    +0.046 A 
ATOM     29  C   UNL     1       1.004  -6.055  -1.858  0.00  0.00    +0.011 A 
ATOM     30  C   UNL     1       1.658  -6.577  -2.978  0.00  0.00    -0.025 A 
ATOM     31  C   UNL     1       2.193  -5.711  -3.936  0.00  0.00    +0.011 A 
ATOM     32  C   UNL     1       2.069  -4.348  -3.775  0.00  0.00    +0.046 A 
BRANCH  27  33
ATOM     33  O   UNL     1       1.308  -2.490  -2.502  0.00  0.00    -0.492 OA
BRANCH  33  34
ATOM     34  C   UNL     1       0.632  -2.029  -1.330  0.00  0.00    +0.229 C 
BRANCH  34  35
ATOM     35  C   UNL     1       0.601  -0.499  -1.328  0.00  0.00    +0.041 C 
BRANCH  35  37
ATOM     36  C   UNL     1      -0.154   1.524  -0.071  0.00  0.00    +0.004 C 
ATOM     37  C   UNL     1      -0.123  -0.006  -0.073  0.00  0.00    -0.000 C 
ENDBRANCH  35  37
ENDBRANCH  34  35
ENDBRANCH  33  34
ENDBRANCH  27  33
ENDBRANCH  25  30
ENDBRANCH   1  26
TORSDOF 9
