REMARK  Name = ZINC45669765
REMARK  9 active torsions:
REMARK  status: ('A' for Active; 'I' for Inactive)
REMARK    1  A    between atoms: C_1  and  C_2
REMARK    2  A    between atoms: C_4  and  N_26
REMARK    3  A    between atoms: C_6  and  C_7
REMARK    4  A    between atoms: C_7  and  O_9
REMARK    5  A    between atoms: O_9  and  C_10
REMARK    6  A    between atoms: C_10  and  C_11
REMARK    7  A    between atoms: N_13  and  C_14
REMARK    8  A    between atoms: C_19  and  C_20
REMARK    9  A    between atoms: C_27  and  C_29
REMARK                            x       y       z     vdW  Elec       q    Type
REMARK                         _______ _______ _______ _____ _____    ______ ____
ROOT
ATOM      1  O   UNL     1       0.037  -1.183   3.531  0.00  0.00    -0.451 OA
ENDROOT
BRANCH   1   2
ATOM      2  C   UNL     1       0.005  -0.292   2.518  0.00  0.00    +0.347 C 
ATOM      3  O   UNL     1      -0.017   0.901   2.756  0.00  0.00    -0.244 OA
BRANCH   2   9
ATOM      4  C   UNL     1      -0.065   1.503   0.011  0.00  0.00    +0.045 C 
ATOM      5  C   UNL     1      -0.034  -0.003   0.003  0.00  0.00    -0.028 A 
ATOM      6  C   UNL     1      -0.028  -0.723  -1.163  0.00  0.00    +0.035 A 
ATOM      7  C   UNL     1       0.002  -2.098  -1.089  0.00  0.00    +0.073 A 
ATOM      8  S   UNL     1       0.022  -2.419   0.560  0.00  0.00    -0.067 S 
ATOM      9  C   UNL     1      -0.003  -0.747   1.176  0.00  0.00    +0.101 A 
BRANCH   7  10
ATOM     10  N   UNL     1       0.013  -3.008  -2.136  0.00  0.00    -0.273 N 
ATOM     11  C   UNL     1       0.043  -4.331  -1.879  0.00  0.00    +0.284 C 
ATOM     12  O   UNL     1       0.061  -4.726  -0.728  0.00  0.00    -0.266 OA
ATOM     13  H   UNL     1      -0.002  -2.693  -3.053  0.00  0.00    +0.156 HD
BRANCH  11  14
ATOM     14  C   UNL     1       0.054  -5.293  -2.985  0.00  0.00    +0.189 A 
ATOM     15  C   UNL     1       0.078  -6.653  -2.865  0.00  0.00    +0.054 A 
ATOM     16  C   UNL     1       0.080  -7.173  -4.169  0.00  0.00    +0.042 A 
ATOM     17  C   UNL     1       0.057  -6.120  -5.017  0.00  0.00    +0.196 A 
ATOM     18  O   UNL     1       0.036  -4.989  -4.300  0.00  0.00    -0.458 OA
ENDBRANCH  11  14
ENDBRANCH   7  10
ENDBRANCH   2   9
ENDBRANCH   1   2
BRANCH   1  19
ATOM     19  C   UNL     1       0.043  -0.654   4.859  0.00  0.00    +0.328 C 
BRANCH  19  20
ATOM     20  C   UNL     1       0.079  -1.788   5.851  0.00  0.00    +0.255 C 
ATOM     21  O   UNL     1       0.098  -2.936   5.460  0.00  0.00    -0.272 OA
ATOM     22  N   UNL     1       0.091  -1.527   7.173  0.00  0.00    -0.282 N 
ATOM     23  H   UNL     1       0.156  -0.611   7.486  0.00  0.00    +0.155 HD
BRANCH  22  24
ATOM     24  C   UNL     1       0.008  -2.575   8.093  0.00  0.00    +0.041 A 
ATOM     25  C   UNL     1      -0.584  -3.776   7.730  0.00  0.00    +0.024 A 
ATOM     26  C   UNL     1      -0.665  -4.811   8.641  0.00  0.00    +0.002 A 
ATOM     27  C   UNL     1      -0.157  -4.658   9.919  0.00  0.00    +0.001 A 
ATOM     28  C   UNL     1       0.436  -3.470  10.295  0.00  0.00    +0.010 A 
ATOM     29  C   UNL     1       0.528  -2.420   9.383  0.00  0.00    +0.003 A 
BRANCH  29  30
ATOM     30  C   UNL     1       1.168  -1.143   9.780  0.00  0.00    -0.016 A 
ATOM     31  C   UNL     1       2.144  -0.568   8.968  0.00  0.00    +0.008 A 
ATOM     32  C   UNL     1       2.737   0.621   9.342  0.00  0.00    +0.001 A 
ATOM     33  C   UNL     1       2.363   1.242  10.520  0.00  0.00    +0.000 A 
ATOM     34  C   UNL     1       1.395   0.676  11.330  0.00  0.00    +0.001 A 
ATOM     35  C   UNL     1       0.792  -0.510  10.963  0.00  0.00    +0.008 A 
ENDBRANCH  29  30
ENDBRANCH  22  24
ENDBRANCH  19  20
ENDBRANCH   1  19
TORSDOF 8
