REMARK  Name = ZINC39973238
REMARK  9 active torsions:
REMARK  status: ('A' for Active; 'I' for Inactive)
REMARK    1  A    between atoms: C_1  and  C_2
REMARK    2  A    between atoms: C_4  and  C_12
REMARK    3  A    between atoms: C_5  and  N_9
REMARK    4  A    between atoms: C_7  and  C_8
REMARK    5  A    between atoms: C_15  and  C_17
REMARK    6  A    between atoms: C_18  and  C_19
REMARK    7  A    between atoms: C_18  and  C_21
REMARK    8  A    between atoms: C_25  and  C_31
REMARK    9  A    between atoms: C_26  and  C_30
REMARK                            x       y       z     vdW  Elec       q    Type
REMARK                         _______ _______ _______ _____ _____    ______ ____
ROOT
ATOM      1  C   UNL     1       1.515  -6.683  -5.235  0.00  0.00    +0.064 C 
ATOM      2  C   UNL     1       2.753  -6.696  -4.634  0.00  0.00    +0.075 C 
ENDROOT
BRANCH   2   3
ATOM      3  C   UNL     1       2.936  -6.080  -3.270  0.00  0.00    +0.216 C 
ATOM      4  N   UNL     1       4.183  -5.306  -3.229  0.00  0.00    -0.359 N 
ATOM      5  C   UNL     1       4.942  -5.836  -2.314  0.00  0.00    +0.061 A 
ATOM      6  C   UNL     1       6.286  -5.509  -1.819  0.00  0.00    +0.031 A 
ATOM      7  C   UNL     1       6.832  -6.254  -0.837  0.00  0.00    -0.045 A 
ATOM      8  C   UNL     1       6.165  -7.347  -0.254  0.00  0.00    -0.045 A 
ATOM      9  C   UNL     1       4.931  -7.732  -0.634  0.00  0.00    +0.031 A 
ATOM     10  C   UNL     1       4.237  -6.993  -1.698  0.00  0.00    +0.061 A 
ATOM     11  N   UNL     1       3.069  -7.133  -2.256  0.00  0.00    -0.359 N 
ATOM     12  C   UNL     1       6.859  -8.118   0.839  0.00  0.00    +0.044 C 
ATOM     13  C   UNL     1       8.212  -5.901  -0.343  0.00  0.00    +0.044 C 
ATOM     14  H   UNL     1       2.408  -7.810  -2.041  0.00  0.00    +0.162 HD
ATOM     15  H   UNL     1       4.401  -4.540  -3.783  0.00  0.00    +0.162 HD
ENDBRANCH   2   3
BRANCH   1  19
ATOM     16  C   UNL     1      -0.930  -5.895  -2.775  0.00  0.00    +0.138 A 
ATOM     17  C   UNL     1      -1.737  -5.878  -3.917  0.00  0.00    +0.050 A 
ATOM     18  C   UNL     1      -0.922  -6.172  -4.993  0.00  0.00    +0.050 A 
ATOM     19  C   UNL     1       0.372  -6.364  -4.483  0.00  0.00    +0.130 A 
ATOM     20  O   UNL     1       0.330  -6.183  -3.147  0.00  0.00    -0.455 OA
BRANCH  16  24
ATOM     21  C   UNL     1      -3.397  -3.041   0.485  0.00  0.00    +0.044 C 
ATOM     22  C   UNL     1      -2.570  -4.262   0.174  0.00  0.00    -0.047 A 
ATOM     23  C   UNL     1      -2.151  -4.497  -1.117  0.00  0.00    +0.017 A 
ATOM     24  C   UNL     1      -1.381  -5.635  -1.403  0.00  0.00    +0.048 A 
ATOM     25  C   UNL     1      -1.045  -6.522  -0.369  0.00  0.00    +0.137 A 
ATOM     26  C   UNL     1      -1.473  -6.270   0.915  0.00  0.00    +0.037 A 
ATOM     27  C   UNL     1      -2.229  -5.141   1.189  0.00  0.00    -0.045 A 
ATOM     28  C   UNL     1      -2.686  -4.871   2.599  0.00  0.00    +0.044 C 
BRANCH  25  29
ATOM     29  N   UNL     1      -0.233  -7.726  -0.658  0.00  0.00    +0.057 N 
ATOM     30  O   UNL     1       0.081  -8.557   0.314  0.00  0.00    -0.126 OA
ATOM     31  O   UNL     1       0.175  -7.965  -1.887  0.00  0.00    -0.126 OA
ENDBRANCH  25  29
ENDBRANCH  16  24
ENDBRANCH   1  19
BRANCH   2  32
ATOM     32  C   UNL     1       3.868  -7.294  -5.304  0.00  0.00    +0.099 C 
ATOM     33  N   UNL     1       4.753  -7.769  -5.836  0.00  0.00    -0.191 NA
ENDBRANCH   2  32
TORSDOF 5
