REMARK  Name = ZINC12296801
REMARK  14 active torsions:
REMARK  status: ('A' for Active; 'I' for Inactive)
REMARK    1  A    between atoms: C_1  and  C_2
REMARK    2  A    between atoms: C_2  and  C_4
REMARK    3  A    between atoms: C_4  and  O_40
REMARK    4  A    between atoms: C_9  and  C_39
REMARK    5  A    between atoms: N_21  and  O_22
REMARK    6  A    between atoms: O_22  and  C_23
REMARK    7  A    between atoms: C_23  and  C_24
REMARK    8  A    between atoms: N_26  and  CA_27
REMARK    9  A    between atoms: CA_27  and  CB_29
REMARK   10  A    between atoms: CA_27  and  C_33
REMARK   11  A    between atoms: CB_29  and  CG_30
REMARK   12  A    between atoms: CG_30  and  SD_31
REMARK   13  A    between atoms: SD_31  and  CE_32
REMARK   14  A    between atoms: C_37  and  C_38
REMARK                            x       y       z     vdW  Elec       q    Type
REMARK                         _______ _______ _______ _____ _____    ______ ____
ROOT
ATOM      1  C   UNK A   0       2.251  -0.338 -14.453  0.00  0.00    +0.129 C 
ATOM      2  C   UNK A   0       1.265   0.574 -15.226  0.00  0.00    +0.043 C 
ATOM      3  C   UNK A   0      -0.005   0.723 -14.331  0.00  0.00    +0.008 C 
ATOM      4  C   UNK A   0       0.535   0.414 -12.930  0.00  0.00    +0.002 C 
ATOM      5  C   UNK A   0       1.498  -0.773 -13.199  0.00  0.00    +0.007 C 
ATOM      6  C   UNK A   0       2.326  -0.969 -11.943  0.00  0.00    +0.010 C 
ATOM      7  C   UNK A   0       1.361  -1.400 -10.827  0.00  0.00    +0.005 C 
ATOM      8  C   UNK A   0       0.244  -0.384 -10.609  0.00  0.00    +0.002 C 
ATOM      9  C   UNK A   0      -0.490  -0.061 -11.918  0.00  0.00    -0.003 C 
ATOM     10  C   UNK A   0      -1.512   1.049 -11.656  0.00  0.00    +0.008 C 
ATOM     11  C   UNK A   0      -2.588   0.526 -10.701  0.00  0.00    +0.031 C 
ATOM     12  C   UNK A   0      -1.915   0.004  -9.445  0.00  0.00    -0.062 C 
ATOM     13  C   UNK A   0      -2.402   0.402  -8.275  0.00  0.00    +0.026 C 
ATOM     14  C   UNK A   0      -1.799  -0.086  -7.022  0.00  0.00    +0.080 C 
ATOM     15  N   UNK A   0      -1.944   0.549  -5.902  0.00  0.00    -0.089 NA
ATOM     16  C   UNK A   0      -0.995  -1.368  -7.114  0.00  0.00    +0.059 C 
ATOM     17  C   UNK A   0      -0.029  -1.222  -8.284  0.00  0.00    +0.017 C 
ATOM     18  C   UNK A   0      -0.756  -0.934  -9.585  0.00  0.00    -0.007 C 
ATOM     19  C   UNK A   0      -1.288  -2.267 -10.116  0.00  0.00    +0.016 C 
ATOM     20  C   UNK A   0       0.692  -2.040 -13.492  0.00  0.00    +0.015 C 
ENDROOT
BRANCH   1  22
ATOM     21  C   UNK A   0       3.894  -2.287 -15.012  0.00  0.00    +0.089 C 
ATOM     22  C   UNK A   0       2.615  -1.539 -15.287  0.00  0.00    +0.162 C 
ATOM     23  O   UNK A   0       1.881  -1.902 -16.175  0.00  0.00    -0.295 OA
ENDBRANCH   1  22
BRANCH   1  24
ATOM     24  O   UNK A   0       3.427   0.391 -14.096  0.00  0.00    -0.381 OA
ATOM     25  H   UNK A   0       3.946   0.694 -14.854  0.00  0.00    +0.211 HD
ENDBRANCH   1  24
BRANCH  15  26
ATOM     26  O   UNK A   0      -1.348   0.046  -4.720  0.00  0.00    -0.384 OA
BRANCH  26  27
ATOM     27  C   UNK A   0      -1.589   0.847  -3.562  0.00  0.00    +0.358 C 
BRANCH  27  28
ATOM     28  C   UNK A   0      -0.913   0.221  -2.369  0.00  0.00    +0.254 C 
ATOM     29  O   UNK A   0      -0.286  -0.809  -2.499  0.00  0.00    -0.272 OA
ATOM     30  N   MET A   1      -1.005   0.807  -1.159  0.00  0.00    -0.299 N 
ATOM     31  H   MET A   1      -1.506   1.631  -1.055  0.00  0.00    +0.150 HD
BRANCH  30  32
ATOM     32  CA  MET A   1      -0.347   0.198   0.001  0.00  0.00    +0.187 C 
BRANCH  32  33
ATOM     33  C   MET A   1       1.091   0.645   0.054  0.00  0.00    +0.376 C 
ATOM     34  O   MET A   1       1.523   1.394  -0.790  0.00  0.00    -0.244 OA
ATOM     35  OXT MET A   1       1.893   0.210   1.039  0.00  0.00    -0.244 OA
ENDBRANCH  32  33
BRANCH  32  36
ATOM     36  CB  MET A   1      -1.064   0.634   1.280  0.00  0.00    +0.044 C 
BRANCH  36  37
ATOM     37  CG  MET A   1      -2.488   0.074   1.283  0.00  0.00    +0.071 C 
BRANCH  37  38
ATOM     38  SD  MET A   1      -3.338   0.591   2.800  0.00  0.00    -0.164 S 
ATOM     39  CE  MET A   1      -4.990  -0.144   2.650  0.00  0.00    +0.084 C 
ENDBRANCH  37  38
ENDBRANCH  36  37
ENDBRANCH  32  36
ENDBRANCH  30  32
ENDBRANCH  27  28
ENDBRANCH  26  27
ENDBRANCH  15  26
TORSDOF 10
