REMARK  Name = ZINC66130564
REMARK  7 active torsions:
REMARK  status: ('A' for Active; 'I' for Inactive)
REMARK    1  A    between atoms: C_1  and  C_2
REMARK    2  A    between atoms: C_2  and  C_3
REMARK    3  A    between atoms: C_3  and  C_5
REMARK    4  A    between atoms: C_3  and  N_6
REMARK    5  A    between atoms: C_7  and  C_18
REMARK    6  A    between atoms: C_27  and  O_28
REMARK    7  A    between atoms: O_28  and  C_29
REMARK                            x       y       z     vdW  Elec       q    Type
REMARK                         _______ _______ _______ _____ _____    ______ ____
ROOT
ATOM      1  N   UNL     1       2.656   0.064   0.786  0.00  0.00    -0.272 N 
ATOM      2  C   UNL     1       2.728   0.724   2.090  0.00  0.00    +0.197 C 
ATOM      3  N   UNL     1       4.040   0.492   2.706  0.00  0.00    -0.321 N 
ATOM      4  C   UNL     1       5.179   0.600   1.915  0.00  0.00    +0.041 A 
ATOM      5  C   UNL     1       6.401   0.979   2.446  0.00  0.00    +0.024 A 
ATOM      6  C   UNL     1       7.508   1.061   1.623  0.00  0.00    +0.002 A 
ATOM      7  C   UNL     1       7.404   0.768   0.272  0.00  0.00    +0.001 A 
ATOM      8  C   UNL     1       6.194   0.394  -0.273  0.00  0.00    +0.015 A 
ATOM      9  C   UNL     1       5.068   0.312   0.544  0.00  0.00    +0.058 A 
ATOM     10  C   UNL     1       3.749  -0.064   0.008  0.00  0.00    +0.250 C 
ATOM     11  O   UNL     1       3.647  -0.483  -1.129  0.00  0.00    -0.270 OA
ATOM     12  H   UNL     1       4.111   0.269   3.647  0.00  0.00    +0.148 HD
ENDROOT
BRANCH   2  13
ATOM     13  C   UNL     1       2.519   2.205   1.912  0.00  0.00    +0.040 A 
ATOM     14  C   UNL     1       1.707   2.917   2.811  0.00  0.00    -0.008 A 
ATOM     15  C   UNL     1       1.075   2.273   3.889  0.00  0.00    +0.009 A 
ATOM     16  C   UNL     1       0.296   2.994   4.741  0.00  0.00    +0.001 A 
ATOM     17  C   UNL     1       0.113   4.364   4.561  0.00  0.00    +0.001 A 
ATOM     18  C   UNL     1       0.709   5.020   3.529  0.00  0.00    +0.008 A 
ATOM     19  C   UNL     1       1.522   4.310   2.628  0.00  0.00    -0.017 A 
ATOM     20  C   UNL     1       2.153   4.956   1.551  0.00  0.00    +0.012 A 
ATOM     21  C   UNL     1       2.933   4.239   0.698  0.00  0.00    +0.046 A 
ATOM     22  C   UNL     1       3.122   2.865   0.879  0.00  0.00    +0.127 A 
BRANCH  22  23
ATOM     23  O   UNL     1       3.911   2.177   0.014  0.00  0.00    -0.495 OA
ATOM     24  C   UNL     1       4.559   2.930  -1.013  0.00  0.00    +0.277 C 
ENDBRANCH  22  23
ENDBRANCH   2  13
BRANCH   1  25
ATOM     25  C   UNL     1       1.374  -0.471   0.321  0.00  0.00    +0.075 C 
ATOM     26  C   UNL     1       1.512  -1.973   0.063  0.00  0.00    +0.028 C 
BRANCH  25  28
ATOM     27  C   UNL     1       0.654   1.701  -0.681  0.00  0.00    +0.006 C 
ATOM     28  C   UNL     1       0.967   0.233  -0.975  0.00  0.00    +0.019 C 
ENDBRANCH  25  28
ENDBRANCH   1  25
TORSDOF 4
