REMARK  Name = ZINC20707798
REMARK  6 active torsions:
REMARK  status: ('A' for Active; 'I' for Inactive)
REMARK    1  A    between atoms: C_1  and  O_2
REMARK    2  A    between atoms: O_2  and  C_3
REMARK    3  A    between atoms: C_6  and  N_9
REMARK    4  A    between atoms: N_9  and  S_10
REMARK    5  A    between atoms: S_10  and  C_13
REMARK    6  A    between atoms: C_26  and  C_29
REMARK                            x       y       z     vdW  Elec       q    Type
REMARK                         _______ _______ _______ _____ _____    ______ ____
ROOT
ATOM      1  C   UNL     1      -3.653   6.706  -0.509  0.00  0.00    +0.109 A 
ATOM      2  C   UNL     1      -3.776   8.084  -0.494  0.00  0.00    +0.030 A 
ATOM      3  C   UNL     1      -2.796   8.861   0.087  0.00  0.00    +0.025 A 
ATOM      4  C   UNL     1      -1.678   8.267   0.661  0.00  0.00    +0.031 A 
ATOM      5  C   UNL     1      -1.567   6.872   0.655  0.00  0.00    -0.018 A 
ATOM      6  C   UNL     1      -2.549   6.105   0.066  0.00  0.00    +0.034 A 
ATOM      7  C   UNL     1      -0.374   6.280   1.298  0.00  0.00    +0.049 C 
ATOM      8  C   UNL     1       0.155   4.952   0.896  0.00  0.00    -0.023 C 
ATOM      9  C   UNL     1       1.470   4.947   1.079  0.00  0.00    -0.030 C 
ATOM     10  C   UNL     1       1.933   6.314   1.587  0.00  0.00    +0.033 C 
ATOM     11  C   UNL     1       0.831   7.234   1.045  0.00  0.00    +0.029 C 
ATOM     12  C   UNL     1       0.543   8.504   1.826  0.00  0.00    +0.105 C 
ATOM     13  N   UNL     1      -0.678   9.078   1.212  0.00  0.00    -0.336 N 
ATOM     14  H   UNL     1      -0.817  10.169   1.181  0.00  0.00    +0.147 HD
ENDROOT
BRANCH  12  15
ATOM     15  C   UNL     1       1.703   9.459   1.713  0.00  0.00    -0.026 A 
ATOM     16  C   UNL     1       1.842  10.237   0.566  0.00  0.00    +0.006 A 
ATOM     17  C   UNL     1       2.876  11.113   0.434  0.00  0.00    +0.009 A 
ATOM     18  C   UNL     1       3.824  11.229   1.464  0.00  0.00    -0.018 A 
ATOM     19  C   UNL     1       4.908  12.118   1.362  0.00  0.00    +0.008 A 
ATOM     20  C   UNL     1       5.807  12.203   2.380  0.00  0.00    +0.001 A 
ATOM     21  C   UNL     1       5.671  11.421   3.525  0.00  0.00    +0.001 A 
ATOM     22  C   UNL     1       4.635  10.548   3.659  0.00  0.00    +0.008 A 
ATOM     23  C   UNL     1       3.686  10.433   2.629  0.00  0.00    -0.018 A 
ATOM     24  C   UNL     1       2.603   9.544   2.731  0.00  0.00    +0.014 A 
ENDBRANCH  12  15
BRANCH   1  25
ATOM     25  S   UNL     1      -4.902   5.718  -1.262  0.00  0.00    +0.072 S 
ATOM     26  O   UNL     1      -5.478   6.508  -2.294  0.00  0.00    -0.150 OA
ATOM     27  O   UNL     1      -4.319   4.446  -1.511  0.00  0.00    -0.150 OA
BRANCH  25  28
ATOM     28  N   UNL     1      -6.088   5.481  -0.130  0.00  0.00    -0.216 N 
ATOM     29  H   UNL     1      -7.103   5.867  -0.308  0.00  0.00    +0.174 HD
BRANCH  28  33
ATOM     30  C   UNL     1      -5.226   3.425   3.392  0.00  0.00    +0.120 A 
ATOM     31  C   UNL     1      -5.367   4.804   3.411  0.00  0.00    +0.047 A 
ATOM     32  C   UNL     1      -5.653   5.487   2.245  0.00  0.00    +0.028 A 
ATOM     33  C   UNL     1      -5.798   4.791   1.052  0.00  0.00    +0.048 A 
ATOM     34  C   UNL     1      -5.662   3.409   1.034  0.00  0.00    +0.028 A 
ATOM     35  C   UNL     1      -5.371   2.729   2.200  0.00  0.00    +0.047 A 
BRANCH  30  37
ATOM     36  C   UNL     1      -4.814   1.334   4.447  0.00  0.00    +0.277 C 
ATOM     37  O   UNL     1      -4.945   2.754   4.541  0.00  0.00    -0.495 OA
ENDBRANCH  30  37
ENDBRANCH  28  33
ENDBRANCH  25  28
ENDBRANCH   1  25
TORSDOF 5
