REMARK  Name = ZINC12662633
REMARK  2 active torsions:
REMARK  status: ('A' for Active; 'I' for Inactive)
REMARK    1  A    between atoms: C_14  and  C_16
REMARK    2  A    between atoms: C_16  and  C_18
REMARK                            x       y       z     vdW  Elec       q    Type
REMARK                         _______ _______ _______ _____ _____    ______ ____
ROOT
ATOM      1  C   UNL     1       3.257  -1.240  -2.507  0.00  0.00    +0.000 A 
ATOM      2  C   UNL     1       3.916  -1.009  -3.701  0.00  0.00    +0.002 A 
ATOM      3  C   UNL     1       4.822   0.025  -3.808  0.00  0.00    +0.023 A 
ATOM      4  C   UNL     1       5.080   0.847  -2.713  0.00  0.00    +0.038 A 
ATOM      5  C   UNL     1       4.411   0.606  -1.516  0.00  0.00    -0.012 A 
ATOM      6  C   UNL     1       3.507  -0.428  -1.415  0.00  0.00    +0.006 A 
ATOM      7  C   UNL     1       4.904   1.648  -0.554  0.00  0.00    +0.071 C 
ATOM      8  C   UNL     1       5.543   1.019   0.686  0.00  0.00    -0.046 C 
ATOM      9  C   UNL     1       4.808  -0.305   1.009  0.00  0.00    -0.016 C 
ATOM     10  C   UNL     1       4.920  -0.372   2.554  0.00  0.00    -0.020 C 
ATOM     11  C   UNL     1       4.808   1.109   2.973  0.00  0.00    -0.076 C 
ATOM     12  C   UNL     1       4.186   2.862   1.412  0.00  0.00    +0.052 C 
ATOM     13  C   UNL     1       3.757   2.516  -0.021  0.00  0.00    +0.081 C 
ATOM     14  C   UNL     1       3.008   2.817   2.349  0.00  0.00    -0.027 A 
ATOM     15  C   UNL     1       2.137   1.818   2.722  0.00  0.00    +0.004 A 
ATOM     16  C   UNL     1       1.126   2.085   3.628  0.00  0.00    +0.000 A 
ATOM     17  C   UNL     1       0.994   3.356   4.158  0.00  0.00    +0.002 A 
ATOM     18  C   UNL     1       1.864   4.359   3.786  0.00  0.00    +0.023 A 
ATOM     19  C   UNL     1       2.885   4.099   2.874  0.00  0.00    +0.036 A 
ATOM     20  N   UNL     1       3.875   4.932   2.350  0.00  0.00    -0.286 N 
ATOM     21  C   UNL     1       4.679   4.286   1.487  0.00  0.00    +0.212 C 
ATOM     22  O   UNL     1       5.620   4.758   0.884  0.00  0.00    -0.277 OA
ATOM     23  C   UNL     1       5.896   2.466  -1.335  0.00  0.00    +0.227 C 
ATOM     24  O   UNL     1       6.532   3.415  -0.929  0.00  0.00    -0.275 OA
ATOM     25  N   UNL     1       5.939   1.940  -2.575  0.00  0.00    -0.285 N 
ATOM     26  H   UNL     1       3.971   5.869   2.582  0.00  0.00    +0.155 HD
ATOM     27  H   UNL     1       6.501   2.280  -3.288  0.00  0.00    +0.155 HD
ATOM     28  N   UNL     1       5.246   1.916   1.809  0.00  0.00    +0.395 N 
ATOM     29  H   UNL     1       6.091   2.442   2.060  0.00  0.00    -0.079 HD
ENDROOT
BRANCH  13  30
ATOM     30  C   UNL     1       2.466   1.739  -0.013  0.00  0.00    +0.168 C 
ATOM     31  O   UNL     1       2.386   0.703   0.612  0.00  0.00    -0.292 OA
BRANCH  30  32
ATOM     32  C   UNL     1       1.304   2.237  -0.762  0.00  0.00    +0.036 A 
ATOM     33  C   UNL     1       1.393   3.432  -1.485  0.00  0.00    +0.014 A 
ATOM     34  C   UNL     1       0.299   3.892  -2.186  0.00  0.00    +0.021 A 
ATOM     35  C   UNL     1      -0.887   3.175  -2.177  0.00  0.00    +0.042 A 
ATOM     36  C   UNL     1      -0.982   1.989  -1.469  0.00  0.00    +0.040 A 
ATOM     37  C   UNL     1       0.103   1.517  -0.757  0.00  0.00    +0.053 A 
ATOM     38 CL   UNL     1      -0.020   0.034   0.136  0.00  0.00    -0.083 Cl
ATOM     39 CL   UNL     1      -2.259   3.764  -3.063  0.00  0.00    -0.083 Cl
ENDBRANCH  30  32
ENDBRANCH  13  30
TORSDOF 2
