REMARK  Name = ZINC12595106
REMARK  4 active torsions:
REMARK  status: ('A' for Active; 'I' for Inactive)
REMARK    1  A    between atoms: C_3  and  N_11
REMARK    2  A    between atoms: C_4  and  N_8
REMARK    3  A    between atoms: C_17  and  N_21
REMARK    4  A    between atoms: C_18  and  C_19
REMARK                            x       y       z     vdW  Elec       q    Type
REMARK                         _______ _______ _______ _____ _____    ______ ____
ROOT
ATOM      1  N   UNL     1      -0.000   0.002   0.000  0.00  0.00    -0.323 N 
ATOM      2  C   UNL     1       0.945  -0.603   0.949  0.00  0.00    +0.110 C 
ATOM      3  C   UNL     1       2.384  -0.316   0.513  0.00  0.00    +0.056 C 
ATOM      4  C   UNL     1       2.519   1.184   0.277  0.00  0.00    -0.015 A 
ATOM      5  C   UNL     1       1.414   1.946   0.112  0.00  0.00    +0.013 A 
ATOM      6  S   UNL     1       2.030   3.587  -0.125  0.00  0.00    -0.076 S 
ATOM      7  C   UNL     1       3.729   3.268  -0.009  0.00  0.00    +0.081 A 
ATOM      8  C   UNL     1       3.780   1.898   0.211  0.00  0.00    +0.083 A 
ATOM      9  C   UNL     1      -0.005   1.471   0.132  0.00  0.00    +0.147 C 
ENDROOT
BRANCH   1  12
ATOM     10  C   UNL     1      -3.197  -0.918   1.564  0.00  0.00    +0.022 A 
ATOM     11  C   UNL     1      -1.927  -0.402   1.398  0.00  0.00    +0.027 A 
ATOM     12  C   UNL     1      -1.285  -0.520   0.172  0.00  0.00    +0.061 A 
ATOM     13  C   UNL     1      -1.926  -1.155  -0.886  0.00  0.00    +0.148 A 
ATOM     14  C   UNL     1      -3.193  -1.674  -0.712  0.00  0.00    +0.054 A 
ATOM     15  C   UNL     1      -3.830  -1.554   0.511  0.00  0.00    +0.043 A 
ATOM     16 CL   UNL     1      -5.426  -2.203   0.724  0.00  0.00    -0.083 Cl
BRANCH  13  17
ATOM     17  N   UNL     1      -1.248  -1.277  -2.196  0.00  0.00    +0.058 N 
ATOM     18  O   UNL     1      -1.844  -1.749  -3.148  0.00  0.00    -0.126 OA
ATOM     19  O   UNL     1      -0.094  -0.907  -2.322  0.00  0.00    -0.126 OA
ENDBRANCH  13  17
ENDBRANCH   1  12
BRANCH   7  20
ATOM     20  N   UNL     1       4.781   4.162  -0.112  0.00  0.00    -0.352 N 
ATOM     21  H   UNL     1       5.694   3.848  -0.027  0.00  0.00    +0.143 HD
ATOM     22  H   UNL     1       4.604   5.103  -0.268  0.00  0.00    +0.143 HD
ENDBRANCH   7  20
BRANCH   8  23
ATOM     23  C   UNL     1       5.030   1.216   0.368  0.00  0.00    +0.102 C 
ATOM     24  N   UNL     1       6.021   0.675   0.492  0.00  0.00    -0.191 NA
ENDBRANCH   8  23
TORSDOF 4
