REMARK  Name = ZINC02149676
REMARK  11 active torsions:
REMARK  status: ('A' for Active; 'I' for Inactive)
REMARK    1  A    between atoms: C_1  and  C_2
REMARK    2  A    between atoms: C_5  and  S_8
REMARK    3  A    between atoms: S_8  and  N_11
REMARK    4  A    between atoms: N_11  and  C_12
REMARK    5  A    between atoms: C_12  and  C_14
REMARK    6  A    between atoms: C_12  and  C_20
REMARK    7  A    between atoms: C_20  and  O_22
REMARK    8  A    between atoms: O_22  and  C_23
REMARK    9  A    between atoms: C_27  and  C_36
REMARK   10  A    between atoms: C_28  and  C_35
REMARK   11  A    between atoms: C_33  and  C_34
REMARK                            x       y       z     vdW  Elec       q    Type
REMARK                         _______ _______ _______ _____ _____    ______ ____
ROOT
ATOM      1  C   UNL     1      -6.463   4.483   7.079  0.00  0.00    +0.215 C 
ENDROOT
BRANCH   1   2
ATOM      2  C   UNL     1      -6.362   3.533   8.245  0.00  0.00    -0.018 A 
ATOM      3  C   UNL     1      -7.223   2.455   8.335  0.00  0.00    +0.006 A 
ATOM      4  C   UNL     1      -7.128   1.581   9.401  0.00  0.00    +0.000 A 
ATOM      5  C   UNL     1      -6.177   1.790  10.383  0.00  0.00    +0.000 A 
ATOM      6  C   UNL     1      -5.319   2.870  10.295  0.00  0.00    +0.000 A 
ATOM      7  C   UNL     1      -5.411   3.741   9.226  0.00  0.00    +0.006 A 
ENDBRANCH   1   2
BRANCH   1   8
ATOM      8  N   UNL     1      -7.873   4.717   6.761  0.00  0.00    -0.172 NA
ATOM      9  H   UNL     1      -8.349   4.102   6.181  0.00  0.00    +0.149 HD
BRANCH   8  10
ATOM     10  S   UNL     1      -8.657   6.033   7.392  0.00  0.00    +0.059 S 
ATOM     11  O   UNL     1      -9.983   5.997   6.885  0.00  0.00    -0.153 OA
ATOM     12  O   UNL     1      -8.374   6.044   8.785  0.00  0.00    -0.153 OA
BRANCH  10  17
ATOM     13  C   UNL     1      -6.050  10.950   5.062  0.00  0.00    +0.044 C 
ATOM     14  C   UNL     1      -6.701   9.722   5.645  0.00  0.00    -0.050 A 
ATOM     15  C   UNL     1      -7.773   9.136   4.998  0.00  0.00    +0.005 A 
ATOM     16  C   UNL     1      -8.370   8.009   5.532  0.00  0.00    +0.029 A 
ATOM     17  C   UNL     1      -7.895   7.469   6.712  0.00  0.00    +0.105 A 
ATOM     18  C   UNL     1      -6.827   8.058   7.361  0.00  0.00    +0.029 A 
ATOM     19  C   UNL     1      -6.226   9.182   6.825  0.00  0.00    +0.005 A 
ENDBRANCH  10  17
ENDBRANCH   8  10
ENDBRANCH   1   8
BRANCH   1  20
ATOM     20  C   UNL     1      -5.771   3.884   5.882  0.00  0.00    +0.336 C 
ATOM     21  O   UNL     1      -6.392   3.675   4.867  0.00  0.00    -0.248 OA
BRANCH  20  22
ATOM     22  O   UNL     1      -4.463   3.583   5.943  0.00  0.00    -0.424 OA
BRANCH  22  23
ATOM     23  C   UNL     1      -3.875   3.156   4.796  0.00  0.00    +0.138 A 
ATOM     24  C   UNL     1      -3.701   1.792   4.575  0.00  0.00    +0.047 A 
ATOM     25  C   UNL     1      -3.112   1.347   3.427  0.00  0.00    +0.015 A 
ATOM     26  C   UNL     1      -2.678   2.267   2.466  0.00  0.00    +0.021 A 
ATOM     27  C   UNL     1      -2.048   1.818   1.222  0.00  0.00    -0.030 A 
ATOM     28  C   UNL     1      -1.644   2.760   0.331  0.00  0.00    +0.037 A 
ATOM     29  C   UNL     1      -1.849   4.127   0.614  0.00  0.00    +0.340 A 
ATOM     30  O   UNL     1      -1.487   4.961  -0.196  0.00  0.00    -0.245 OA
ATOM     31  O   UNL     1      -2.432   4.531   1.753  0.00  0.00    -0.422 OA
ATOM     32  C   UNL     1      -2.851   3.646   2.683  0.00  0.00    +0.146 A 
ATOM     33  C   UNL     1      -3.452   4.081   3.855  0.00  0.00    +0.035 A 
ATOM     34  C   UNL     1      -3.645   5.555   4.104  0.00  0.00    +0.051 C 
ATOM     35  C   UNL     1      -0.985   2.346  -0.960  0.00  0.00    +0.051 C 
ATOM     36  C   UNL     1      -1.847   0.351   0.942  0.00  0.00    +0.045 C 
ENDBRANCH  22  23
ENDBRANCH  20  22
ENDBRANCH   1  20
TORSDOF 7
