REMARK  Name = ZINC39012699
REMARK  11 active torsions:
REMARK  status: ('A' for Active; 'I' for Inactive)
REMARK    1  A    between atoms: C_1  and  C_2
REMARK    2  A    between atoms: C_6  and  C_33
REMARK    3  A    between atoms: C_7  and  N_8
REMARK    4  A    between atoms: C_9  and  C_11
REMARK    5  A    between atoms: C_11  and  S_12
REMARK    6  A    between atoms: S_12  and  C_13
REMARK    7  A    between atoms: C_17  and  C_21
REMARK    8  A    between atoms: N_19  and  N_20
REMARK    9  A    between atoms: C_24  and  C_27
REMARK   10  A    between atoms: C_33  and  C_34
REMARK   11  A    between atoms: C_33  and  C_35
REMARK                            x       y       z     vdW  Elec       q    Type
REMARK                         _______ _______ _______ _____ _____    ______ ____
ROOT
ATOM      1  C   UNL     1      -0.469   4.693   4.971  0.00  0.00    +0.214 C 
ATOM      2  N   UNL     1       0.873   5.311   5.133  0.00  0.00    -0.228 NA
ATOM      3  N   UNL     1       0.638   6.355   6.143  0.00  0.00    -0.234 NA
ATOM      4  C   UNL     1      -0.702   6.893   5.814  0.00  0.00    +0.185 C 
ATOM      5  N   UNL     1      -1.412   5.831   5.068  0.00  0.00    -0.197 NA
ATOM      6  H   UNL     1       1.193   5.714   4.265  0.00  0.00    +0.143 HD
ATOM      7  H   UNL     1       1.341   7.076   6.089  0.00  0.00    +0.143 HD
ENDROOT
BRANCH   4   8
ATOM      8  C   UNL     1      -1.463   7.228   7.098  0.00  0.00    +0.187 C 
ATOM      9  C   UNL     1      -0.763   8.338   7.862  0.00  0.00    +0.034 C 
ATOM     10  C   UNL     1      -0.434   7.765   9.036  0.00  0.00    +0.091 C 
ATOM     11  N   UNL     1      -0.846   6.470   9.063  0.00  0.00    -0.154 NA
ATOM     12  N   UNL     1      -1.423   6.094   8.037  0.00  0.00    -0.176 NA
BRANCH  10  13
ATOM     13  C   UNL     1       0.278   8.450  10.143  0.00  0.00    +0.002 A 
ATOM     14  C   UNL     1       0.652   9.786  10.012  0.00  0.00    +0.010 A 
ATOM     15  C   UNL     1       1.314  10.419  11.045  0.00  0.00    +0.001 A 
ATOM     16  C   UNL     1       1.606   9.729  12.208  0.00  0.00    +0.000 A 
ATOM     17  C   UNL     1       1.237   8.403  12.343  0.00  0.00    +0.001 A 
ATOM     18  C   UNL     1       0.570   7.762  11.318  0.00  0.00    +0.010 A 
ENDBRANCH  10  13
ENDBRANCH   4   8
BRANCH   5  19
ATOM     19  N   UNL     1      -1.805   6.296   3.748  0.00  0.00    -0.264 NA
ATOM     20  H   UNL     1      -2.355   5.599   3.268  0.00  0.00    +0.137 HD
ATOM     21  H   UNL     1      -2.303   7.172   3.806  0.00  0.00    +0.137 HD
ENDBRANCH   5  19
BRANCH   1  22
ATOM     22  S   UNL     1      -0.606   3.892   3.349  0.00  0.00    -0.115 S 
BRANCH  22  23
ATOM     23  C   UNL     1       0.236   2.301   3.572  0.00  0.00    +0.168 C 
BRANCH  23  25
ATOM     24  N   UNL     1       0.638   0.245   2.257  0.00  0.00    -0.284 N 
ATOM     25  C   UNL     1       0.088   1.474   2.321  0.00  0.00    +0.227 C 
ATOM     26  O   UNL     1      -0.525   1.914   1.372  0.00  0.00    -0.275 OA
ATOM     27  H   UNL     1       1.085  -0.128   3.033  0.00  0.00    +0.155 HD
BRANCH  24  34
ATOM     28  C   UNL     1      -1.923  -0.633   1.381  0.00  0.00    +0.045 C 
ATOM     29  C   UNL     1      -0.667  -0.942   0.607  0.00  0.00    -0.029 A 
ATOM     30  C   UNL     1      -0.739  -1.666  -0.567  0.00  0.00    +0.005 A 
ATOM     31  C   UNL     1       0.413  -1.950  -1.277  0.00  0.00    +0.001 A 
ATOM     32  C   UNL     1       1.640  -1.510  -0.814  0.00  0.00    +0.006 A 
ATOM     33  C   UNL     1       1.718  -0.785   0.358  0.00  0.00    -0.023 A 
ATOM     34  C   UNL     1       0.562  -0.494   1.071  0.00  0.00    +0.040 A 
BRANCH  33  35
ATOM     35  C   UNL     1       3.056  -0.307   0.861  0.00  0.00    +0.015 C 
ATOM     36  C   UNL     1       3.968  -1.510   1.110  0.00  0.00    +0.012 C 
ATOM     37  C   UNL     1       3.695   0.611  -0.183  0.00  0.00    +0.012 C 
ENDBRANCH  33  35
ENDBRANCH  24  34
ENDBRANCH  23  25
ENDBRANCH  22  23
ENDBRANCH   1  22
TORSDOF 8
