REMARK  Name = ZINC36267050
REMARK  12 active torsions:
REMARK  status: ('A' for Active; 'I' for Inactive)
REMARK    1  A    between atoms: C_1  and  C_2
REMARK    2  A    between atoms: C_2  and  C_3
REMARK    3  A    between atoms: C_3  and  N_4
REMARK    4  A    between atoms: C_7  and  C_20
REMARK    5  A    between atoms: N_11  and  C_12
REMARK    6  A    between atoms: C_15  and  C_19
REMARK    7  A    between atoms: C_16  and  C_18
REMARK    8  A    between atoms: C_20  and  C_21
REMARK    9  A    between atoms: N_23  and  C_24
REMARK   10  A    between atoms: C_27  and  O_33
REMARK   11  A    between atoms: C_29  and  N_30
REMARK   12  A    between atoms: O_33  and  C_34
REMARK                            x       y       z     vdW  Elec       q    Type
REMARK                         _______ _______ _______ _____ _____    ______ ____
ROOT
ATOM      1  N   UNL     1       0.721  -1.968  -1.324  0.00  0.00    -0.250 N 
ATOM      2  C   UNL     1       1.742  -2.582  -0.751  0.00  0.00    +0.235 C 
ATOM      3  O   UNL     1       2.655  -1.972  -0.237  0.00  0.00    -0.274 OA
ATOM      4  C   UNL     1       1.701  -4.102  -0.779  0.00  0.00    +0.149 C 
ATOM      5  S   UNL     1       0.114  -4.371  -1.672  0.00  0.00    -0.077 S 
ATOM      6  C   UNL     1      -0.324  -2.655  -1.907  0.00  0.00    +0.164 C 
ATOM      7  N   UNL     1      -1.388  -2.163  -2.496  0.00  0.00    -0.226 NA
ENDROOT
BRANCH   7   8
ATOM      8  C   UNL     1      -2.330  -3.006  -3.023  0.00  0.00    +0.067 A 
ATOM      9  C   UNL     1      -1.937  -4.111  -3.780  0.00  0.00    +0.028 A 
ATOM     10  C   UNL     1      -2.891  -4.956  -4.308  0.00  0.00    +0.006 A 
ATOM     11  C   UNL     1      -4.235  -4.710  -4.088  0.00  0.00    -0.047 A 
ATOM     12  C   UNL     1      -4.631  -3.617  -3.338  0.00  0.00    -0.046 A 
ATOM     13  C   UNL     1      -3.687  -2.767  -2.800  0.00  0.00    +0.031 A 
ATOM     14  C   UNL     1      -6.097  -3.357  -3.104  0.00  0.00    +0.044 C 
ATOM     15  C   UNL     1      -5.272  -5.637  -4.668  0.00  0.00    +0.044 C 
ENDBRANCH   7   8
BRANCH   1  16
ATOM     16  C   UNL     1       0.695  -0.503  -1.334  0.00  0.00    +0.115 C 
BRANCH  16  18
ATOM     17  C   UNL     1      -0.043   1.532  -0.087  0.00  0.00    +0.005 C 
ATOM     18  C   UNL     1      -0.016   0.003  -0.077  0.00  0.00    +0.016 C 
ENDBRANCH  16  18
ENDBRANCH   1  16
BRANCH   4  19
ATOM     19  C   UNL     1       2.883  -4.675  -1.563  0.00  0.00    +0.120 C 
BRANCH  19  20
ATOM     20  C   UNL     1       2.872  -6.178  -1.462  0.00  0.00    +0.219 C 
ATOM     21  O   UNL     1       2.003  -6.737  -0.826  0.00  0.00    -0.275 OA
ATOM     22  N   UNL     1       3.826  -6.902  -2.079  0.00  0.00    -0.284 N 
ATOM     23  H   UNL     1       4.482  -6.461  -2.641  0.00  0.00    +0.155 HD
BRANCH  22  24
ATOM     24  C   UNL     1       3.871  -8.292  -1.909  0.00  0.00    +0.064 A 
ATOM     25  C   UNL     1       2.692  -9.015  -1.786  0.00  0.00    +0.029 A 
ATOM     26  C   UNL     1       2.736 -10.385  -1.618  0.00  0.00    +0.047 A 
ATOM     27  C   UNL     1       3.959 -11.039  -1.572  0.00  0.00    +0.122 A 
ATOM     28  C   UNL     1       5.137 -10.318  -1.694  0.00  0.00    +0.080 A 
ATOM     29  C   UNL     1       5.094  -8.948  -1.868  0.00  0.00    +0.151 A 
BRANCH  29  30
ATOM     30  N   UNL     1       6.351  -8.179  -2.005  0.00  0.00    +0.058 N 
ATOM     31  O   UNL     1       7.410  -8.758  -2.068  0.00  0.00    -0.126 OA
ATOM     32  O   UNL     1       6.319  -6.971  -2.055  0.00  0.00    -0.126 OA
ENDBRANCH  29  30
BRANCH  27  33
ATOM     33  O   UNL     1       4.003 -12.388  -1.405  0.00  0.00    -0.495 OA
ATOM     34  C   UNL     1       2.751 -13.067  -1.286  0.00  0.00    +0.277 C 
ENDBRANCH  27  33
ENDBRANCH  22  24
ENDBRANCH  19  20
ENDBRANCH   4  19
TORSDOF 8
