REMARK  Name = ZINC08770894
REMARK  10 active torsions:
REMARK  status: ('A' for Active; 'I' for Inactive)
REMARK    1  A    between atoms: C_1  and  C_2
REMARK    2  A    between atoms: C_2  and  C_3
REMARK    3  A    between atoms: C_3  and  C_4
REMARK    4  A    between atoms: C_7  and  C_10
REMARK    5  A    between atoms: C_10  and  C_12
REMARK    6  A    between atoms: C_14  and  C_36
REMARK    7  A    between atoms: C_36  and  C_38
REMARK    8  A    between atoms: C_38  and  C_39
REMARK    9  A    between atoms: C_38  and  C_40
REMARK   10  A    between atoms: C_38  and  C_41
REMARK                            x       y       z     vdW  Elec       q    Type
REMARK                         _______ _______ _______ _____ _____    ______ ____
ROOT
ATOM      1  C   UNL     1      -2.199   4.257   5.294  0.00  0.00    +0.108 C 
ATOM      2  C   UNL     1      -0.969   4.011   6.213  0.00  0.00    +0.136 C 
ATOM      3  C   UNL     1      -1.050   2.603   8.360  0.00  0.00    +0.054 C 
ATOM      4  C   UNL     1      -1.944   1.778   8.943  0.00  0.00    +0.022 C 
ATOM      5  C   UNL     1      -3.373   1.891   8.585  0.00  0.00    -0.019 A 
ATOM      6  C   UNL     1      -4.254   0.851   8.884  0.00  0.00    +0.008 A 
ATOM      7  C   UNL     1      -5.589   0.966   8.554  0.00  0.00    +0.001 A 
ATOM      8  C   UNL     1      -6.057   2.107   7.926  0.00  0.00    +0.000 A 
ATOM      9  C   UNL     1      -5.189   3.143   7.624  0.00  0.00    +0.006 A 
ATOM     10  C   UNL     1      -3.856   3.040   7.947  0.00  0.00    -0.020 A 
ATOM     11  C   UNL     1      -2.891   4.152   7.626  0.00  0.00    +0.107 C 
ATOM     12  C   UNL     1      -3.227   4.822   6.295  0.00  0.00    +0.107 C 
ATOM     13  C   UNL     1      -3.169   6.309   6.369  0.00  0.00    -0.008 A 
ATOM     14  C   UNL     1      -2.155   7.177   6.716  0.00  0.00    +0.006 A 
ATOM     15  C   UNL     1      -2.444   8.536   6.675  0.00  0.00    +0.000 A 
ATOM     16  C   UNL     1      -3.692   8.995   6.305  0.00  0.00    +0.002 A 
ATOM     17  C   UNL     1      -4.717   8.130   5.956  0.00  0.00    +0.023 A 
ATOM     18  C   UNL     1      -4.441   6.763   5.992  0.00  0.00    +0.038 A 
ATOM     19  N   UNL     1      -5.267   5.692   5.699  0.00  0.00    -0.284 N 
ATOM     20  C   UNL     1      -4.633   4.508   5.852  0.00  0.00    +0.231 C 
ATOM     21  O   UNL     1      -5.104   3.405   5.669  0.00  0.00    -0.274 OA
ATOM     22  H   UNL     1      -6.190   5.780   5.416  0.00  0.00    +0.155 HD
ATOM     23  N   UNL     1      -1.484   3.852   7.603  0.00  0.00    -0.384 NA
ATOM     24  H   UNL     1      -1.049   4.618   8.132  0.00  0.00    +0.127 HD
ENDROOT
BRANCH   1  25
ATOM     25  C   UNL     1      -2.688   2.967   4.689  0.00  0.00    +0.170 C 
ATOM     26  O   UNL     1      -2.622   1.936   5.325  0.00  0.00    -0.292 OA
BRANCH  25  30
ATOM     27  C   UNL     1      -4.297   2.939   0.765  0.00  0.00    -0.047 A 
ATOM     28  C   UNL     1      -3.950   4.141   1.358  0.00  0.00    +0.004 A 
ATOM     29  C   UNL     1      -3.431   4.158   2.635  0.00  0.00    +0.011 A 
ATOM     30  C   UNL     1      -3.246   2.957   3.328  0.00  0.00    +0.018 A 
ATOM     31  C   UNL     1      -3.594   1.747   2.719  0.00  0.00    +0.011 A 
ATOM     32  C   UNL     1      -4.116   1.746   1.443  0.00  0.00    +0.004 A 
BRANCH  27  33
ATOM     33  C   UNL     1      -4.869   2.929  -0.629  0.00  0.00    +0.035 C 
BRANCH  33  35
ATOM     34  C   UNL     1      -6.974   3.025  -1.972  0.00  0.00    +0.004 C 
ATOM     35  C   UNL     1      -6.393   3.035  -0.556  0.00  0.00    +0.001 C 
ENDBRANCH  33  35
ENDBRANCH  27  33
ENDBRANCH  25  30
ENDBRANCH   1  25
BRANCH   2  36
ATOM     36  C   UNL     1      -0.063   2.965   5.616  0.00  0.00    +0.158 C 
ATOM     37  O   UNL     1      -0.153   1.815   5.971  0.00  0.00    -0.295 OA
BRANCH  36  38
ATOM     38  C   UNL     1       0.955   3.355   4.576  0.00  0.00    +0.022 C 
ATOM     39  C   UNL     1       1.821   2.142   4.230  0.00  0.00    +0.018 C 
ATOM     40  C   UNL     1       0.236   3.844   3.317  0.00  0.00    +0.018 C 
ATOM     41  C   UNL     1       1.842   4.474   5.124  0.00  0.00    +0.018 C 
ENDBRANCH  36  38
ENDBRANCH   2  36
TORSDOF 6
