REMARK  Name = ZINC10650656
REMARK  6 active torsions:
REMARK  status: ('A' for Active; 'I' for Inactive)
REMARK    1  A    between atoms: C_9  and  C_12
REMARK    2  A    between atoms: C_15  and  C_17
REMARK    3  A    between atoms: C_17  and  O_18
REMARK    4  A    between atoms: O_18  and  C_19
REMARK    5  A    between atoms: C_19  and  C_21
REMARK    6  A    between atoms: N_24  and  C_26
REMARK                            x       y       z     vdW  Elec       q    Type
REMARK                         _______ _______ _______ _____ _____    ______ ____
ROOT
ATOM      1  O   UNL     1      -4.684  -0.058   3.588  0.00  0.00    -0.451 OA
ENDROOT
BRANCH   1   2
ATOM      2  C   UNL     1      -5.952  -0.503   3.693  0.00  0.00    +0.360 C 
ATOM      3  O   UNL     1      -6.667  -0.538   2.712  0.00  0.00    -0.243 OA
BRANCH   2   4
ATOM      4  C   UNL     1      -6.471  -0.946   5.001  0.00  0.00    +0.173 A 
ATOM      5  C   UNL     1      -7.764  -1.427   5.269  0.00  0.00    +0.008 A 
ATOM      6  C   UNL     1      -7.789  -1.713   6.594  0.00  0.00    +0.049 A 
ATOM      7  N   UNL     1      -6.569  -1.409   7.090  0.00  0.00    -0.236 N 
ATOM      8  N   UNL     1      -5.812  -0.962   6.148  0.00  0.00    -0.159 NA
ATOM      9  C   UNL     1      -8.994  -2.259   7.315  0.00  0.00    +0.056 C 
ATOM     10  C   UNL     1     -10.227  -2.039   6.428  0.00  0.00    +0.006 C 
ATOM     11  C   UNL     1      -9.942  -2.552   5.014  0.00  0.00    +0.005 C 
ATOM     12  C   UNL     1      -8.922  -1.631   4.331  0.00  0.00    +0.039 C 
BRANCH   7  13
ATOM     13  C   UNL     1      -6.184  -1.558   8.429  0.00  0.00    +0.066 A 
ATOM     14  C   UNL     1      -5.430  -0.570   9.050  0.00  0.00    +0.030 A 
ATOM     15  C   UNL     1      -5.057  -0.716  10.371  0.00  0.00    +0.040 A 
ATOM     16  C   UNL     1      -5.424  -1.851  11.074  0.00  0.00    +0.124 A 
ATOM     17  C   UNL     1      -6.172  -2.840  10.456  0.00  0.00    +0.040 A 
ATOM     18  C   UNL     1      -6.552  -2.695   9.136  0.00  0.00    +0.030 A 
ATOM     19  F   UNL     1      -5.053  -1.995  12.365  0.00  0.00    -0.205 F 
ENDBRANCH   7  13
ENDBRANCH   2   4
ENDBRANCH   1   2
BRANCH   1  20
ATOM     20  C   UNL     1      -4.240   0.362   2.271  0.00  0.00    +0.328 C 
BRANCH  20  31
ATOM     21  C   UNL     1       1.173   2.124   2.488  0.00  0.00    +0.002 A 
ATOM     22  C   UNL     1       1.653   2.911   1.458  0.00  0.00    +0.004 A 
ATOM     23  C   UNL     1       0.858   3.183   0.360  0.00  0.00    +0.047 A 
ATOM     24  C   UNL     1      -0.427   2.667   0.287  0.00  0.00    +0.143 A 
ATOM     25  C   UNL     1      -0.909   1.876   1.327  0.00  0.00    +0.078 A 
ATOM     26  C   UNL     1      -0.108   1.605   2.425  0.00  0.00    +0.027 A 
ATOM     27  N   UNL     1      -2.212   1.355   1.260  0.00  0.00    -0.261 N 
ATOM     28  C   UNL     1      -2.908   1.408  -0.041  0.00  0.00    +0.168 C 
ATOM     29  C   UNL     1      -2.615   2.781  -0.662  0.00  0.00    +0.276 C 
ATOM     30  O   UNL     1      -1.200   2.937  -0.797  0.00  0.00    -0.476 OA
ATOM     31  C   UNL     1      -2.808   0.825   2.347  0.00  0.00    +0.258 C 
ATOM     32  O   UNL     1      -2.191   0.720   3.386  0.00  0.00    -0.272 OA
BRANCH  29  33
ATOM     33  C   UNL     1      -3.264   2.869  -2.019  0.00  0.00    +0.253 C 
ATOM     34  O   UNL     1      -2.578   2.962  -3.015  0.00  0.00    -0.272 OA
ATOM     35  N   UNL     1      -4.607   2.846  -2.127  0.00  0.00    -0.326 N 
ATOM     36  H   UNL     1      -5.156   2.771  -1.330  0.00  0.00    +0.145 HD
ATOM     37  H   UNL     1      -5.025   2.902  -3.000  0.00  0.00    +0.145 HD
ENDBRANCH  29  33
ENDBRANCH  20  31
ENDBRANCH   1  20
TORSDOF 6
