REMARK  Name = ZINC40109423
REMARK  12 active torsions:
REMARK  status: ('A' for Active; 'I' for Inactive)
REMARK    1  A    between atoms: C_2  and  C_3
REMARK    2  A    between atoms: C_3  and  O_4
REMARK    3  A    between atoms: O_4  and  C_5
REMARK    4  A    between atoms: C_10  and  C_11
REMARK    5  A    between atoms: C_13  and  C_22
REMARK    6  A    between atoms: N_17  and  C_18
REMARK    7  A    between atoms: C_18  and  C_19
REMARK    8  A    between atoms: C_19  and  O_20
REMARK    9  A    between atoms: C_22  and  C_24
REMARK   10  A    between atoms: C_28  and  O_30
REMARK   11  A    between atoms: O_30  and  C_31
REMARK   12  A    between atoms: C_31  and  C_32
REMARK                            x       y       z     vdW  Elec       q    Type
REMARK                         _______ _______ _______ _____ _____    ______ ____
ROOT
ATOM      1  C   UNL     1      -1.516  -3.884  -2.642  0.00  0.00    +0.148 C 
ATOM      2  C   UNL     1      -0.361  -4.664  -2.059  0.00  0.00    +0.076 C 
ATOM      3  C   UNL     1      -0.103  -5.679  -2.917  0.00  0.00    +0.249 C 
ATOM      4  C   UNL     1      -1.045  -5.606  -4.053  0.00  0.00    +0.288 C 
ATOM      5  O   UNL     1      -1.068  -6.378  -4.991  0.00  0.00    -0.266 OA
ATOM      6  N   UNL     1      -1.874  -4.556  -3.897  0.00  0.00    -0.281 N 
ATOM      7  O   UNL     1       0.864  -6.612  -2.759  0.00  0.00    -0.282 OA
ENDROOT
BRANCH   1  13
ATOM      8  C   UNL     1      -2.811  -2.917  -0.725  0.00  0.00    +0.126 A 
ATOM      9  C   UNL     1      -3.893  -2.935   0.144  0.00  0.00    +0.046 A 
ATOM     10  C   UNL     1      -4.838  -3.937   0.049  0.00  0.00    +0.004 A 
ATOM     11  C   UNL     1      -4.708  -4.923  -0.913  0.00  0.00    +0.001 A 
ATOM     12  C   UNL     1      -3.631  -4.907  -1.780  0.00  0.00    +0.009 A 
ATOM     13  C   UNL     1      -2.686  -3.904  -1.692  0.00  0.00    +0.019 A 
BRANCH   8  14
ATOM     14  O   UNL     1      -1.880  -1.932  -0.633  0.00  0.00    -0.488 OA
BRANCH  14  15
ATOM     15  C   UNL     1      -2.047  -0.978   0.417  0.00  0.00    +0.256 C 
BRANCH  15  17
ATOM     16  C   UNL     1      -1.293   1.345   0.444  0.00  0.00    +0.007 C 
ATOM     17  C   UNL     1      -0.979   0.080   0.310  0.00  0.00    +0.006 C 
ENDBRANCH  15  17
ENDBRANCH  14  15
ENDBRANCH   8  14
ENDBRANCH   1  13
BRANCH   2  18
ATOM     18  C   UNL     1       0.345  -4.377  -0.807  0.00  0.00    +0.195 C 
ATOM     19  O   UNL     1       0.259  -5.147   0.131  0.00  0.00    -0.287 OA
BRANCH  18  20
ATOM     20  C   UNL     1       1.162  -3.150  -0.683  0.00  0.00    +0.026 A 
ATOM     21  C   UNL     1       1.263  -2.264  -1.758  0.00  0.00    +0.012 A 
ATOM     22  C   UNL     1       2.025  -1.121  -1.638  0.00  0.00    +0.004 A 
ATOM     23  C   UNL     1       2.691  -0.848  -0.457  0.00  0.00    +0.046 A 
ATOM     24  C   UNL     1       2.597  -1.723   0.617  0.00  0.00    +0.122 A 
ATOM     25  C   UNL     1       1.830  -2.871   0.510  0.00  0.00    +0.057 A 
BRANCH  24  26
ATOM     26  O   UNL     1       3.253  -1.451   1.775  0.00  0.00    -0.487 OA
BRANCH  26  27
ATOM     27  C   UNL     1       4.021  -0.246   1.817  0.00  0.00    +0.264 C 
BRANCH  27  28
ATOM     28  C   UNL     1       4.673  -0.113   3.170  0.00  0.00    -0.010 A 
ATOM     29  C   UNL     1       4.011   0.539   4.194  0.00  0.00    +0.010 A 
ATOM     30  C   UNL     1       4.608   0.662   5.434  0.00  0.00    +0.039 A 
ATOM     31  C   UNL     1       5.868   0.131   5.652  0.00  0.00    +0.123 A 
ATOM     32  C   UNL     1       6.529  -0.522   4.625  0.00  0.00    +0.039 A 
ATOM     33  C   UNL     1       5.929  -0.648   3.387  0.00  0.00    +0.010 A 
ATOM     34  F   UNL     1       6.452   0.250   6.864  0.00  0.00    -0.205 F 
ENDBRANCH  27  28
ENDBRANCH  26  27
ENDBRANCH  24  26
ENDBRANCH  18  20
ENDBRANCH   2  18
BRANCH   6  35
ATOM     35  C   UNL     1      -2.943  -4.155  -4.815  0.00  0.00    +0.137 C 
BRANCH  35  36
ATOM     36  C   UNL     1      -2.386  -3.175  -5.849  0.00  0.00    +0.175 C 
BRANCH  36  37
ATOM     37  O   UNL     1      -1.418  -3.840  -6.663  0.00  0.00    -0.393 OA
ATOM     38  H   UNL     1      -1.022  -3.278  -7.343  0.00  0.00    +0.209 HD
ENDBRANCH  36  37
ENDBRANCH  35  36
ENDBRANCH   6  35
TORSDOF 12
