REMARK  Name = ZINC39671825
REMARK  9 active torsions:
REMARK  status: ('A' for Active; 'I' for Inactive)
REMARK    1  A    between atoms: C_1  and  C_2
REMARK    2  A    between atoms: C_4  and  C_37
REMARK    3  A    between atoms: N_5  and  C_7
REMARK    4  A    between atoms: C_7  and  C_8
REMARK    5  A    between atoms: C_8  and  C_9
REMARK    6  A    between atoms: C_9  and  N_10
REMARK    7  A    between atoms: C_11  and  C_13
REMARK    8  A    between atoms: C_24  and  C_26
REMARK    9  A    between atoms: C_29  and  C_31
REMARK                            x       y       z     vdW  Elec       q    Type
REMARK                         _______ _______ _______ _____ _____    ______ ____
ROOT
ATOM      1  C   UNL     1       4.606  -6.758   4.021  0.00  0.00    +0.100 C 
ATOM      2  C   UNL     1       5.356  -5.585   4.691  0.00  0.00    +0.121 C 
ATOM      3  N   UNL     1       5.252  -5.856   6.144  0.00  0.00    -0.294 N 
ATOM      4  C   UNL     1       5.421  -7.324   6.259  0.00  0.00    +0.115 C 
ATOM      5  C   UNL     1       4.654  -7.898   5.052  0.00  0.00    -0.004 C 
ATOM      6  C   UNL     1       5.398  -9.100   4.476  0.00  0.00    -0.010 C 
ATOM      7  C   UNL     1       5.382 -10.241   5.497  0.00  0.00    -0.082 C 
ATOM      8  N   UNL     1       3.994 -10.602   5.808  0.00  0.00    +0.379 N 
ATOM      9  C   UNL     1       3.312  -9.470   6.447  0.00  0.00    -0.082 C 
ATOM     10  C   UNL     1       3.241  -8.296   5.466  0.00  0.00    -0.010 C 
ATOM     11  C   UNL     1       5.049  -4.967   7.137  0.00  0.00    +0.282 C 
ATOM     12  O   UNL     1       4.987  -5.348   8.292  0.00  0.00    -0.267 OA
ATOM     13  H   UNL     1       3.512 -10.846   4.956  0.00  0.00    -0.086 HD
ATOM     14  H   UNL     1       3.986 -11.394   6.434  0.00  0.00    -0.086 HD
ENDROOT
BRANCH  11  15
ATOM     15  C   UNL     1       4.903  -3.542   6.827  0.00  0.00    +0.190 A 
ATOM     16  C   UNL     1       4.698  -2.533   7.742  0.00  0.00    +0.055 A 
ATOM     17  C   UNL     1       4.618  -1.340   7.015  0.00  0.00    +0.050 A 
ATOM     18  C   UNL     1       4.775  -1.662   5.697  0.00  0.00    +0.136 A 
ATOM     19  O   UNL     1       4.952  -2.990   5.597  0.00  0.00    -0.450 OA
BRANCH  18  20
ATOM     20  C   UNL     1       4.760  -0.708   4.570  0.00  0.00    +0.017 A 
ATOM     21  C   UNL     1       4.578   0.656   4.809  0.00  0.00    +0.011 A 
ATOM     22  C   UNL     1       4.564   1.542   3.751  0.00  0.00    +0.001 A 
ATOM     23  C   UNL     1       4.731   1.082   2.457  0.00  0.00    +0.000 A 
ATOM     24  C   UNL     1       4.911  -0.268   2.214  0.00  0.00    +0.001 A 
ATOM     25  C   UNL     1       4.933  -1.165   3.262  0.00  0.00    +0.011 A 
ENDBRANCH  18  20
ENDBRANCH  11  15
BRANCH   1  27
ATOM     26  N   UNL     1       2.520  -6.941   2.704  0.00  0.00    -0.315 N 
ATOM     27  C   UNL     1       3.179  -6.371   3.733  0.00  0.00    +0.218 C 
ATOM     28  O   UNL     1       2.622  -5.546   4.426  0.00  0.00    -0.275 OA
ATOM     29  H   UNL     1       2.966  -7.601   2.149  0.00  0.00    +0.149 HD
BRANCH  26  30
ATOM     30  C   UNL     1       1.132  -6.565   2.424  0.00  0.00    +0.106 C 
BRANCH  30  31
ATOM     31  C   UNL     1       0.625  -7.353   1.214  0.00  0.00    +0.042 C 
BRANCH  31  32
ATOM     32  C   UNL     1      -0.825  -6.960   0.922  0.00  0.00    +0.145 C 
BRANCH  32  37
ATOM     33  C   UNL     1      -1.881  -8.225  -3.820  0.00  0.00    +0.067 C 
ATOM     34  C   UNL     1      -1.763  -8.247  -2.318  0.00  0.00    +0.060 A 
ATOM     35  C   UNL     1      -2.213  -9.269  -1.475  0.00  0.00    +0.047 A 
ATOM     36  C   UNL     1      -1.923  -8.916  -0.201  0.00  0.00    +0.036 A 
ATOM     37  N   UNL     1      -1.311  -7.714  -0.237  0.00  0.00    -0.268 N 
ATOM     38  N   UNL     1      -1.217  -7.317  -1.577  0.00  0.00    -0.176 NA
ATOM     39  C   UNL     1      -2.229  -9.721   1.035  0.00  0.00    +0.065 C 
ENDBRANCH  32  37
ENDBRANCH  31  32
ENDBRANCH  30  31
ENDBRANCH  26  30
ENDBRANCH   1  27
TORSDOF 7
