REMARK  Name = ZINC16653196
REMARK  11 active torsions:
REMARK  status: ('A' for Active; 'I' for Inactive)
REMARK    1  A    between atoms: C_1  and  O_2
REMARK    2  A    between atoms: O_2  and  C_3
REMARK    3  A    between atoms: C_3  and  C_4
REMARK    4  A    between atoms: C_4  and  N_5
REMARK    5  A    between atoms: N_5  and  C_6
REMARK    6  A    between atoms: C_6  and  C_7
REMARK    7  A    between atoms: N_9  and  C_10
REMARK    8  A    between atoms: N_9  and  C_20
REMARK    9  A    between atoms: C_10  and  C_11
REMARK   10  A    between atoms: C_20  and  C_21
REMARK   11  A    between atoms: N_28  and  C_29
REMARK                            x       y       z     vdW  Elec       q    Type
REMARK                         _______ _______ _______ _____ _____    ______ ____
ROOT
ATOM      1  C   UNL     1       7.658  -0.575  -0.587  0.00  0.00    +0.205 C 
ENDROOT
BRANCH   1   2
ATOM      2  N   UNL     1       8.211   0.610  -1.249  0.00  0.00    -0.275 N 
ATOM      3  C   UNL     1       9.335   1.183  -0.774  0.00  0.00    +0.303 C 
ATOM      4  O   UNL     1       9.889   0.718   0.202  0.00  0.00    -0.253 OA
ATOM      5  N   UNL     1       9.843   2.273  -1.383  0.00  0.00    -0.294 N 
ATOM      6  H   UNL     1       9.401   2.645  -2.162  0.00  0.00    +0.151 HD
BRANCH   5   7
ATOM      7  C   UNL     1      11.065   2.897  -0.868  0.00  0.00    +0.037 C 
ATOM      8  C   UNL     1      10.835   3.352   0.575  0.00  0.00    +0.029 C 
ATOM      9  C   UNL     1      12.110   4.004   1.113  0.00  0.00    -0.008 C 
ATOM     10  C   UNL     1      12.470   5.213   0.248  0.00  0.00    +0.007 C 
ATOM     11  C   UNL     1      12.699   4.758  -1.195  0.00  0.00    -0.008 C 
ATOM     12  C   UNL     1      11.424   4.106  -1.733  0.00  0.00    +0.029 C 
ATOM     13  C   UNL     1      13.845   3.744  -1.233  0.00  0.00    +0.007 C 
ATOM     14  C   UNL     1      13.486   2.535  -0.368  0.00  0.00    -0.008 C 
ATOM     15  C   UNL     1      13.256   2.990   1.075  0.00  0.00    +0.007 C 
ATOM     16  C   UNL     1      12.210   1.883  -0.906  0.00  0.00    +0.029 C 
ENDBRANCH   5   7
BRANCH   2  17
ATOM     17  C   UNL     1       7.543   1.171  -2.425  0.00  0.00    +0.138 C 
BRANCH  17  18
ATOM     18  C   UNL     1       6.516   2.214  -1.980  0.00  0.00    +0.178 C 
BRANCH  18  20
ATOM     19  C   UNL     1       6.318   4.351  -0.913  0.00  0.00    +0.194 C 
ATOM     20  O   UNL     1       7.191   3.315  -1.368  0.00  0.00    -0.381 OA
ENDBRANCH  18  20
ENDBRANCH  17  18
ENDBRANCH   2  17
ENDBRANCH   1   2
BRANCH   1  21
ATOM     21  C   UNL     1       6.687  -0.146   0.482  0.00  0.00    +0.234 C 
ATOM     22  O   UNL     1       6.477   1.033   0.672  0.00  0.00    -0.274 OA
ATOM     23  N   UNL     1       6.051  -1.073   1.226  0.00  0.00    -0.289 N 
BRANCH  23  24
ATOM     24  C   UNL     1       5.107  -0.655   2.265  0.00  0.00    +0.143 C 
BRANCH  24  25
ATOM     25  C   UNL     1       3.725  -0.548   1.674  0.00  0.00    -0.026 A 
ATOM     26  C   UNL     1       2.885  -1.646   1.677  0.00  0.00    +0.009 A 
ATOM     27  C   UNL     1       1.617  -1.553   1.135  0.00  0.00    +0.050 A 
ATOM     28  C   UNL     1       1.183  -0.356   0.589  0.00  0.00    +0.166 A 
ATOM     29  C   UNL     1       2.028   0.751   0.586  0.00  0.00    +0.167 A 
ATOM     30  C   UNL     1       3.298   0.650   1.131  0.00  0.00    +0.054 A 
ATOM     31  O   UNL     1       1.376   1.797  -0.001  0.00  0.00    -0.453 OA
ATOM     32  C   UNL     1      -0.018   1.436   0.010  0.00  0.00    +0.466 C 
ATOM     33  O   UNL     1       0.002  -0.004   0.002  0.00  0.00    -0.453 OA
ENDBRANCH  24  25
ENDBRANCH  23  24
BRANCH  23  34
ATOM     34  C   UNL     1       6.305  -2.497   0.996  0.00  0.00    +0.182 C 
BRANCH  34  35
ATOM     35  C   UNL     1       5.334  -3.021  -0.031  0.00  0.00    +0.122 A 
ATOM     36  C   UNL     1       5.530  -3.040  -1.361  0.00  0.00    +0.046 A 
ATOM     37  C   UNL     1       4.372  -3.611  -1.938  0.00  0.00    +0.041 A 
ATOM     38  C   UNL     1       3.538  -3.907  -0.925  0.00  0.00    +0.195 A 
ATOM     39  O   UNL     1       4.128  -3.552   0.228  0.00  0.00    -0.466 OA
ENDBRANCH  34  35
ENDBRANCH  23  34
ENDBRANCH   1  21
TORSDOF 10
