REMARK  Name = ZINC32101163
REMARK  11 active torsions:
REMARK  status: ('A' for Active; 'I' for Inactive)
REMARK    1  A    between atoms: C_1  and  C_2
REMARK    2  A    between atoms: C_5  and  C_8
REMARK    3  A    between atoms: C_11  and  C_13
REMARK    4  A    between atoms: C_11  and  O_17
REMARK    5  A    between atoms: C_18  and  C_20
REMARK    6  A    between atoms: C_20  and  O_21
REMARK    7  A    between atoms: O_21  and  C_22
REMARK    8  A    between atoms: C_25  and  C_28
REMARK    9  A    between atoms: C_28  and  C_29
REMARK   10  A    between atoms: C_28  and  C_30
REMARK   11  A    between atoms: C_28  and  C_31
REMARK                            x       y       z     vdW  Elec       q    Type
REMARK                         _______ _______ _______ _____ _____    ______ ____
ROOT
ATOM      1  C   UNL     1      -3.482   6.421  -0.364  0.00  0.00    +0.071 C 
ATOM      2  N   UNL     1      -2.847   5.301  -0.356  0.00  0.00    -0.178 NA
ATOM      3  N   UNL     1      -3.663   4.182  -0.510  0.00  0.00    -0.149 N 
ATOM      4  C   UNL     1      -5.061   4.626  -0.630  0.00  0.00    +0.257 C 
ATOM      5  C   UNL     1      -4.962   6.161  -0.533  0.00  0.00    +0.124 C 
ATOM      6  C   UNL     1      -3.242   2.902  -0.539  0.00  0.00    +0.275 C 
ATOM      7  O   UNL     1      -4.044   2.002  -0.673  0.00  0.00    -0.270 OA
ENDROOT
BRANCH   1  12
ATOM      8  C   UNL     1      -1.065  11.611   0.181  0.00  0.00    +0.044 C 
ATOM      9  C   UNL     1      -1.698  10.251   0.038  0.00  0.00    -0.050 A 
ATOM     10  C   UNL     1      -0.906   9.117   0.056  0.00  0.00    +0.004 A 
ATOM     11  C   UNL     1      -1.479   7.869  -0.074  0.00  0.00    +0.010 A 
ATOM     12  C   UNL     1      -2.862   7.752  -0.225  0.00  0.00    -0.002 A 
ATOM     13  C   UNL     1      -3.656   8.902  -0.248  0.00  0.00    +0.010 A 
ATOM     14  C   UNL     1      -3.070  10.143  -0.112  0.00  0.00    +0.004 A 
ENDBRANCH   1  12
BRANCH   4  15
ATOM     15  C   UNL     1      -5.904   4.067   0.517  0.00  0.00    +0.438 C 
ATOM     16  F   UNL     1      -5.369   4.491   1.738  0.00  0.00    -0.166 F 
ATOM     17  F   UNL     1      -7.219   4.530   0.398  0.00  0.00    -0.166 F 
ATOM     18  F   UNL     1      -5.895   2.669   0.464  0.00  0.00    -0.166 F 
ENDBRANCH   4  15
BRANCH   4  19
ATOM     19  O   UNL     1      -5.607   4.233  -1.891  0.00  0.00    -0.363 OA
ATOM     20  H   UNL     1      -6.647   4.487  -2.144  0.00  0.00    +0.212 HD
ENDBRANCH   4  19
BRANCH   6  21
ATOM     21  C   UNL     1      -1.774   2.589  -0.404  0.00  0.00    +0.326 C 
BRANCH  21  22
ATOM     22  O   UNL     1      -1.581   1.174  -0.464  0.00  0.00    -0.483 OA
BRANCH  22  23
ATOM     23  C   UNL     1      -0.305   0.720  -0.357  0.00  0.00    +0.121 A 
ATOM     24  C   UNL     1       0.741   1.618  -0.203  0.00  0.00    +0.046 A 
ATOM     25  C   UNL     1       2.038   1.154  -0.099  0.00  0.00    +0.008 A 
ATOM     26  C   UNL     1       2.295  -0.203  -0.150  0.00  0.00    -0.037 A 
ATOM     27  C   UNL     1       1.254  -1.101  -0.303  0.00  0.00    +0.008 A 
ATOM     28  C   UNL     1      -0.045  -0.642  -0.407  0.00  0.00    +0.046 A 
BRANCH  26  29
ATOM     29  C   UNL     1       3.711  -0.707  -0.037  0.00  0.00    +0.015 C 
ATOM     30  C   UNL     1       4.024  -1.617  -1.226  0.00  0.00    +0.021 C 
ATOM     31  C   UNL     1       4.675   0.481  -0.035  0.00  0.00    +0.021 C 
BRANCH  29  32
ATOM     32  C   UNL     1       3.867  -1.483   1.245  0.00  0.00    -0.037 A 
ATOM     33  C   UNL     1       2.835  -1.515   2.164  0.00  0.00    +0.004 A 
ATOM     34  C   UNL     1       2.977  -2.231   3.338  0.00  0.00    +0.000 A 
ATOM     35  C   UNL     1       4.155  -2.907   3.597  0.00  0.00    +0.000 A 
ATOM     36  C   UNL     1       5.189  -2.870   2.681  0.00  0.00    +0.000 A 
ATOM     37  C   UNL     1       5.045  -2.158   1.504  0.00  0.00    +0.004 A 
ENDBRANCH  29  32
ENDBRANCH  26  29
ENDBRANCH  22  23
ENDBRANCH  21  22
ENDBRANCH   6  21
TORSDOF 8
