REMARK  Name = ZINC50063357
REMARK  6 active torsions:
REMARK  status: ('A' for Active; 'I' for Inactive)
REMARK    1  A    between atoms: N_10  and  C_11
REMARK    2  A    between atoms: C_11  and  C_13
REMARK    3  A    between atoms: C_17  and  N_19
REMARK    4  A    between atoms: N_23  and  C_24
REMARK    5  A    between atoms: C_24  and  C_25
REMARK    6  A    between atoms: C_25  and  N_26
REMARK                            x       y       z     vdW  Elec       q    Type
REMARK                         _______ _______ _______ _____ _____    ______ ____
ROOT
ATOM      1  C   UNL     1      -0.015   1.377   0.026  0.00  0.00    +0.002 A 
ATOM      2  C   UNL     1       1.171   2.091   0.029  0.00  0.00    +0.002 A 
ATOM      3  C   UNL     1       2.383   1.429   0.015  0.00  0.00    +0.028 A 
ATOM      4  C   UNL     1       2.412   0.042  -0.003  0.00  0.00    +0.068 A 
ATOM      5  C   UNL     1       1.216  -0.678  -0.006  0.00  0.00    +0.066 A 
ATOM      6  C   UNL     1       0.003  -0.003   0.009  0.00  0.00    +0.028 A 
ATOM      7  N   UNL     1       1.550  -2.029  -0.024  0.00  0.00    -0.326 N 
ATOM      8  H   UNL     1       0.923  -2.769  -0.031  0.00  0.00    +0.169 HD
ATOM      9  C   UNL     1       2.906  -2.132  -0.033  0.00  0.00    +0.201 A 
ATOM     10  N   UNL     1       3.591  -3.270  -0.051  0.00  0.00    -0.142 NA
ATOM     11  N   UNL     1       3.449  -0.885  -0.020  0.00  0.00    -0.314 N 
ENDROOT
BRANCH  10  12
ATOM     12  C   UNL     1       2.948  -4.439   0.050  0.00  0.00    +0.270 C 
ATOM     13  O   UNL     1       1.730  -4.465   0.063  0.00  0.00    -0.268 OA
BRANCH  12  14
ATOM     14  C   UNL     1       3.717  -5.700   0.147  0.00  0.00    +0.041 A 
ATOM     15  C   UNL     1       5.112  -5.672   0.139  0.00  0.00    +0.014 A 
ATOM     16  C   UNL     1       5.824  -6.850   0.230  0.00  0.00    +0.023 A 
ATOM     17  C   UNL     1       5.156  -8.059   0.329  0.00  0.00    +0.071 A 
ATOM     18  C   UNL     1       3.772  -8.093   0.338  0.00  0.00    +0.145 A 
ATOM     19  C   UNL     1       3.050  -6.921   0.253  0.00  0.00    +0.047 A 
ATOM     20 CL   UNL     1       6.058  -9.539   0.443  0.00  0.00    -0.081 Cl
BRANCH  18  21
ATOM     21  N   UNL     1       3.065  -9.390   0.444  0.00  0.00    +0.058 N 
ATOM     22  O   UNL     1       1.857  -9.420   0.452  0.00  0.00    -0.126 OA
ATOM     23  O   UNL     1       3.696 -10.418   0.523  0.00  0.00    -0.126 OA
ENDBRANCH  18  21
ENDBRANCH  12  14
ENDBRANCH  10  12
BRANCH  11  24
ATOM     24  C   UNL     1       4.880  -0.573  -0.024  0.00  0.00    +0.106 C 
BRANCH  24  25
ATOM     25  C   UNL     1       5.386  -0.481   1.417  0.00  0.00    -0.057 C 
BRANCH  25  26
ATOM     26  N   UNL     1       6.821  -0.168   1.413  0.00  0.00    +0.381 N 
ATOM     27  C   UNL     1       7.028   1.166   0.835  0.00  0.00    -0.079 C 
ATOM     28  C   UNL     1       8.526   1.464   0.754  0.00  0.00    -0.019 C 
ATOM     29  C   UNL     1       9.127   1.418   2.162  0.00  0.00    -0.004 C 
ATOM     30  C   UNL     1       8.841   0.048   2.784  0.00  0.00    -0.019 C 
ATOM     31  C   UNL     1       7.331  -0.198   2.789  0.00  0.00    -0.079 C 
ATOM     32  H   UNL     1       7.313  -0.852   0.859  0.00  0.00    -0.082 HD
ENDBRANCH  25  26
ENDBRANCH  24  25
ENDBRANCH  11  24
TORSDOF 6
