REMARK  Name = ZINC45620681
REMARK  4 active torsions:
REMARK  status: ('A' for Active; 'I' for Inactive)
REMARK    1  A    between atoms: C_6  and  N_7
REMARK    2  A    between atoms: C_8  and  C_10
REMARK    3  A    between atoms: C_10  and  C_11
REMARK    4  A    between atoms: C_11  and  N_12
REMARK                            x       y       z     vdW  Elec       q    Type
REMARK                         _______ _______ _______ _____ _____    ______ ____
ROOT
ATOM      1  N   UNL     1      -1.201  -0.721   0.010  0.00  0.00    -0.285 N 
ATOM      2  C   UNL     1      -2.374  -0.068   0.126  0.00  0.00    +0.219 C 
ATOM      3  O   UNL     1      -2.395   1.145   0.133  0.00  0.00    -0.275 OA
ATOM      4  H   UNL     1      -1.191  -1.688  -0.073  0.00  0.00    +0.155 HD
ENDROOT
BRANCH   1  10
ATOM      5  C   UNL     1       0.122   1.154   0.763  0.00  0.00    +0.027 A 
ATOM      6  C   UNL     1       1.309   1.862   0.762  0.00  0.00    +0.051 A 
ATOM      7  C   UNL     1       2.382   1.418   0.008  0.00  0.00    +0.167 A 
ATOM      8  C   UNL     1       2.265   0.255  -0.751  0.00  0.00    +0.169 A 
ATOM      9  C   UNL     1       1.077  -0.453  -0.749  0.00  0.00    +0.072 A 
ATOM     10  C   UNL     1       0.002  -0.004   0.008  0.00  0.00    +0.037 A 
ATOM     11  O   UNL     1       3.449   0.033  -1.396  0.00  0.00    -0.447 OA
ATOM     12  C   UNL     1       4.158   1.279  -1.332  0.00  0.00    +0.254 C 
ATOM     13  O   UNL     1       3.641   1.925  -0.160  0.00  0.00    -0.448 OA
ATOM     14  C   UNL     1       3.871   2.119  -2.572  0.00  0.00    +0.093 C 
ATOM     15  C   UNL     1       4.401   1.396  -3.813  0.00  0.00    +0.008 C 
ATOM     16  C   UNL     1       5.907   1.169  -3.667  0.00  0.00    +0.000 C 
ATOM     17  C   UNL     1       6.178   0.310  -2.430  0.00  0.00    +0.008 C 
ATOM     18  C   UNL     1       5.655   1.030  -1.185  0.00  0.00    +0.093 C 
ENDBRANCH   1  10
BRANCH   2  19
ATOM     19  C   UNL     1      -3.660  -0.844   0.248  0.00  0.00    +0.118 C 
BRANCH  19  20
ATOM     20  C   UNL     1      -4.835   0.130   0.366  0.00  0.00    +0.135 C 
BRANCH  20  21
ATOM     21  N   UNL     1      -6.085  -0.625   0.485  0.00  0.00    -0.298 N 
ATOM     22  C   UNL     1      -6.764  -0.967  -0.640  0.00  0.00    +0.203 A 
ATOM     23  N   UNL     1      -7.882  -1.640  -0.577  0.00  0.00    -0.230 NA
ATOM     24  C   UNL     1      -8.391  -2.011   0.595  0.00  0.00    +0.116 A 
ATOM     25  C   UNL     1      -7.761  -1.703   1.811  0.00  0.00    +0.076 A 
ATOM     26  C   UNL     1      -6.534  -0.969   1.706  0.00  0.00    +0.262 A 
ATOM     27  O   UNL     1      -5.910  -0.658   2.706  0.00  0.00    -0.267 OA
ATOM     28  C   UNL     1      -8.436  -2.174   3.019  0.00  0.00    -0.023 A 
ATOM     29  C   UNL     1      -9.590  -2.854   2.850  0.00  0.00    -0.004 A 
ATOM     30  S   UNL     1      -9.840  -2.905   1.096  0.00  0.00    -0.073 S 
ATOM     31  C   UNL     1     -10.465  -3.437   3.917  0.00  0.00    +0.043 C 
ATOM     32  C   UNL     1      -9.669  -3.472   5.230  0.00  0.00    +0.005 C 
ATOM     33  C   UNL     1      -9.003  -2.108   5.437  0.00  0.00    +0.005 C 
ATOM     34  C   UNL     1      -7.880  -1.919   4.417  0.00  0.00    +0.037 C 
ENDBRANCH  20  21
ENDBRANCH  19  20
ENDBRANCH   2  19
TORSDOF 4
