REMARK  Name = ZINC39201859
REMARK  9 active torsions:
REMARK  status: ('A' for Active; 'I' for Inactive)
REMARK    1  A    between atoms: C_8  and  C_31
REMARK    2  A    between atoms: C_9  and  C_10
REMARK    3  A    between atoms: C_10  and  N_11
REMARK    4  A    between atoms: C_14  and  C_17
REMARK    5  A    between atoms: N_19  and  C_20
REMARK    6  A    between atoms: N_19  and  C_24
REMARK    7  A    between atoms: C_20  and  C_21
REMARK    8  A    between atoms: C_21  and  C_22
REMARK    9  A    between atoms: C_24  and  C_25
REMARK                            x       y       z     vdW  Elec       q    Type
REMARK                         _______ _______ _______ _____ _____    ______ ____
ROOT
ATOM      1  N   UNL     1       5.184  -1.857   1.988  0.00  0.00    +0.383 N 
ATOM      2  C   UNL     1       6.025  -3.028   2.266  0.00  0.00    -0.078 C 
ATOM      3  C   UNL     1       6.594  -2.926   3.683  0.00  0.00    -0.006 C 
ATOM      4  C   UNL     1       7.435  -1.652   3.799  0.00  0.00    +0.072 C 
ATOM      5  C   UNL     1       6.567  -0.444   3.434  0.00  0.00    -0.006 C 
ATOM      6  C   UNL     1       5.999  -0.638   2.027  0.00  0.00    -0.078 C 
ATOM      7  H   UNL     1       4.455  -1.796   2.683  0.00  0.00    -0.081 HD
ENDROOT
BRANCH   4   8
ATOM      8  C   UNL     1       7.934  -1.505   5.213  0.00  0.00    +0.219 C 
ATOM      9  O   UNL     1       7.386  -2.102   6.115  0.00  0.00    -0.275 OA
ATOM     10  N   UNL     1       8.991  -0.711   5.476  0.00  0.00    -0.298 N 
BRANCH  10  11
ATOM     11  C   UNL     1       9.462  -0.550   6.854  0.00  0.00    +0.122 C 
BRANCH  11  12
ATOM     12  C   UNL     1      10.586  -1.550   7.128  0.00  0.00    +0.137 C 
BRANCH  12  13
ATOM     13  C   UNL     1      10.979  -1.470   8.544  0.00  0.00    +0.064 C 
ATOM     14  N   UNL     1      11.283  -1.409   9.637  0.00  0.00    -0.197 NA
ENDBRANCH  12  13
ENDBRANCH  11  12
ENDBRANCH  10  11
BRANCH  10  15
ATOM     15  C   UNL     1       9.668  -0.008   4.383  0.00  0.00    +0.139 C 
BRANCH  15  16
ATOM     16  C   UNL     1       9.264   1.468   4.398  0.00  0.00    +0.136 C 
ATOM     17  C   UNL     1       9.860   2.187   3.168  0.00  0.00    +0.035 C 
ATOM     18  C   UNL     1      10.280   3.560   3.760  0.00  0.00    +0.031 C 
ATOM     19  C   UNL     1      10.707   3.145   5.191  0.00  0.00    +0.160 C 
ATOM     20  O   UNL     1       9.790   2.103   5.570  0.00  0.00    -0.375 OA
ENDBRANCH  15  16
ENDBRANCH  10  15
ENDBRANCH   4   8
BRANCH   1  21
ATOM     21  C   UNL     1       4.578  -1.997   0.657  0.00  0.00    -0.022 C 
BRANCH  21  30
ATOM     22  C   UNL     1      -0.245  -3.798   1.789  0.00  0.00    +0.005 A 
ATOM     23  C   UNL     1       0.271  -2.504   1.965  0.00  0.00    +0.018 A 
ATOM     24  C   UNL     1       1.544  -2.225   1.613  0.00  0.00    +0.093 A 
ATOM     25  N   UNL     1       2.347  -3.193   1.083  0.00  0.00    -0.305 N 
ATOM     26  C   UNL     1       1.871  -4.467   0.900  0.00  0.00    +0.138 A 
ATOM     27  C   UNL     1       0.544  -4.773   1.262  0.00  0.00    +0.047 A 
ATOM     28  N   UNL     1       2.841  -5.202   0.377  0.00  0.00    -0.228 NA
ATOM     29  C   UNL     1       3.934  -4.438   0.216  0.00  0.00    +0.091 A 
ATOM     30  C   UNL     1       3.644  -3.180   0.651  0.00  0.00    +0.035 A 
BRANCH  29  31
ATOM     31  C   UNL     1       5.234  -4.887  -0.342  0.00  0.00    +0.002 A 
ATOM     32  C   UNL     1       5.769  -6.117   0.036  0.00  0.00    +0.011 A 
ATOM     33  C   UNL     1       6.978  -6.530  -0.484  0.00  0.00    +0.020 A 
ATOM     34  C   UNL     1       7.660  -5.724  -1.381  0.00  0.00    +0.041 A 
ATOM     35  C   UNL     1       7.132  -4.502  -1.760  0.00  0.00    +0.020 A 
ATOM     36  C   UNL     1       5.920  -4.083  -1.249  0.00  0.00    +0.011 A 
ATOM     37 CL   UNL     1       9.181  -6.249  -2.032  0.00  0.00    -0.084 Cl
ENDBRANCH  29  31
ENDBRANCH  21  30
ENDBRANCH   1  21
TORSDOF 9
