REMARK  Name = ZINC59404271
REMARK  15 active torsions:
REMARK  status: ('A' for Active; 'I' for Inactive)
REMARK    1  A    between atoms: C_1  and  C_2
REMARK    2  A    between atoms: C_2  and  C_3
REMARK    3  A    between atoms: C_8  and  N_9
REMARK    4  A    between atoms: C_10  and  C_12
REMARK    5  A    between atoms: C_12  and  N_13
REMARK    6  A    between atoms: N_13  and  C_14
REMARK    7  A    between atoms: C_15  and  C_17
REMARK    8  A    between atoms: C_17  and  C_19
REMARK    9  A    between atoms: C_17  and  N_20
REMARK   10  A    between atoms: C_23  and  N_26
REMARK   11  A    between atoms: C_27  and  O_29
REMARK   12  A    between atoms: O_29  and  C_30
REMARK   13  A    between atoms: C_30  and  C_31
REMARK   14  A    between atoms: C_30  and  C_32
REMARK   15  A    between atoms: C_30  and  C_33
REMARK                            x       y       z     vdW  Elec       q    Type
REMARK                         _______ _______ _______ _____ _____    ______ ____
ROOT
ATOM      1  C   UNL     1       8.293  -2.061   0.923  0.00  0.00    +0.016 C 
ATOM      2  C   UNL     1       9.324  -1.256   1.716  0.00  0.00    -0.004 C 
ENDROOT
BRANCH   1   3
ATOM      3  N   UNL     1       8.533  -3.496   1.124  0.00  0.00    +0.387 N 
ATOM      4  C   UNL     1       7.617  -4.267   0.274  0.00  0.00    -0.076 C 
ATOM      5  C   UNL     1       7.807  -5.762   0.539  0.00  0.00    +0.004 C 
ATOM      6  C   UNL     1       9.253  -6.153   0.220  0.00  0.00    +0.073 C 
ATOM      7  C   UNL     1      10.201  -5.290   1.058  0.00  0.00    +0.004 C 
ATOM      8  C   UNL     1       9.923  -3.812   0.774  0.00  0.00    -0.076 C 
ATOM      9  H   UNL     1       8.369  -3.731   2.091  0.00  0.00    -0.081 HD
BRANCH   6  10
ATOM     10  N   UNL     1       9.461  -7.566   0.544  0.00  0.00    -0.278 N 
ATOM     11  C   UNL     1      10.429  -8.265  -0.082  0.00  0.00    +0.401 C 
ATOM     12  O   UNL     1      11.129  -7.723  -0.914  0.00  0.00    -0.226 OA
ATOM     13  H   UNL     1       8.903  -7.999   1.209  0.00  0.00    +0.152 HD
BRANCH  11  14
ATOM     14  O   UNL     1      10.621  -9.564   0.216  0.00  0.00    -0.445 OA
BRANCH  14  15
ATOM     15  C   UNL     1      11.664 -10.243  -0.485  0.00  0.00    +0.107 C 
ATOM     16  C   UNL     1      13.001  -9.555  -0.202  0.00  0.00    +0.055 C 
ATOM     17  C   UNL     1      11.730 -11.698  -0.017  0.00  0.00    +0.055 C 
ATOM     18  C   UNL     1      11.378 -10.204  -1.988  0.00  0.00    +0.055 C 
ENDBRANCH  14  15
ENDBRANCH  11  14
ENDBRANCH   6  10
ENDBRANCH   1   3
BRANCH   1  21
ATOM     19  N   UNL     1       6.346  -0.539   1.041  0.00  0.00    -0.297 N 
ATOM     20  C   UNL     1       7.084   0.394   0.186  0.00  0.00    +0.132 C 
ATOM     21  C   UNL     1       6.907  -1.711   1.400  0.00  0.00    +0.202 C 
ATOM     22  O   UNL     1       6.297  -2.484   2.108  0.00  0.00    -0.277 OA
BRANCH  19  23
ATOM     23  C   UNL     1       4.999  -0.199   1.506  0.00  0.00    +0.203 C 
BRANCH  23  25
ATOM     24  N   UNL     1       2.669  -0.501   0.732  0.00  0.00    -0.284 N 
ATOM     25  C   UNL     1       3.984  -0.701   0.512  0.00  0.00    +0.235 C 
ATOM     26  O   UNL     1       4.349  -1.286  -0.486  0.00  0.00    -0.274 OA
ATOM     27  H   UNL     1       2.380   0.032   1.489  0.00  0.00    +0.155 HD
BRANCH  24  33
ATOM     28  C   UNL     1       0.499  -1.495   0.364  0.00  0.00    -0.026 A 
ATOM     29  C   UNL     1      -0.437  -2.042  -0.492  0.00  0.00    +0.005 A 
ATOM     30  C   UNL     1      -0.154  -2.165  -1.840  0.00  0.00    +0.000 A 
ATOM     31  C   UNL     1       1.065  -1.740  -2.336  0.00  0.00    +0.002 A 
ATOM     32  C   UNL     1       2.004  -1.191  -1.485  0.00  0.00    +0.023 A 
ATOM     33  C   UNL     1       1.722  -1.062  -0.132  0.00  0.00    +0.037 A 
BRANCH  28  35
ATOM     34  C   UNL     1      -0.358   0.040   2.113  0.00  0.00    +0.009 C 
ATOM     35  C   UNL     1       0.190  -1.361   1.833  0.00  0.00    +0.033 C 
ENDBRANCH  28  35
ENDBRANCH  24  33
ENDBRANCH  23  25
ENDBRANCH  19  23
ENDBRANCH   1  21
TORSDOF 9
