REMARK  Name = ZINC59249947
REMARK  10 active torsions:
REMARK  status: ('A' for Active; 'I' for Inactive)
REMARK    1  A    between atoms: C_1  and  C_2
REMARK    2  A    between atoms: C_2  and  O_3
REMARK    3  A    between atoms: O_3  and  C_4
REMARK    4  A    between atoms: C_6  and  C_14
REMARK    5  A    between atoms: C_8  and  C_11
REMARK    6  A    between atoms: C_9  and  O_10
REMARK    7  A    between atoms: C_11  and  C_12
REMARK    8  A    between atoms: N_15  and  N_16
REMARK    9  A    between atoms: N_19  and  C_20
REMARK   10  A    between atoms: C_24  and  C_26
REMARK                            x       y       z     vdW  Elec       q    Type
REMARK                         _______ _______ _______ _____ _____    ______ ____
ROOT
ATOM      1  C   UNL     1       0.619  -4.950  -0.042  0.00  0.00    +0.138 C 
ATOM      2  N   UNL     1       1.813  -4.443  -0.038  0.00  0.00    -0.186 NA
ENDROOT
BRANCH   1   5
ATOM      3  C   UNL     1      -1.498  -1.848  -0.039  0.00  0.00    +0.163 A 
ATOM      4  C   UNL     1      -0.391  -2.676  -0.038  0.00  0.00    +0.059 A 
ATOM      5  C   UNL     1      -0.559  -4.062  -0.042  0.00  0.00    -0.002 A 
ATOM      6  C   UNL     1      -1.846  -4.607  -0.046  0.00  0.00    +0.017 A 
ATOM      7  C   UNL     1      -2.946  -3.775  -0.046  0.00  0.00    +0.002 A 
ATOM      8  C   UNL     1      -2.778  -2.398  -0.037  0.00  0.00    +0.162 A 
BRANCH   8   9
ATOM      9  O   UNL     1      -3.866  -1.583  -0.032  0.00  0.00    -0.503 OA
ATOM     10  H   UNL     1      -4.183  -1.344  -0.914  0.00  0.00    +0.292 HD
ENDBRANCH   8   9
BRANCH   3  11
ATOM     11  O   UNL     1      -1.338  -0.498  -0.035  0.00  0.00    -0.489 OA
BRANCH  11  13
ATOM     12  C   UNL     1      -0.018   1.526  -0.032  0.00  0.00    +0.048 C 
ATOM     13  C   UNL     1       0.002  -0.003  -0.037  0.00  0.00    +0.226 C 
ENDBRANCH  11  13
ENDBRANCH   3  11
BRANCH   7  14
ATOM     14  C   UNL     1      -4.333  -4.364  -0.051  0.00  0.00    +0.065 C 
BRANCH  14  15
ATOM     15  C   UNL     1      -4.840  -4.442  -1.468  0.00  0.00    -0.030 C 
ATOM     16  C   UNL     1      -5.257  -5.586  -1.952  0.00  0.00    +0.004 C 
ENDBRANCH  14  15
ENDBRANCH   7  14
ENDBRANCH   1   5
BRANCH   2  17
ATOM     17  N   UNL     1       2.932  -5.286  -0.038  0.00  0.00    -0.191 N 
ATOM     18  C   UNL     1       4.173  -4.759  -0.035  0.00  0.00    +0.323 C 
ATOM     19  O   UNL     1       5.144  -5.491  -0.035  0.00  0.00    -0.251 OA
ATOM     20  N   UNL     1       4.337  -3.421  -0.032  0.00  0.00    -0.268 N 
ATOM     21  H   UNL     1       2.814  -6.248  -0.041  0.00  0.00    +0.179 HD
ATOM     22  H   UNL     1       3.565  -2.838  -0.099  0.00  0.00    +0.156 HD
BRANCH  20  23
ATOM     23  C   UNL     1       5.621  -2.874   0.070  0.00  0.00    +0.035 A 
ATOM     24  C   UNL     1       5.821  -1.694   0.775  0.00  0.00    +0.024 A 
ATOM     25  C   UNL     1       7.089  -1.157   0.874  0.00  0.00    +0.017 A 
ATOM     26  C   UNL     1       8.160  -1.792   0.269  0.00  0.00    +0.021 A 
ATOM     27  C   UNL     1       7.963  -2.966  -0.434  0.00  0.00    -0.035 A 
ATOM     28  C   UNL     1       6.698  -3.512  -0.530  0.00  0.00    +0.027 A 
ATOM     29  C   UNL     1       9.132  -3.654  -1.092  0.00  0.00    +0.045 C 
ATOM     30 BR   UNL     1       9.895  -1.052   0.406  0.00  0.00    -0.050 Br
ENDBRANCH  20  23
ENDBRANCH   2  17
TORSDOF 8
