REMARK  Name = ZINC39990711
REMARK  9 active torsions:
REMARK  status: ('A' for Active; 'I' for Inactive)
REMARK    1  A    between atoms: C_1  and  C_2
REMARK    2  A    between atoms: C_2  and  C_4
REMARK    3  A    between atoms: C_2  and  S_16
REMARK    4  A    between atoms: N_6  and  C_7
REMARK    5  A    between atoms: C_11  and  C_13
REMARK    6  A    between atoms: C_13  and  C_15
REMARK    7  A    between atoms: S_16  and  C_17
REMARK    8  A    between atoms: C_21  and  C_26
REMARK    9  A    between atoms: N_22  and  C_23
REMARK                            x       y       z     vdW  Elec       q    Type
REMARK                         _______ _______ _______ _____ _____    ______ ____
ROOT
ATOM      1  C   UNL     1      -0.218   0.035  -2.863  0.00  0.00    +0.238 C 
ATOM      2  N   UNL     1      -1.583  -0.512  -2.791  0.00  0.00    -0.237 N 
ATOM      3  N   UNL     1      -2.453   0.583  -2.844  0.00  0.00    -0.169 NA
ATOM      4  C   UNL     1      -1.796   1.708  -2.937  0.00  0.00    +0.147 C 
ATOM      5  N   UNL     1      -0.412   1.492  -2.958  0.00  0.00    -0.282 N 
ATOM      6  H   UNL     1      -1.830  -1.447  -2.722  0.00  0.00    +0.171 HD
ENDROOT
BRANCH   4   7
ATOM      7  C   UNL     1      -2.399   2.973  -3.008  0.00  0.00    +0.022 C 
ATOM      8  C   UNL     1      -3.759   3.267  -2.904  0.00  0.00    +0.006 A 
ATOM      9  C   UNL     1      -4.897   2.455  -2.708  0.00  0.00    +0.010 A 
ATOM     10  C   UNL     1      -6.128   3.025  -2.645  0.00  0.00    +0.001 A 
ATOM     11  C   UNL     1      -6.302   4.405  -2.770  0.00  0.00    +0.002 A 
ATOM     12  C   UNL     1      -5.254   5.244  -2.961  0.00  0.00    +0.026 A 
ATOM     13  C   UNL     1      -3.937   4.722  -3.037  0.00  0.00    +0.043 A 
ATOM     14  N   UNL     1      -2.772   5.315  -3.213  0.00  0.00    -0.380 N 
ATOM     15  C   UNL     1      -1.709   4.305  -3.207  0.00  0.00    +0.152 C 
ATOM     16  H   UNL     1      -2.640   6.269  -3.325  0.00  0.00    +0.160 HD
ENDBRANCH   4   7
BRANCH   5  17
ATOM     17  C   UNL     1       0.635   2.511  -3.056  0.00  0.00    +0.078 C 
ATOM     18  C   UNL     1       1.505   2.511  -4.315  0.00  0.00    +0.024 C 
ATOM     19  C   UNL     1       2.089   2.039  -2.982  0.00  0.00    +0.024 C 
ENDBRANCH   5  17
BRANCH   1  20
ATOM     20  S   UNL     1       0.713  -0.383  -1.363  0.00  0.00    -0.106 S 
BRANCH  20  22
ATOM     21  C   UNL     1      -0.341   1.819  -0.130  0.00  0.00    +0.029 C 
ATOM     22  C   UNL     1      -0.296   0.293  -0.017  0.00  0.00    +0.133 C 
BRANCH  22  23
ATOM     23  C   UNL     1       0.308  -0.095   1.308  0.00  0.00    +0.230 C 
ATOM     24  O   UNL     1       1.492  -0.344   1.385  0.00  0.00    -0.274 OA
ATOM     25  N   UNL     1      -0.468  -0.165   2.408  0.00  0.00    -0.285 N 
ATOM     26  H   UNL     1      -1.401   0.099   2.361  0.00  0.00    +0.155 HD
BRANCH  25  27
ATOM     27  C   UNL     1       0.071  -0.619   3.617  0.00  0.00    +0.034 A 
ATOM     28  C   UNL     1      -0.708  -1.377   4.484  0.00  0.00    +0.023 A 
ATOM     29  C   UNL     1      -0.181  -1.828   5.680  0.00  0.00    +0.002 A 
ATOM     30  C   UNL     1       1.122  -1.530   6.022  0.00  0.00    +0.011 A 
ATOM     31  C   UNL     1       1.915  -0.769   5.158  0.00  0.00    +0.019 A 
ATOM     32  C   UNL     1       1.383  -0.318   3.946  0.00  0.00    +0.034 A 
BRANCH  31  33
ATOM     33  C   UNL     1       3.305  -0.449   5.519  0.00  0.00    +0.160 C 
ATOM     34  O   UNL     1       3.990   0.211   4.768  0.00  0.00    -0.292 OA
ATOM     35  C   UNL     1       3.877  -0.942   6.823  0.00  0.00    +0.091 C 
ENDBRANCH  31  33
ENDBRANCH  25  27
ENDBRANCH  22  23
ENDBRANCH  20  22
ENDBRANCH   1  20
TORSDOF 7
