REMARK  Name = ZINC05626529
REMARK  3 active torsions:
REMARK  status: ('A' for Active; 'I' for Inactive)
REMARK    1  A    between atoms: C_11  and  C_13
REMARK    2  A    between atoms: C_19  and  C_21
REMARK    3  A    between atoms: N_23  and  C_24
REMARK                            x       y       z     vdW  Elec       q    Type
REMARK                         _______ _______ _______ _____ _____    ______ ____
ROOT
ATOM      1  C   UNL     1      -0.747   1.590  -1.236  0.00  0.00    +0.071 C 
ATOM      2  C   UNL     1      -0.013   1.086   0.008  0.00  0.00    +0.038 C 
ATOM      3  C   UNL     1      -0.710   1.567   1.247  0.00  0.00    -0.030 C 
ATOM      4  C   UNL     1      -1.560   2.540   1.271  0.00  0.00    -0.030 C 
ATOM      5  C   UNL     1      -1.983   3.316   0.058  0.00  0.00    +0.040 C 
ATOM      6  C   UNL     1      -0.985   3.097  -1.081  0.00  0.00    +0.089 C 
ENDROOT
BRANCH   1  17
ATOM      7  C   UNL     1       3.219   1.714  -6.245  0.00  0.00    +0.001 A 
ATOM      8  C   UNL     1       3.244   2.932  -5.579  0.00  0.00    +0.002 A 
ATOM      9  C   UNL     1       2.466   3.142  -4.463  0.00  0.00    +0.028 A 
ATOM     10  C   UNL     1       1.641   2.118  -3.993  0.00  0.00    +0.078 A 
ATOM     11  C   UNL     1       1.618   0.880  -4.673  0.00  0.00    +0.065 A 
ATOM     12  C   UNL     1       2.414   0.689  -5.801  0.00  0.00    +0.015 A 
ATOM     13  C   UNL     1       0.739  -0.178  -4.152  0.00  0.00    +0.259 A 
ATOM     14  O   UNL     1       0.673  -1.267  -4.691  0.00  0.00    -0.267 OA
ATOM     15  N   UNL     1       0.011   0.106  -3.047  0.00  0.00    -0.310 N 
ATOM     16  H   UNL     1      -0.577  -0.569  -2.674  0.00  0.00    +0.170 HD
ATOM     17  C   UNL     1       0.091   1.328  -2.461  0.00  0.00    +0.114 A 
ATOM     18  N   UNL     1       0.858   2.281  -2.897  0.00  0.00    -0.233 NA
ENDBRANCH   1  17
BRANCH   6  19
ATOM     19  C   UNL     1      -1.549   3.655  -2.363  0.00  0.00    +0.217 C 
ATOM     20  O   UNL     1      -1.744   2.923  -3.309  0.00  0.00    -0.275 OA
ATOM     21  N   UNL     1      -1.838   4.968  -2.457  0.00  0.00    -0.312 N 
ATOM     22  H   UNL     1      -1.683   5.554  -1.699  0.00  0.00    +0.149 HD
BRANCH  21  23
ATOM     23  C   UNL     1      -2.386   5.511  -3.702  0.00  0.00    +0.073 C 
ATOM     24  C   UNL     1      -1.227   5.774  -4.685  0.00  0.00    +0.022 C 
ATOM     25  C   UNL     1      -1.788   5.831  -6.081  0.00  0.00    +0.002 C 
ATOM     26  C   UNL     1      -2.113   7.269  -6.527  0.00  0.00    +0.000 C 
ATOM     27  C   UNL     1      -2.779   8.103  -5.415  0.00  0.00    +0.000 C 
ATOM     28  C   UNL     1      -3.812   7.322  -4.649  0.00  0.00    +0.002 C 
ATOM     29  C   UNL     1      -3.141   6.718  -3.399  0.00  0.00    +0.022 C 
ENDBRANCH  21  23
ENDBRANCH   6  19
TORSDOF 3
