REMARK  Name = ZINC08588583
REMARK  10 active torsions:
REMARK  status: ('A' for Active; 'I' for Inactive)
REMARK    1  A    between atoms: C_1  and  C_2
REMARK    2  A    between atoms: C_2  and  C_3
REMARK    3  A    between atoms: C_9  and  C_14
REMARK    4  A    between atoms: C_20  and  C_23
REMARK    5  A    between atoms: N_25  and  C_26
REMARK    6  A    between atoms: C_26  and  C_27
REMARK    7  A    between atoms: C_27  and  C_28
REMARK    8  A    between atoms: C_31  and  O_34
REMARK    9  A    between atoms: O_34  and  C_35
REMARK   10  A    between atoms: C_35  and  C_36
REMARK                            x       y       z     vdW  Elec       q    Type
REMARK                         _______ _______ _______ _____ _____    ______ ____
ROOT
ATOM      1  C   UNL     1      -2.436  -2.726  -2.512  0.00  0.00    +0.191 C 
ATOM      2  C   UNL     1      -3.475  -2.635  -1.385  0.00  0.00    +0.159 C 
ATOM      3  N   UNL     1      -2.755  -2.759  -0.106  0.00  0.00    -0.248 N 
ATOM      4  C   UNL     1      -1.537  -2.071   0.028  0.00  0.00    +0.080 A 
ATOM      5  C   UNL     1      -0.962  -1.913   1.278  0.00  0.00    +0.030 A 
ATOM      6  C   UNL     1       0.238  -1.238   1.405  0.00  0.00    -0.048 A 
ATOM      7  C   UNL     1       0.863  -0.721   0.284  0.00  0.00    +0.007 A 
ATOM      8  C   UNL     1       0.293  -0.875  -0.965  0.00  0.00    +0.048 A 
ATOM      9  C   UNL     1      -0.911  -1.549  -1.101  0.00  0.00    +0.142 A 
ATOM     10  O   UNL     1      -1.467  -1.690  -2.334  0.00  0.00    -0.485 OA
ATOM     11  C   UNL     1       0.865  -1.064   2.764  0.00  0.00    +0.044 C 
ATOM     12  C   UNL     1      -3.248  -3.507   0.901  0.00  0.00    +0.309 C 
ATOM     13  O   UNL     1      -2.516  -3.876   1.799  0.00  0.00    -0.252 OA
ATOM     14  N   UNL     1      -4.553  -3.845   0.914  0.00  0.00    -0.285 N 
ATOM     15  C   UNL     1      -5.492  -3.240  -0.041  0.00  0.00    +0.110 C 
ATOM     16  C   UNL     1      -6.666  -2.637   0.738  0.00  0.00    +0.032 C 
ATOM     17  C   UNL     1      -7.285  -3.713   1.633  0.00  0.00    +0.078 C 
ATOM     18  C   UNL     1      -6.241  -4.205   2.638  0.00  0.00    +0.032 C 
ATOM     19  C   UNL     1      -5.062  -4.830   1.878  0.00  0.00    +0.110 C 
ENDROOT
BRANCH  17  20
ATOM     20  C   UNL     1      -8.461  -3.132   2.375  0.00  0.00    +0.216 C 
ATOM     21  O   UNL     1      -8.774  -1.972   2.204  0.00  0.00    -0.276 OA
ATOM     22  N   UNL     1      -9.166  -3.901   3.228  0.00  0.00    -0.315 N 
ATOM     23  H   UNL     1      -8.917  -4.828   3.365  0.00  0.00    +0.149 HD
BRANCH  22  24
ATOM     24  C   UNL     1     -10.310  -3.337   3.949  0.00  0.00    +0.109 C 
BRANCH  24  25
ATOM     25  C   UNL     1     -10.929  -4.411   4.845  0.00  0.00    +0.054 C 
BRANCH  25  26
ATOM     26  C   UNL     1     -12.106  -3.831   5.586  0.00  0.00    -0.046 A 
ATOM     27  C   UNL     1     -11.918  -3.232   6.818  0.00  0.00    +0.007 A 
ATOM     28  C   UNL     1     -12.995  -2.700   7.500  0.00  0.00    +0.046 A 
ATOM     29  C   UNL     1     -14.265  -2.765   6.948  0.00  0.00    +0.121 A 
ATOM     30  C   UNL     1     -14.451  -3.366   5.711  0.00  0.00    +0.046 A 
ATOM     31  C   UNL     1     -13.370  -3.892   5.031  0.00  0.00    +0.007 A 
BRANCH  29  32
ATOM     32  O   UNL     1     -15.326  -2.242   7.617  0.00  0.00    -0.492 OA
BRANCH  32  33
ATOM     33  C   UNL     1     -16.605  -2.346   6.988  0.00  0.00    +0.225 C 
ATOM     34  C   UNL     1     -17.668  -1.706   7.884  0.00  0.00    +0.048 C 
ENDBRANCH  32  33
ENDBRANCH  29  32
ENDBRANCH  25  26
ENDBRANCH  24  25
ENDBRANCH  22  24
ENDBRANCH  17  20
BRANCH   1  36
ATOM     35  C   UNL     1      -2.114  -2.759  -4.990  0.00  0.00    +0.007 C 
ATOM     36  C   UNL     1      -3.130  -2.551  -3.865  0.00  0.00    +0.043 C 
ENDBRANCH   1  36
TORSDOF 7
