REMARK  Name = ZINC18744552
REMARK  12 active torsions:
REMARK  status: ('A' for Active; 'I' for Inactive)
REMARK    1  A    between atoms: C_1  and  C_2
REMARK    2  A    between atoms: C_5  and  N_9
REMARK    3  A    between atoms: C_10  and  C_12
REMARK    4  A    between atoms: C_12  and  C_14
REMARK    5  A    between atoms: C_12  and  S_15
REMARK    6  A    between atoms: S_15  and  C_16
REMARK    7  A    between atoms: C_19  and  C_22
REMARK    8  A    between atoms: N_20  and  N_21
REMARK    9  A    between atoms: C_22  and  O_23
REMARK   10  A    between atoms: O_23  and  C_24
REMARK   11  A    between atoms: C_26  and  C_31
REMARK   12  A    between atoms: C_28  and  C_30
REMARK                            x       y       z     vdW  Elec       q    Type
REMARK                         _______ _______ _______ _____ _____    ______ ____
ROOT
ATOM      1  C   UNL     1       5.143  -3.164   1.006  0.00  0.00    +0.209 A 
ATOM      2  N   UNL     1       6.218  -2.487   0.674  0.00  0.00    -0.121 NA
ATOM      3  N   UNL     1       7.267  -3.191   0.910  0.00  0.00    -0.128 NA
ATOM      4  C   UNL     1       6.927  -4.350   1.401  0.00  0.00    +0.189 A 
ATOM      5  N   UNL     1       5.562  -4.372   1.485  0.00  0.00    -0.225 N 
ENDROOT
BRANCH   5   6
ATOM      6  N   UNL     1       4.781  -5.391   1.949  0.00  0.00    -0.295 N 
ATOM      7  H   UNL     1       4.529  -6.022   1.203  0.00  0.00    +0.163 HD
ATOM      8  H   UNL     1       5.239  -5.885   2.701  0.00  0.00    +0.163 HD
ENDBRANCH   5   6
BRANCH   1   9
ATOM      9  S   UNL     1       3.474  -2.615   0.865  0.00  0.00    -0.072 S 
BRANCH   9  10
ATOM     10  C   UNL     1       3.744  -0.964   0.175  0.00  0.00    +0.137 C 
ATOM     11  C   UNL     1       4.361  -1.088  -1.220  0.00  0.00    +0.029 C 
BRANCH  10  13
ATOM     12  N   UNL     1       2.403   1.106  -0.015  0.00  0.00    -0.284 N 
ATOM     13  C   UNL     1       2.427  -0.238   0.078  0.00  0.00    +0.230 C 
ATOM     14  O   UNL     1       1.388  -0.864   0.085  0.00  0.00    -0.274 OA
ATOM     15  H   UNL     1       3.233   1.602  -0.086  0.00  0.00    +0.155 HD
BRANCH  12  20
ATOM     16  C   UNL     1      -2.556   3.864   0.003  0.00  0.00    +0.044 C 
ATOM     17  C   UNL     1      -1.239   3.132  -0.001  0.00  0.00    -0.049 A 
ATOM     18  C   UNL     1      -1.141   1.892  -0.607  0.00  0.00    +0.005 A 
ATOM     19  C   UNL     1       0.064   1.216  -0.608  0.00  0.00    +0.024 A 
ATOM     20  C   UNL     1       1.179   1.786  -0.010  0.00  0.00    +0.047 A 
ATOM     21  C   UNL     1       1.079   3.034   0.593  0.00  0.00    +0.039 A 
ATOM     22  C   UNL     1      -0.130   3.703   0.595  0.00  0.00    +0.020 A 
ATOM     23 BR   UNL     1       2.595   3.816   1.409  0.00  0.00    -0.048 Br
ENDBRANCH  12  20
ENDBRANCH  10  13
ENDBRANCH   9  10
ENDBRANCH   1   9
BRANCH   4  24
ATOM     24  C   UNL     1       7.865  -5.457   1.806  0.00  0.00    +0.306 C 
BRANCH  24  25
ATOM     25  O   UNL     1       8.225  -5.297   3.180  0.00  0.00    -0.484 OA
BRANCH  25  26
ATOM     26  C   UNL     1       9.072  -6.220   3.708  0.00  0.00    +0.122 A 
ATOM     27  C   UNL     1       9.542  -7.261   2.921  0.00  0.00    +0.049 A 
ATOM     28  C   UNL     1      10.408  -8.195   3.458  0.00  0.00    -0.047 A 
ATOM     29  C   UNL     1      10.795  -8.099   4.781  0.00  0.00    +0.007 A 
ATOM     30  C   UNL     1      10.323  -7.065   5.569  0.00  0.00    -0.047 A 
ATOM     31  C   UNL     1       9.463  -6.126   5.035  0.00  0.00    +0.049 A 
ATOM     32  C   UNL     1      10.749  -6.963   7.011  0.00  0.00    +0.044 C 
ATOM     33  C   UNL     1      10.925  -9.322   2.602  0.00  0.00    +0.044 C 
ENDBRANCH  25  26
ENDBRANCH  24  25
ENDBRANCH   4  24
TORSDOF 8
