REMARK  Name = ZINC36342140
REMARK  17 active torsions:
REMARK  status: ('A' for Active; 'I' for Inactive)
REMARK    1  A    between atoms: C_1  and  C_2
REMARK    2  A    between atoms: C_3  and  C_20
REMARK    3  A    between atoms: C_4  and  O_13
REMARK    4  A    between atoms: N_5  and  C_7
REMARK    5  A    between atoms: O_13  and  C_14
REMARK    6  A    between atoms: C_20  and  N_21
REMARK    7  A    between atoms: N_21  and  C_22
REMARK    8  A    between atoms: N_21  and  C_29
REMARK    9  A    between atoms: C_22  and  C_23
REMARK   10  A    between atoms: C_29  and  C_30
REMARK   11  A    between atoms: C_30  and  C_32
REMARK   12  A    between atoms: C_30  and  O_38
REMARK   13  A    between atoms: C_32  and  O_33
REMARK   14  A    between atoms: O_33  and  C_34
REMARK   15  A    between atoms: C_34  and  C_35
REMARK   16  A    between atoms: C_35  and  C_36
REMARK   17  A    between atoms: C_35  and  C_37
REMARK                            x       y       z     vdW  Elec       q    Type
REMARK                         _______ _______ _______ _____ _____    ______ ____
ROOT
ATOM      1  C   UNL     1      -0.045  -1.074  -2.769  0.00  0.00    -0.035 C 
ENDROOT
BRANCH   1   4
ATOM      2  C   UNL     1       0.727  -4.118  -3.172  0.00  0.00    +0.068 C 
ATOM      3  C   UNL     1      -0.337  -3.369  -3.932  0.00  0.00    +0.065 A 
ATOM      4  C   UNL     1      -0.676  -2.024  -3.753  0.00  0.00    +0.021 A 
ATOM      5  C   UNL     1      -1.677  -1.726  -4.624  0.00  0.00    +0.225 A 
ATOM      6  N   UNL     1      -1.956  -2.856  -5.328  0.00  0.00    -0.200 N 
ATOM      7  N   UNL     1      -1.096  -3.865  -4.876  0.00  0.00    -0.168 NA
BRANCH   6   8
ATOM      8  C   UNL     1      -2.926  -2.986  -6.332  0.00  0.00    +0.069 A 
ATOM      9  C   UNL     1      -4.180  -2.415  -6.164  0.00  0.00    +0.028 A 
ATOM     10  C   UNL     1      -5.134  -2.544  -7.155  0.00  0.00    +0.002 A 
ATOM     11  C   UNL     1      -4.841  -3.242  -8.312  0.00  0.00    +0.000 A 
ATOM     12  C   UNL     1      -3.592  -3.812  -8.481  0.00  0.00    +0.002 A 
ATOM     13  C   UNL     1      -2.632  -3.681  -7.497  0.00  0.00    +0.028 A 
ENDBRANCH   6   8
BRANCH   5  14
ATOM     14  O   UNL     1      -2.288  -0.522  -4.763  0.00  0.00    -0.438 OA
BRANCH  14  15
ATOM     15  C   UNL     1      -3.338  -0.240  -3.948  0.00  0.00    +0.130 A 
ATOM     16  C   UNL     1      -3.683  -1.120  -2.931  0.00  0.00    +0.046 A 
ATOM     17  C   UNL     1      -4.751  -0.831  -2.103  0.00  0.00    +0.004 A 
ATOM     18  C   UNL     1      -5.475   0.333  -2.287  0.00  0.00    +0.000 A 
ATOM     19  C   UNL     1      -5.133   1.210  -3.299  0.00  0.00    +0.004 A 
ATOM     20  C   UNL     1      -4.062   0.929  -4.126  0.00  0.00    +0.046 A 
ENDBRANCH  14  15
ENDBRANCH   5  14
ENDBRANCH   1   4
BRANCH   1  21
ATOM     21  N   UNL     1       1.194  -0.529  -3.340  0.00  0.00    +0.387 N 
ATOM     22  H   UNL     1       1.814  -1.287  -3.584  0.00  0.00    -0.081 HD
BRANCH  21  23
ATOM     23  C   UNL     1       1.849   0.339  -2.352  0.00  0.00    -0.042 C 
BRANCH  23  24
ATOM     24  C   UNL     1       2.173  -0.461  -1.116  0.00  0.00    -0.064 A 
ATOM     25  C   UNL     1       1.280  -0.495  -0.061  0.00  0.00    +0.002 A 
ATOM     26  C   UNL     1       1.578  -1.230   1.072  0.00  0.00    +0.000 A 
ATOM     27  C   UNL     1       2.767  -1.930   1.150  0.00  0.00    +0.000 A 
ATOM     28  C   UNL     1       3.659  -1.896   0.094  0.00  0.00    +0.000 A 
ATOM     29  C   UNL     1       3.360  -1.166  -1.041  0.00  0.00    +0.002 A 
ENDBRANCH  23  24
ENDBRANCH  21  23
BRANCH  21  30
ATOM     30  C   UNL     1       0.877   0.251  -4.543  0.00  0.00    -0.044 C 
BRANCH  30  31
ATOM     31  C   UNL     1       2.174   0.635  -5.258  0.00  0.00    +0.124 C 
BRANCH  31  32
ATOM     32  O   UNL     1       2.895   1.579  -4.463  0.00  0.00    -0.391 OA
ATOM     33  H   UNL     1       2.411   2.398  -4.290  0.00  0.00    +0.210 HD
ENDBRANCH  31  32
BRANCH  31  34
ATOM     34  C   UNL     1       1.843   1.259  -6.615  0.00  0.00    +0.189 C 
BRANCH  34  35
ATOM     35  O   UNL     1       3.053   1.511  -7.332  0.00  0.00    -0.377 OA
BRANCH  35  36
ATOM     36  C   UNL     1       2.855   2.097  -8.620  0.00  0.00    +0.163 C 
BRANCH  36  37
ATOM     37  C   UNL     1       4.210   2.321  -9.293  0.00  0.00    +0.009 C 
ATOM     38  C   UNL     1       4.876   0.969  -9.561  0.00  0.00    +0.009 C 
ATOM     39  C   UNL     1       4.007   3.060 -10.617  0.00  0.00    +0.009 C 
ENDBRANCH  36  37
ENDBRANCH  35  36
ENDBRANCH  34  35
ENDBRANCH  31  34
ENDBRANCH  30  31
ENDBRANCH  21  30
ENDBRANCH   1  21
TORSDOF 14
