REMARK  Name = ZINC63541391
REMARK  6 active torsions:
REMARK  status: ('A' for Active; 'I' for Inactive)
REMARK    1  A    between atoms: C_4  and  C_7
REMARK    2  A    between atoms: N_19  and  C_20
REMARK    3  A    between atoms: C_23  and  C_26
REMARK    4  A    between atoms: N_28  and  C_29
REMARK    5  A    between atoms: C_29  and  C_30
REMARK    6  A    between atoms: C_30  and  C_31
REMARK                            x       y       z     vdW  Elec       q    Type
REMARK                         _______ _______ _______ _____ _____    ______ ____
ROOT
ATOM      1  C   UNL     1       3.262  -1.669   2.260  0.00  0.00    +0.030 A 
ATOM      2  C   UNL     1       3.299  -2.784   3.092  0.00  0.00    +0.024 A 
ATOM      3  C   UNL     1       2.974  -2.662   4.424  0.00  0.00    +0.015 A 
ATOM      4  C   UNL     1       2.608  -1.416   4.941  0.00  0.00    +0.037 A 
ATOM      5  C   UNL     1       2.572  -0.297   4.103  0.00  0.00    +0.015 A 
ATOM      6  C   UNL     1       2.904  -0.425   2.773  0.00  0.00    +0.024 A 
ENDROOT
BRANCH   1  16
ATOM      7  C   UNL     1       2.634  -1.870  -0.198  0.00  0.00    +0.104 C 
ATOM      8  C   UNL     1       3.440  -2.028  -1.500  0.00  0.00    +0.032 C 
ATOM      9  C   UNL     1       4.844  -2.476  -1.021  0.00  0.00    +0.011 C 
ATOM     10  C   UNL     1       4.968  -3.957  -1.095  0.00  0.00    +0.005 C 
ATOM     11  C   UNL     1       6.385  -4.486  -1.173  0.00  0.00    +0.000 C 
ATOM     12  C   UNL     1       7.026  -4.497   0.188  0.00  0.00    +0.000 C 
ATOM     13  C   UNL     1       7.157  -3.090   0.739  0.00  0.00    +0.002 C 
ATOM     14  C   UNL     1       5.907  -2.526   1.320  0.00  0.00    +0.023 C 
ATOM     15  C   UNL     1       4.952  -1.878   0.367  0.00  0.00    +0.077 C 
ATOM     16  N   UNL     1       3.591  -1.796   0.915  0.00  0.00    -0.319 N 
BRANCH   7  20
ATOM     17  C   UNL     1       0.059  -5.237   0.330  0.00  0.00    +0.000 A 
ATOM     18  C   UNL     1       1.372  -5.298   0.755  0.00  0.00    +0.000 A 
ATOM     19  C   UNL     1       2.206  -4.209   0.585  0.00  0.00    +0.005 A 
ATOM     20  C   UNL     1       1.726  -3.058  -0.012  0.00  0.00    -0.027 A 
ATOM     21  C   UNL     1       0.412  -2.997  -0.439  0.00  0.00    +0.005 A 
ATOM     22  C   UNL     1      -0.422  -4.086  -0.266  0.00  0.00    +0.000 A 
ENDBRANCH   7  20
ENDBRANCH   1  16
BRANCH   4  23
ATOM     23  C   UNL     1       2.259  -1.281   6.368  0.00  0.00    +0.244 C 
ATOM     24  O   UNL     1       2.289  -2.255   7.096  0.00  0.00    -0.270 OA
ATOM     25  N   UNL     1       1.906  -0.079   6.865  0.00  0.00    -0.311 N 
ATOM     26  H   UNL     1       1.881   0.698   6.284  0.00  0.00    +0.149 HD
BRANCH  25  27
ATOM     27  C   UNL     1       1.559   0.055   8.282  0.00  0.00    +0.109 C 
BRANCH  27  28
ATOM     28  C   UNL     1       1.199   1.511   8.584  0.00  0.00    +0.052 C 
BRANCH  28  29
ATOM     29  C   UNL     1       0.843   1.648  10.042  0.00  0.00    -0.040 C 
ATOM     30  C   UNL     1       1.664   2.026  11.048  0.00  0.00    -0.001 A 
ATOM     31  C   UNL     1       3.081   2.407  11.084  0.00  0.00    +0.010 A 
ATOM     32  C   UNL     1       3.640   2.743  12.269  0.00  0.00    +0.001 A 
ATOM     33  C   UNL     1       2.901   2.737  13.460  0.00  0.00    +0.002 A 
ATOM     34  C   UNL     1       1.595   2.399  13.507  0.00  0.00    +0.026 A 
ATOM     35  C   UNL     1       0.906   2.028  12.319  0.00  0.00    +0.043 A 
ATOM     36  N   UNL     1      -0.336   1.665  12.107  0.00  0.00    -0.380 N 
ATOM     37  C   UNL     1      -0.508   1.398  10.675  0.00  0.00    +0.144 C 
ATOM     38  H   UNL     1      -1.027   1.590  12.784  0.00  0.00    +0.160 HD
ENDBRANCH  28  29
ENDBRANCH  27  28
ENDBRANCH  25  27
ENDBRANCH   4  23
TORSDOF 6
