REMARK  Name = ZINC02350839
REMARK  10 active torsions:
REMARK  status: ('A' for Active; 'I' for Inactive)
REMARK    1  A    between atoms: C_1  and  N_2
REMARK    2  A    between atoms: N_11  and  C_25
REMARK    3  A    between atoms: N_14  and  C_15
REMARK    4  A    between atoms: N_14  and  C_18
REMARK    5  A    between atoms: C_15  and  C_16
REMARK    6  A    between atoms: C_16  and  O_17
REMARK    7  A    between atoms: C_18  and  C_19
REMARK    8  A    between atoms: C_25  and  C_26
REMARK    9  A    between atoms: C_26  and  S_27
REMARK   10  A    between atoms: S_27  and  C_28
REMARK                            x       y       z     vdW  Elec       q    Type
REMARK                         _______ _______ _______ _____ _____    ______ ____
ROOT
ATOM      1  C   UNL     1       8.657  -1.138   1.316  0.00  0.00    +0.155 C 
ATOM      2  N   UNL     1       8.611  -1.481  -0.107  0.00  0.00    -0.280 N 
ATOM      3  C   UNL     1       7.414  -1.402  -0.800  0.00  0.00    +0.170 A 
ATOM      4  C   UNL     1       7.398  -1.734  -2.150  0.00  0.00    +0.153 A 
ATOM      5  C   UNL     1       8.592  -2.139  -2.772  0.00  0.00    +0.280 A 
ATOM      6  O   UNL     1       8.602  -2.434  -3.954  0.00  0.00    -0.265 OA
ATOM      7  N   UNL     1       9.728  -2.197  -2.046  0.00  0.00    -0.273 N 
ATOM      8  H   UNL     1      10.579  -2.485  -2.485  0.00  0.00    +0.173 HD
ATOM      9  C   UNL     1       9.732  -1.874  -0.741  0.00  0.00    +0.331 A 
ATOM     10  O   UNL     1      10.774  -1.938  -0.117  0.00  0.00    -0.246 OA
ATOM     11  N   UNL     1       6.087  -1.570  -2.578  0.00  0.00    -0.305 N 
ATOM     12  C   UNL     1       5.374  -1.147  -1.500  0.00  0.00    +0.201 A 
ATOM     13  N   UNL     1       6.172  -1.056  -0.456  0.00  0.00    -0.196 NA
ATOM     14  N   UNL     1       4.027  -0.864  -1.499  0.00  0.00    -0.294 N 
ENDROOT
BRANCH  14  15
ATOM     15  C   UNL     1       3.312  -1.711  -0.536  0.00  0.00    +0.136 C 
BRANCH  15  16
ATOM     16  C   UNL     1       3.265  -3.149  -1.057  0.00  0.00    +0.174 C 
BRANCH  16  17
ATOM     17  O   UNL     1       4.590  -3.680  -1.110  0.00  0.00    -0.393 OA
ATOM     18  H   UNL     1       4.644  -4.563  -1.501  0.00  0.00    +0.209 HD
ENDBRANCH  16  17
ENDBRANCH  15  16
ENDBRANCH  14  15
BRANCH  14  19
ATOM     19  C   UNL     1       3.789   0.560  -1.227  0.00  0.00    +0.143 C 
BRANCH  19  20
ATOM     20  C   UNL     1       2.338   0.882  -1.474  0.00  0.00    -0.030 A 
ATOM     21  C   UNL     1       1.420   0.770  -0.446  0.00  0.00    +0.005 A 
ATOM     22  C   UNL     1       0.089   1.065  -0.673  0.00  0.00    +0.000 A 
ATOM     23  C   UNL     1      -0.325   1.473  -1.927  0.00  0.00    +0.000 A 
ATOM     24  C   UNL     1       0.593   1.586  -2.955  0.00  0.00    +0.000 A 
ATOM     25  C   UNL     1       1.924   1.290  -2.728  0.00  0.00    +0.005 A 
ENDBRANCH  19  20
ENDBRANCH  14  19
BRANCH  11  26
ATOM     26  C   UNL     1       5.572  -1.806  -3.929  0.00  0.00    +0.136 C 
BRANCH  26  27
ATOM     27  C   UNL     1       5.774  -0.548  -4.777  0.00  0.00    +0.098 C 
BRANCH  27  28
ATOM     28  S   UNL     1       5.138  -0.839  -6.447  0.00  0.00    -0.097 S 
BRANCH  28  29
ATOM     29  C   UNL     1       5.488   0.723  -7.184  0.00  0.00    +0.136 A 
ATOM     30  N   UNL     1       5.251   1.127  -8.412  0.00  0.00    -0.233 NA
ATOM     31  C   UNL     1       5.577   2.365  -8.844  0.00  0.00    +0.079 A 
ATOM     32  C   UNL     1       5.378   2.921 -10.128  0.00  0.00    +0.029 A 
ATOM     33  C   UNL     1       5.770   4.206 -10.403  0.00  0.00    +0.002 A 
ATOM     34  C   UNL     1       6.371   5.002  -9.439  0.00  0.00    +0.001 A 
ATOM     35  C   UNL     1       6.581   4.489  -8.172  0.00  0.00    +0.017 A 
ATOM     36  C   UNL     1       6.192   3.205  -7.888  0.00  0.00    +0.040 A 
ATOM     37  S   UNL     1       6.250   2.163  -6.449  0.00  0.00    -0.061 S 
ENDBRANCH  28  29
ENDBRANCH  27  28
ENDBRANCH  26  27
ENDBRANCH  11  26
TORSDOF 9
