REMARK  Name = ZINC63844054
REMARK  7 active torsions:
REMARK  status: ('A' for Active; 'I' for Inactive)
REMARK    1  A    between atoms: C_1  and  C_2
REMARK    2  A    between atoms: N_11  and  C_15
REMARK    3  A    between atoms: C_15  and  C_16
REMARK    4  A    between atoms: N_18  and  C_19
REMARK    5  A    between atoms: C_19  and  C_20
REMARK    6  A    between atoms: C_20  and  C_22
REMARK    7  A    between atoms: C_20  and  C_29
REMARK                            x       y       z     vdW  Elec       q    Type
REMARK                         _______ _______ _______ _____ _____    ______ ____
ROOT
ATOM      1  C   UNL     1       3.277   2.951   2.373  0.00  0.00    +0.231 C 
ATOM      2  O   UNL     1       2.353   3.293   1.666  0.00  0.00    -0.274 OA
ATOM      3  N   UNL     1       4.255   3.827   2.674  0.00  0.00    -0.313 N 
ATOM      4  H   UNL     1       4.995   3.554   3.240  0.00  0.00    +0.149 HD
ENDROOT
BRANCH   1   5
ATOM      5  C   UNL     1       3.332   1.546   2.915  0.00  0.00    +0.213 C 
BRANCH   5  15
ATOM      6  C   UNL     1      -0.019   1.526   0.010  0.00  0.00    +0.010 C 
ATOM      7  C   UNL     1       0.002  -0.004   0.002  0.00  0.00    +0.018 C 
ATOM      8  C   UNL     1       0.718  -0.497  -1.258  0.00  0.00    +0.006 C 
ATOM      9  C   UNL     1       0.756  -2.027  -1.256  0.00  0.00    +0.000 C 
ATOM     10  C   UNL     1       1.519  -2.517  -0.023  0.00  0.00    +0.003 C 
ATOM     11  C   UNL     1       0.807  -2.032   1.242  0.00  0.00    +0.035 C 
ATOM     12  C   UNL     1       0.739  -0.509   1.238  0.00  0.00    +0.115 C 
ATOM     13  C   UNL     1       2.128   0.083   1.303  0.00  0.00    +0.247 C 
ATOM     14  O   UNL     1       3.022  -0.055   0.496  0.00  0.00    -0.273 OA
ATOM     15  N   UNL     1       2.163   0.796   2.447  0.00  0.00    -0.215 N 
ATOM     16  C   UNL     1       0.998   0.734   3.103  0.00  0.00    +0.310 C 
ATOM     17  O   UNL     1       0.786   1.296   4.159  0.00  0.00    -0.252 OA
ATOM     18  N   UNL     1       0.086  -0.021   2.460  0.00  0.00    -0.285 N 
ATOM     19  H   UNL     1      -0.822  -0.205   2.747  0.00  0.00    +0.151 HD
ENDBRANCH   5  15
ENDBRANCH   1   5
BRANCH   3  20
ATOM     20  C   UNL     1       4.202   5.194   2.148  0.00  0.00    +0.116 C 
BRANCH  20  21
ATOM     21  C   UNL     1       5.423   5.976   2.636  0.00  0.00    +0.066 C 
BRANCH  21  22
ATOM     22  C   UNL     1       5.307   7.413   2.197  0.00  0.00    -0.033 C 
ATOM     23  C   UNL     1       5.272   8.506   2.993  0.00  0.00    -0.000 A 
ATOM     24  C   UNL     1       5.328   8.678   4.450  0.00  0.00    +0.010 A 
ATOM     25  C   UNL     1       5.269   9.926   4.966  0.00  0.00    +0.001 A 
ATOM     26  C   UNL     1       5.155  11.058   4.147  0.00  0.00    +0.002 A 
ATOM     27  C   UNL     1       5.098  10.981   2.800  0.00  0.00    +0.026 A 
ATOM     28  C   UNL     1       5.152   9.717   2.150  0.00  0.00    +0.043 A 
ATOM     29  N   UNL     1       5.115   9.386   0.882  0.00  0.00    -0.380 N 
ATOM     30  C   UNL     1       5.213   7.925   0.777  0.00  0.00    +0.145 C 
ATOM     31  H   UNL     1       5.040  10.003   0.138  0.00  0.00    +0.160 HD
ENDBRANCH  21  22
BRANCH  21  32
ATOM     32  C   UNL     1       6.674   5.372   2.052  0.00  0.00    -0.020 A 
ATOM     33  C   UNL     1       6.842   5.322   0.680  0.00  0.00    +0.006 A 
ATOM     34  C   UNL     1       7.989   4.767   0.144  0.00  0.00    +0.000 A 
ATOM     35  C   UNL     1       8.969   4.263   0.979  0.00  0.00    +0.001 A 
ATOM     36  C   UNL     1       8.802   4.312   2.350  0.00  0.00    +0.020 A 
ATOM     37  C   UNL     1       7.657   4.872   2.888  0.00  0.00    +0.045 A 
ATOM     38 CL   UNL     1       7.449   4.941   4.610  0.00  0.00    -0.083 Cl
ENDBRANCH  21  32
ENDBRANCH  20  21
ENDBRANCH   3  20
TORSDOF 6
