REMARK  Name = ZINC05082405
REMARK  9 active torsions:
REMARK  status: ('A' for Active; 'I' for Inactive)
REMARK    1  A    between atoms: C_1  and  C_2
REMARK    2  A    between atoms: C_2  and  C_3
REMARK    3  A    between atoms: C_2  and  C_4
REMARK    4  A    between atoms: C_4  and  C_5
REMARK    5  A    between atoms: C_5  and  S_6
REMARK    6  A    between atoms: S_6  and  C_7
REMARK    7  A    between atoms: C_12  and  N_16
REMARK    8  A    between atoms: C_13  and  N_15
REMARK    9  A    between atoms: C_17  and  C_19
REMARK                            x       y       z     vdW  Elec       q    Type
REMARK                         _______ _______ _______ _____ _____    ______ ____
ROOT
ATOM      1  C   UNL     1       1.136   2.045  -0.007  0.00  0.00    +0.171 A 
ATOM      2  N   UNL     1      -0.030   1.340   0.008  0.00  0.00    -0.300 N 
ATOM      3  H   UNL     1      -0.905   1.823   0.023  0.00  0.00    +0.171 HD
ATOM      4  C   UNL     1      -0.006  -0.009   0.004  0.00  0.00    +0.275 A 
ATOM      5  O   UNL     1      -1.046  -0.649   0.018  0.00  0.00    -0.266 OA
ATOM      6  C   UNL     1       1.234  -0.664  -0.017  0.00  0.00    +0.139 A 
ATOM      7  C   UNL     1       2.394   0.105  -0.032  0.00  0.00    +0.146 A 
ATOM      8  N   UNL     1       2.304   1.440  -0.027  0.00  0.00    -0.207 NA
ENDROOT
BRANCH   6   9
ATOM      9  N   UNL     1       1.304  -2.070  -0.022  0.00  0.00    -0.272 N 
ATOM     10  C   UNL     1       0.762  -2.776   0.990  0.00  0.00    +0.284 C 
ATOM     11  O   UNL     1       0.138  -2.204   1.865  0.00  0.00    -0.266 OA
ATOM     12  H   UNL     1       1.743  -2.531  -0.754  0.00  0.00    +0.155 HD
BRANCH  10  13
ATOM     13  C   UNL     1       0.924  -4.232   1.038  0.00  0.00    +0.191 A 
ATOM     14  C   UNL     1       0.434  -5.063   2.005  0.00  0.00    +0.056 A 
ATOM     15  C   UNL     1       0.820  -6.365   1.652  0.00  0.00    +0.058 A 
ATOM     16  C   UNL     1       1.529  -6.273   0.503  0.00  0.00    +0.171 A 
ATOM     17  O   UNL     1       1.589  -4.986   0.137  0.00  0.00    -0.444 OA
ATOM     18 BR   UNL     1       2.306  -7.722  -0.430  0.00  0.00    -0.008 Br
ENDBRANCH  10  13
ENDBRANCH   6   9
BRANCH   7  19
ATOM     19  N   UNL     1       3.634  -0.508  -0.052  0.00  0.00    -0.341 N 
ATOM     20  H   UNL     1       3.696  -1.476  -0.056  0.00  0.00    +0.144 HD
ATOM     21  H   UNL     1       4.441   0.029  -0.063  0.00  0.00    +0.144 HD
ENDBRANCH   7  19
BRANCH   1  22
ATOM     22  S   UNL     1       1.077   3.806  -0.002  0.00  0.00    -0.088 S 
BRANCH  22  23
ATOM     23  C   UNL     1       2.848   4.179  -0.028  0.00  0.00    +0.077 C 
BRANCH  23  24
ATOM     24  C   UNL     1       3.050   5.696  -0.026  0.00  0.00    +0.014 C 
BRANCH  24  26
ATOM     25  C   UNL     1       4.748   7.523  -0.173  0.00  0.00    +0.007 C 
ATOM     26  C   UNL     1       4.547   6.011  -0.048  0.00  0.00    -0.016 C 
ATOM     27  C   UNL     1       5.192   5.516   1.248  0.00  0.00    +0.007 C 
ENDBRANCH  24  26
ENDBRANCH  23  24
ENDBRANCH  22  23
ENDBRANCH   1  22
TORSDOF 7
