REMARK  Name = ZINC12803511
REMARK  9 active torsions:
REMARK  status: ('A' for Active; 'I' for Inactive)
REMARK    1  A    between atoms: C_1  and  C_2
REMARK    2  A    between atoms: C_4  and  C_32
REMARK    3  A    between atoms: C_5  and  C_9
REMARK    4  A    between atoms: C_6  and  C_8
REMARK    5  A    between atoms: N_14  and  C_15
REMARK    6  A    between atoms: C_15  and  C_17
REMARK    7  A    between atoms: C_17  and  N_18
REMARK    8  A    between atoms: N_21  and  S_24
REMARK    9  A    between atoms: S_24  and  C_27
REMARK                            x       y       z     vdW  Elec       q    Type
REMARK                         _______ _______ _______ _____ _____    ______ ____
ROOT
ATOM      1  C   UNL     1       1.857  -8.484   0.588  0.00  0.00    +0.252 C 
ATOM      2  O   UNL     1       0.781  -8.892   0.192  0.00  0.00    -0.272 OA
ENDROOT
BRANCH   1   8
ATOM      3  C   UNL     1       0.060  -4.252  -0.021  0.00  0.00    +0.055 A 
ATOM      4  C   UNL     1      -1.013  -4.973  -0.419  0.00  0.00    +0.074 A 
ATOM      5  S   UNL     1      -0.428  -6.645  -0.223  0.00  0.00    -0.060 S 
ATOM      6  C   UNL     1       1.120  -6.314   0.343  0.00  0.00    +0.163 A 
ATOM      7  N   UNL     1       1.165  -4.956   0.367  0.00  0.00    -0.335 N 
ATOM      8  N   UNL     1       2.077  -7.179   0.682  0.00  0.00    -0.155 NA
ATOM      9  H   UNL     1       1.967  -4.494   0.658  0.00  0.00    +0.168 HD
BRANCH   3  14
ATOM     10  C   UNL     1      -0.018   1.503   0.010  0.00  0.00    +0.044 C 
ATOM     11  C   UNL     1       0.002  -0.004   0.002  0.00  0.00    -0.050 A 
ATOM     12  C   UNL     1       0.006  -0.686  -1.202  0.00  0.00    +0.007 A 
ATOM     13  C   UNL     1       0.024  -2.066  -1.216  0.00  0.00    -0.041 A 
ATOM     14  C   UNL     1       0.040  -2.773  -0.013  0.00  0.00    +0.005 A 
ATOM     15  C   UNL     1       0.037  -2.079   1.197  0.00  0.00    -0.041 A 
ATOM     16  C   UNL     1       0.023  -0.699   1.198  0.00  0.00    +0.007 A 
ATOM     17  C   UNL     1       0.054  -2.834   2.501  0.00  0.00    +0.044 C 
ATOM     18  C   UNL     1       0.027  -2.807  -2.528  0.00  0.00    +0.044 C 
ENDBRANCH   3  14
ENDBRANCH   1   8
BRANCH   1  19
ATOM     19  C   UNL     1       2.939  -9.461   0.971  0.00  0.00    +0.182 C 
BRANCH  19  20
ATOM     20  N   UNL     1       2.450 -10.833   0.779  0.00  0.00    -0.291 NA
ATOM     21  C   UNL     1       2.207 -11.110  -0.643  0.00  0.00    +0.102 C 
ATOM     22  C   UNL     1       1.531 -12.479  -0.784  0.00  0.00    +0.125 C 
ATOM     23  N   UNL     1       2.353 -13.479  -0.087  0.00  0.00    -0.174 NA
ATOM     24  C   UNL     1       2.754 -13.206   1.302  0.00  0.00    +0.125 C 
ATOM     25  C   UNL     1       3.381 -11.809   1.361  0.00  0.00    +0.102 C 
BRANCH  23  26
ATOM     26  S   UNL     1       2.814 -14.878  -0.845  0.00  0.00    +0.067 S 
ATOM     27  O   UNL     1       3.074 -15.828   0.179  0.00  0.00    -0.152 OA
ATOM     28  O   UNL     1       1.867 -15.111  -1.878  0.00  0.00    -0.152 OA
BRANCH  26  29
ATOM     29  C   UNL     1       4.355 -14.557  -1.637  0.00  0.00    +0.143 A 
ATOM     30  C   UNL     1       5.612 -14.710  -1.153  0.00  0.00    +0.036 A 
ATOM     31  C   UNL     1       6.686 -14.393  -1.963  0.00  0.00    +0.010 A 
ATOM     32  C   UNL     1       6.450 -13.938  -3.218  0.00  0.00    +0.047 A 
ATOM     33  S   UNL     1       4.666 -13.954  -3.288  0.00  0.00    -0.077 S 
ENDBRANCH  26  29
ENDBRANCH  23  26
ENDBRANCH  19  20
ENDBRANCH   1  19
TORSDOF 6
