REMARK  Name = ZINC00002008
REMARK  4 active torsions:
REMARK  status: ('A' for Active; 'I' for Inactive)
REMARK    1  A    between atoms: C_3  and  S_8
REMARK    2  A    between atoms: C_6  and  N_7
REMARK    3  A    between atoms: S_8  and  C_11
REMARK    4  A    between atoms: C_14  and  N_17
REMARK                            x       y       z     vdW  Elec       q    Type
REMARK                         _______ _______ _______ _____ _____    ______ ____
ROOT
ATOM      1  S   UNL     1      -5.065   3.972   0.050  0.00  0.00    +0.042 S 
ATOM      2  O   UNL     1      -4.760   5.249  -0.495  0.00  0.00    -0.163 OA
ATOM      3  O   UNL     1      -6.067   3.128  -0.501  0.00  0.00    -0.163 OA
ENDROOT
BRANCH   1   6
ATOM      4  C   UNL     1      -5.379   5.569   3.722  0.00  0.00    +0.024 A 
ATOM      5  C   UNL     1      -5.040   5.359   2.400  0.00  0.00    +0.029 A 
ATOM      6  C   UNL     1      -5.499   4.236   1.737  0.00  0.00    +0.095 A 
ATOM      7  C   UNL     1      -6.303   3.322   2.393  0.00  0.00    +0.029 A 
ATOM      8  C   UNL     1      -6.641   3.522   3.717  0.00  0.00    +0.024 A 
ATOM      9  C   UNL     1      -6.182   4.650   4.386  0.00  0.00    +0.025 A 
BRANCH   9  10
ATOM     10  N   UNL     1      -6.527   4.859   5.724  0.00  0.00    -0.358 N 
ATOM     11  H   UNL     1      -6.205   5.647   6.190  0.00  0.00    +0.142 HD
ATOM     12  H   UNL     1      -7.087   4.216   6.186  0.00  0.00    +0.142 HD
ENDBRANCH   9  10
ENDBRANCH   1   6
BRANCH   1  13
ATOM     13  C   UNL     1      -3.565   3.048   0.036  0.00  0.00    +0.182 A 
ATOM     14  C   UNL     1      -3.616   1.666   0.029  0.00  0.00    +0.049 A 
ATOM     15  C   UNL     1      -2.433   0.945   0.019  0.00  0.00    +0.027 A 
ATOM     16  C   UNL     1      -1.230   1.648   0.017  0.00  0.00    +0.043 A 
ATOM     17  C   UNL     1      -1.261   3.036   0.030  0.00  0.00    +0.135 A 
ATOM     18  N   UNL     1      -2.410   3.683   0.034  0.00  0.00    -0.235 NA
BRANCH  16  19
ATOM     19  N   UNL     1      -0.011   0.966   0.007  0.00  0.00    -0.357 N 
ATOM     20  H   UNL     1       0.002  -0.004   0.002  0.00  0.00    +0.142 HD
ATOM     21  H   UNL     1       0.822   1.462   0.002  0.00  0.00    +0.142 HD
ENDBRANCH  16  19
ENDBRANCH   1  13
TORSDOF 4
