REMARK  Name = ZINC63941334
REMARK  11 active torsions:
REMARK  status: ('A' for Active; 'I' for Inactive)
REMARK    1  A    between atoms: C_1  and  C_2
REMARK    2  A    between atoms: C_2  and  C_3
REMARK    3  A    between atoms: C_3  and  C_4
REMARK    4  A    between atoms: C_4  and  C_5
REMARK    5  A    between atoms: C_9  and  N_12
REMARK    6  A    between atoms: C_13  and  C_15
REMARK    7  A    between atoms: N_20  and  C_22
REMARK    8  A    between atoms: C_22  and  C_23
REMARK    9  A    between atoms: C_23  and  C_24
REMARK   10  A    between atoms: C_27  and  O_33
REMARK   11  A    between atoms: O_33  and  C_34
REMARK                            x       y       z     vdW  Elec       q    Type
REMARK                         _______ _______ _______ _____ _____    ______ ____
ROOT
ATOM      1  C   UNL     1       6.340  -6.098   1.243  0.00  0.00    +0.101 C 
ATOM      2  C   UNL     1       5.438  -6.688   0.134  0.00  0.00    +0.110 C 
ATOM      3  C   UNL     1       6.121  -7.982  -0.251  0.00  0.00    +0.216 C 
ATOM      4  O   UNL     1       5.900  -8.609  -1.264  0.00  0.00    -0.276 OA
ATOM      5  N   UNL     1       7.009  -8.334   0.695  0.00  0.00    -0.300 N 
ATOM      6  C   UNL     1       7.029  -7.365   1.797  0.00  0.00    +0.121 C 
ENDROOT
BRANCH   1   8
ATOM      7  N   UNL     1       4.784  -4.332   2.004  0.00  0.00    -0.290 N 
ATOM      8  C   UNL     1       5.515  -5.423   2.308  0.00  0.00    +0.220 C 
ATOM      9  O   UNL     1       5.508  -5.862   3.438  0.00  0.00    -0.275 OA
ATOM     10  H   UNL     1       4.790  -3.981   1.099  0.00  0.00    +0.151 HD
BRANCH   7  14
ATOM     11  C   UNL     1       1.503  -2.548   2.473  0.00  0.00    +0.130 C 
ATOM     12  N   UNL     1       1.639  -4.038   2.457  0.00  0.00    -0.241 NA
ATOM     13  N   UNL     1       2.739  -4.448   3.321  0.00  0.00    -0.227 NA
ATOM     14  C   UNL     1       3.981  -3.676   3.039  0.00  0.00    +0.216 C 
ATOM     15  S   UNL     1       3.288  -2.080   2.430  0.00  0.00    -0.102 S 
ATOM     16  H   UNL     1       0.776  -4.483   2.733  0.00  0.00    +0.142 HD
ATOM     17  H   UNL     1       2.481  -4.374   4.294  0.00  0.00    +0.143 HD
BRANCH  11  18
ATOM     18  C   UNL     1       0.763  -2.041   1.233  0.00  0.00    +0.031 C 
BRANCH  18  19
ATOM     19  C   UNL     1       0.742  -0.511   1.242  0.00  0.00    +0.002 C 
BRANCH  19  21
ATOM     20  C   UNL     1      -0.019   1.526   0.010  0.00  0.00    +0.004 C 
ATOM     21  C   UNL     1       0.002  -0.004   0.002  0.00  0.00    -0.003 C 
ENDBRANCH  19  21
ENDBRANCH  18  19
ENDBRANCH  11  18
ENDBRANCH   7  14
ENDBRANCH   1   8
BRANCH   5  22
ATOM     22  C   UNL     1       7.850  -9.532   0.633  0.00  0.00    +0.112 C 
BRANCH  22  23
ATOM     23  C   UNL     1       9.167  -9.195  -0.069  0.00  0.00    +0.052 C 
BRANCH  23  24
ATOM     24  C   UNL     1      10.033 -10.427  -0.132  0.00  0.00    -0.040 C 
ATOM     25  C   UNL     1      10.131 -11.299  -1.161  0.00  0.00    +0.002 A 
ATOM     26  C   UNL     1       9.489 -11.361  -2.479  0.00  0.00    +0.055 A 
ATOM     27  C   UNL     1       9.790 -12.378  -3.321  0.00  0.00    +0.121 A 
ATOM     28  C   UNL     1      10.705 -13.389  -2.979  0.00  0.00    +0.047 A 
ATOM     29  C   UNL     1      11.346 -13.418  -1.792  0.00  0.00    +0.029 A 
ATOM     30  C   UNL     1      11.095 -12.365  -0.803  0.00  0.00    +0.043 A 
ATOM     31  N   UNL     1      11.573 -12.160   0.399  0.00  0.00    -0.380 N 
ATOM     32  C   UNL     1      10.971 -10.936   0.939  0.00  0.00    +0.144 C 
ATOM     33  H   UNL     1      12.219 -12.722   0.855  0.00  0.00    +0.160 HD
BRANCH  27  34
ATOM     34  O   UNL     1       9.187 -12.423  -4.538  0.00  0.00    -0.495 OA
ATOM     35  C   UNL     1       9.534 -13.513  -5.394  0.00  0.00    +0.277 C 
ENDBRANCH  27  34
ENDBRANCH  23  24
ENDBRANCH  22  23
ENDBRANCH   5  22
TORSDOF 9
