REMARK  Name = ZINC36740071
REMARK  8 active torsions:
REMARK  status: ('A' for Active; 'I' for Inactive)
REMARK    1  A    between atoms: C_1  and  C_2
REMARK    2  A    between atoms: C_2  and  C_3
REMARK    3  A    between atoms: C_3  and  N_4
REMARK    4  A    between atoms: C_5  and  C_33
REMARK    5  A    between atoms: C_6  and  C_9
REMARK    6  A    between atoms: C_9  and  N_10
REMARK    7  A    between atoms: C_28  and  C_31
REMARK    8  A    between atoms: C_31  and  O_32
REMARK                            x       y       z     vdW  Elec       q    Type
REMARK                         _______ _______ _______ _____ _____    ______ ____
ROOT
ATOM      1  N   UNL     1       1.870  -5.520   0.904  0.00  0.00    +0.389 N 
ATOM      2  C   UNL     1       2.631  -6.714   1.357  0.00  0.00    -0.062 C 
ATOM      3  C   UNL     1       1.895  -7.199   2.619  0.00  0.00    -0.016 C 
ATOM      4  C   UNL     1       0.472  -6.612   2.507  0.00  0.00    -0.012 C 
ATOM      5  C   UNL     1       0.452  -5.920   1.118  0.00  0.00    -0.034 C 
ATOM      6  C   UNL     1       0.154  -7.014   0.115  0.00  0.00    -0.021 A 
ATOM      7  C   UNL     1      -1.115  -7.146  -0.419  0.00  0.00    +0.118 A 
ATOM      8  N   UNL     1      -1.343  -8.120  -1.287  0.00  0.00    -0.223 NA
ATOM      9  C   UNL     1      -0.374  -8.954  -1.635  0.00  0.00    +0.218 A 
ATOM     10  N   UNL     1       0.851  -8.848  -1.140  0.00  0.00    -0.219 NA
ATOM     11  C   UNL     1       1.147  -7.891  -0.271  0.00  0.00    +0.046 A 
ATOM     12  C   UNL     1       2.564  -7.767   0.250  0.00  0.00    +0.040 C 
ATOM     13  N   UNL     1      -0.648  -9.964  -2.540  0.00  0.00    -0.299 N 
ATOM     14  C   UNL     1       0.400 -10.912  -2.944  0.00  0.00    +0.108 C 
ATOM     15  C   UNL     1      -0.110 -12.338  -2.714  0.00  0.00    +0.019 C 
ATOM     16  C   UNL     1      -1.442 -12.524  -3.445  0.00  0.00    +0.009 C 
ATOM     17  C   UNL     1      -2.475 -11.545  -2.882  0.00  0.00    +0.032 C 
ATOM     18  C   UNL     1      -1.994 -10.113  -3.110  0.00  0.00    +0.113 C 
ATOM     19  H   UNL     1       2.101  -4.714   1.466  0.00  0.00    -0.080 HD
ENDROOT
BRANCH   1  20
ATOM     20  C   UNL     1       2.125  -5.251  -0.517  0.00  0.00    -0.038 C 
BRANCH  20  23
ATOM     21  N   UNL     1       0.738  -1.962  -1.265  0.00  0.00    -0.268 N 
ATOM     22  C   UNL     1       1.696  -2.746  -0.728  0.00  0.00    +0.037 A 
ATOM     23  C   UNL     1       1.345  -4.035  -0.946  0.00  0.00    -0.024 A 
ATOM     24  C   UNL     1       0.131  -4.038  -1.639  0.00  0.00    +0.136 A 
ATOM     25  N   UNL     1      -0.237  -2.797  -1.826  0.00  0.00    -0.179 NA
ATOM     26  C   UNL     1       2.936  -2.272  -0.014  0.00  0.00    +0.065 C 
BRANCH  21  27
ATOM     27  C   UNL     1       0.718  -0.497  -1.257  0.00  0.00    +0.143 C 
BRANCH  27  29
ATOM     28  C   UNL     1      -0.019   1.526   0.010  0.00  0.00    +0.005 C 
ATOM     29  C   UNL     1       0.002  -0.004   0.002  0.00  0.00    +0.020 C 
ENDBRANCH  27  29
ENDBRANCH  21  27
ENDBRANCH  20  23
ENDBRANCH   1  20
BRANCH  17  30
ATOM     30  C   UNL     1      -3.815 -11.755  -3.590  0.00  0.00    +0.160 C 
BRANCH  30  31
ATOM     31  O   UNL     1      -4.808 -10.923  -2.986  0.00  0.00    -0.395 OA
ATOM     32  H   UNL     1      -5.685 -11.004  -3.385  0.00  0.00    +0.209 HD
ENDBRANCH  30  31
ENDBRANCH  17  30
TORSDOF 6
