REMARK  Name = ZINC09124229
REMARK  19 active torsions:
REMARK  status: ('A' for Active; 'I' for Inactive)
REMARK    1  A    between atoms: C_1  and  C_2
REMARK    2  A    between atoms: C_2  and  O_3
REMARK    3  A    between atoms: O_3  and  C_4
REMARK    4  A    between atoms: C_6  and  C_16
REMARK    5  A    between atoms: C_9  and  O_10
REMARK    6  A    between atoms: O_10  and  C_11
REMARK    7  A    between atoms: C_11  and  C_12
REMARK    8  A    between atoms: C_12  and  C_13
REMARK    9  A    between atoms: C_13  and  C_14
REMARK   10  A    between atoms: C_13  and  C_15
REMARK   11  A    between atoms: C_18  and  C_28
REMARK   12  A    between atoms: C_19  and  O_27
REMARK   13  A    between atoms: N_22  and  C_23
REMARK   14  A    between atoms: C_23  and  C_24
REMARK   15  A    between atoms: C_24  and  N_79
REMARK   16  A    between atoms: C_25  and  N_79
REMARK   17  A    between atoms: C_26  and  N_79
REMARK   18  A    between atoms: C_28  and  C_30
REMARK   19  A    between atoms: C_37  and  C_40
REMARK                            x       y       z     vdW  Elec       q    Type
REMARK                         _______ _______ _______ _____ _____    ______ ____
ROOT
ATOM      1  C   UNL     1      -0.211  -0.094   3.331  0.00  0.00    +0.144 C 
ATOM      2  C   UNL     1       1.030  -0.038   4.191  0.00  0.00    +0.071 C 
ATOM      3  C   UNL     1       1.663   1.119   3.889  0.00  0.00    +0.188 C 
ATOM      4  C   UNL     1       0.893   1.837   2.851  0.00  0.00    +0.282 C 
ATOM      5  O   UNL     1       1.203   2.909   2.369  0.00  0.00    -0.267 OA
ATOM      6  N   UNL     1      -0.202   1.129   2.519  0.00  0.00    -0.285 N 
ENDROOT
BRANCH   1   9
ATOM      7  C   UNL     1      -3.260  -1.360   5.168  0.00  0.00    +0.162 A 
ATOM      8  C   UNL     1      -2.126  -1.323   4.373  0.00  0.00    +0.055 A 
ATOM      9  C   UNL     1      -1.444  -0.133   4.196  0.00  0.00    -0.019 A 
ATOM     10  C   UNL     1      -1.888   1.020   4.816  0.00  0.00    +0.009 A 
ATOM     11  C   UNL     1      -3.022   0.991   5.606  0.00  0.00    +0.050 A 
ATOM     12  C   UNL     1      -3.710  -0.198   5.787  0.00  0.00    +0.162 A 
BRANCH   7  13
ATOM     13  O   UNL     1      -3.931  -2.530   5.343  0.00  0.00    -0.489 OA
BRANCH  13  15
ATOM     14  C   UNL     1      -4.177  -4.928   5.168  0.00  0.00    +0.048 C 
ATOM     15  C   UNL     1      -3.349  -3.704   4.772  0.00  0.00    +0.226 C 
ENDBRANCH  13  15
ENDBRANCH   7  13
BRANCH  12  16
ATOM     16  O   UNL     1      -4.822  -0.230   6.569  0.00  0.00    -0.488 OA
BRANCH  16  17
ATOM     17  C   UNL     1      -5.226   1.000   7.173  0.00  0.00    +0.229 C 
BRANCH  17  18
ATOM     18  C   UNL     1      -6.486   0.769   8.009  0.00  0.00    +0.044 C 
BRANCH  18  19
ATOM     19  C   UNL     1      -6.919   2.086   8.656  0.00  0.00    -0.014 C 
ATOM     20  C   UNL     1      -7.332   3.078   7.566  0.00  0.00    +0.007 C 
ATOM     21  C   UNL     1      -8.104   1.831   9.590  0.00  0.00    +0.007 C 
ENDBRANCH  18  19
ENDBRANCH  17  18
ENDBRANCH  16  17
ENDBRANCH  12  16
ENDBRANCH   1   9
BRANCH   3  22
ATOM     22  O   UNL     1       2.817   1.550   4.447  0.00  0.00    -0.502 OA
ATOM     23  H   UNL     1       3.071   2.432   4.049  0.00  0.00    +0.292 HD
ENDBRANCH   3  22
BRANCH   2  24
ATOM     24  C   UNL     1       1.461  -1.041   5.170  0.00  0.00    +0.195 C 
ATOM     25  O   UNL     1       1.481  -0.766   6.355  0.00  0.00    -0.287 OA
BRANCH  24  26
ATOM     26  C   UNL     1       1.872  -2.385   4.717  0.00  0.00    +0.023 A 
ATOM     27  C   UNL     1       1.919  -2.685   3.352  0.00  0.00    +0.015 A 
ATOM     28  C   UNL     1       2.304  -3.936   2.933  0.00  0.00    +0.046 A 
ATOM     29  C   UNL     1       2.640  -4.922   3.863  0.00  0.00    +0.124 A 
ATOM     30  C   UNL     1       2.592  -4.617   5.220  0.00  0.00    -0.002 A 
ATOM     31  C   UNL     1       2.213  -3.369   5.651  0.00  0.00    +0.019 A 
ATOM     32  C   UNL     1       3.021  -5.863   5.970  0.00  0.00    +0.083 C 
ATOM     33  C   UNL     1       3.674  -6.702   4.846  0.00  0.00    +0.175 C 
ATOM     34  O   UNL     1       3.024  -6.210   3.662  0.00  0.00    -0.488 OA
ATOM     35  C   UNL     1       3.385  -8.192   5.044  0.00  0.00    +0.052 C 
ENDBRANCH  24  26
ENDBRANCH   2  24
BRANCH   6  36
ATOM     36  C   UNL     1      -1.210   1.514   1.528  0.00  0.00    +0.090 C 
BRANCH  36  37
ATOM     37  C   UNL     1      -0.811   0.968   0.156  0.00  0.00    -0.060 C 
BRANCH  37  40
ATOM     38  C   UNL     1      -1.361   1.056  -2.200  0.00  0.00    -0.097 C 
ATOM     39  C   UNL     1      -3.107   0.699  -0.562  0.00  0.00    -0.097 C 
ATOM     40  N   UNL     1      -1.825   1.382  -0.836  0.00  0.00    +0.377 N 
ATOM     41  H   UNL     1      -1.966   2.396  -0.765  0.00  0.00    -0.083 HD
ENDBRANCH  37  40
ENDBRANCH  36  37
ENDBRANCH   6  36
TORSDOF 13
