REMARK  Name = ZINC12373386
REMARK  8 active torsions:
REMARK  status: ('A' for Active; 'I' for Inactive)
REMARK    1  A    between atoms: C_1  and  C_2
REMARK    2  A    between atoms: C_5  and  C_7
REMARK    3  A    between atoms: C_7  and  N_57
REMARK    4  A    between atoms: C_13  and  C_15
REMARK    5  A    between atoms: C_15  and  C_16
REMARK    6  A    between atoms: N_18  and  C_19
REMARK    7  A    between atoms: C_19  and  C_20
REMARK    8  A    between atoms: N_28  and  C_29
REMARK                            x       y       z     vdW  Elec       q    Type
REMARK                         _______ _______ _______ _____ _____    ______ ____
ROOT
ATOM      1  C   UNL     1       2.041   1.247  -2.900  0.00  0.00    -0.058 C 
ATOM      2  C   UNL     1       2.457  -0.223  -2.983  0.00  0.00    +0.085 C 
ATOM      3  N   UNL     1       2.351  -0.848  -1.667  0.00  0.00    -0.318 N 
ATOM      4  C   UNL     1       2.292  -0.145  -0.531  0.00  0.00    +0.200 C 
ATOM      5  O   UNL     1       2.236  -0.745   0.521  0.00  0.00    -0.278 OA
ATOM      6  C   UNL     1       2.293   1.357  -0.504  0.00  0.00    +0.029 C 
ATOM      7  H   UNL     1       2.317  -1.816  -1.616  0.00  0.00    +0.149 HD
ATOM      8  N   UNL     1       2.792   1.873  -1.793  0.00  0.00    +0.393 N 
ATOM      9  H   UNL     1       3.787   1.637  -1.886  0.00  0.00    -0.080 HD
ENDROOT
BRANCH   8  10
ATOM     10  C   UNL     1       2.639   3.345  -1.843  0.00  0.00    -0.002 C 
BRANCH  10  15
ATOM     11  C   UNL     1      -2.219   4.314  -2.791  0.00  0.00    +0.086 C 
ATOM     12  C   UNL     1      -0.916   4.149  -2.051  0.00  0.00    +0.102 A 
ATOM     13  C   UNL     1      -0.726   4.361  -0.736  0.00  0.00    +0.044 A 
ATOM     14  C   UNL     1       0.636   4.089  -0.471  0.00  0.00    +0.043 A 
ATOM     15  C   UNL     1       1.196   3.728  -1.639  0.00  0.00    +0.089 A 
ATOM     16  O   UNL     1       0.253   3.771  -2.594  0.00  0.00    -0.467 OA
ENDBRANCH  10  15
ENDBRANCH   8  10
BRANCH   6  17
ATOM     17  C   UNL     1       3.214   1.844   0.617  0.00  0.00    +0.089 C 
BRANCH  17  18
ATOM     18  C   UNL     1       4.619   1.364   0.357  0.00  0.00    +0.212 C 
ATOM     19  O   UNL     1       4.884   0.802  -0.684  0.00  0.00    -0.276 OA
ATOM     20  N   UNL     1       5.580   1.558   1.282  0.00  0.00    -0.311 N 
ATOM     21  H   UNL     1       5.367   2.008   2.115  0.00  0.00    +0.149 HD
BRANCH  20  22
ATOM     22  C   UNL     1       6.945   1.091   1.029  0.00  0.00    +0.139 C 
BRANCH  22  23
ATOM     23  C   UNL     1       7.818   1.430   2.210  0.00  0.00    -0.030 A 
ATOM     24  C   UNL     1       7.951   0.531   3.253  0.00  0.00    +0.007 A 
ATOM     25  C   UNL     1       8.751   0.836   4.335  0.00  0.00    +0.024 A 
ATOM     26  C   UNL     1       9.430   2.053   4.384  0.00  0.00    +0.033 A 
ATOM     27  C   UNL     1       9.286   2.950   3.333  0.00  0.00    -0.025 A 
ATOM     28  C   UNL     1       8.492   2.637   2.250  0.00  0.00    +0.010 A 
ATOM     29  C   UNL     1      10.115   4.178   3.650  0.00  0.00    +0.056 C 
ATOM     30  C   UNL     1      10.390   4.025   5.164  0.00  0.00    +0.109 C 
ATOM     31  N   UNL     1      10.289   2.563   5.365  0.00  0.00    -0.332 N 
ATOM     32  C   UNL     1       9.796   2.250   6.713  0.00  0.00    +0.129 C 
ENDBRANCH  22  23
ENDBRANCH  20  22
ENDBRANCH  17  18
ENDBRANCH   6  17
TORSDOF 6
