REMARK  Name = ZINC25443977
REMARK  7 active torsions:
REMARK  status: ('A' for Active; 'I' for Inactive)
REMARK    1  A    between atoms: C_1  and  N_2
REMARK    2  A    between atoms: N_2  and  C_3
REMARK    3  A    between atoms: N_2  and  C_4
REMARK    4  A    between atoms: C_4  and  C_11
REMARK    5  A    between atoms: C_11  and  N_12
REMARK    6  A    between atoms: C_13  and  C_15
REMARK    7  A    between atoms: C_15  and  C_16
REMARK                            x       y       z     vdW  Elec       q    Type
REMARK                         _______ _______ _______ _____ _____    ______ ____
ROOT
ATOM      1  N   UNL     1      -0.369   2.718  -4.867  0.00  0.00    -0.317 N 
ATOM      2  C   UNL     1      -1.332   2.662  -3.925  0.00  0.00    +0.215 C 
ATOM      3  O   UNL     1      -1.330   3.455  -3.008  0.00  0.00    -0.276 OA
ATOM      4  H   UNL     1      -0.371   1.999  -5.699  0.00  0.00    +0.149 HD
ENDROOT
BRANCH   1   5
ATOM      5  C   UNL     1       0.679   3.737  -4.782  0.00  0.00    +0.092 C 
BRANCH   5   6
ATOM      6  C   UNL     1       1.709   3.503  -5.889  0.00  0.00    -0.050 C 
ATOM      7  C   UNL     1       3.088   3.802  -5.368  0.00  0.00    -0.010 C 
ATOM      8  C   UNL     1       3.072   4.804  -4.198  0.00  0.00    -0.001 C 
ATOM      9  C   UNL     1       2.085   5.966  -4.419  0.00  0.00    -0.000 C 
ATOM     10  C   UNL     1       2.117   6.487  -5.830  0.00  0.00    -0.000 C 
ATOM     11  C   UNL     1       1.015   5.775  -6.641  0.00  0.00    -0.001 C 
ATOM     12  C   UNL     1       1.418   4.445  -7.075  0.00  0.00    -0.010 C 
BRANCH   6  14
ATOM     13  C   UNL     1       2.541   1.875  -7.477  0.00  0.00    -0.096 C 
ATOM     14  N   UNL     1       1.640   2.107  -6.340  0.00  0.00    +0.381 N 
ATOM     15  C   UNL     1       1.935   1.182  -5.237  0.00  0.00    -0.096 C 
ATOM     16  H   UNL     1       0.611   1.911  -6.679  0.00  0.00    -0.082 HD
ENDBRANCH   6  14
ENDBRANCH   5   6
ENDBRANCH   1   5
BRANCH   2  17
ATOM     17  C   UNL     1      -2.411   1.613  -4.013  0.00  0.00    +0.119 C 
BRANCH  17  18
ATOM     18  C   UNL     1      -3.370   1.769  -2.831  0.00  0.00    +0.146 C 
ATOM     19  C   UNL     1      -4.394   0.663  -2.860  0.00  0.00    +0.231 C 
ATOM     20  O   UNL     1      -4.220  -0.304  -2.149  0.00  0.00    -0.274 OA
ATOM     21  N   UNL     1      -5.478   0.697  -3.628  0.00  0.00    -0.284 N 
ATOM     22  C   UNL     1      -5.904   1.762  -4.416  0.00  0.00    +0.048 A 
ATOM     23  C   UNL     1      -6.838   1.531  -5.422  0.00  0.00    +0.044 A 
ATOM     24  C   UNL     1      -7.269   2.570  -6.224  0.00  0.00    +0.043 A 
ATOM     25  C   UNL     1      -6.777   3.850  -6.039  0.00  0.00    +0.021 A 
ATOM     26  C   UNL     1      -5.851   4.094  -5.041  0.00  0.00    +0.018 A 
ATOM     27  C   UNL     1      -5.418   3.056  -4.233  0.00  0.00    +0.030 A 
ATOM     28  S   UNL     1      -4.239   3.362  -2.953  0.00  0.00    -0.110 S 
ATOM     29 CL   UNL     1      -8.435   2.267  -7.475  0.00  0.00    -0.083 Cl
ATOM     30  H   UNL     1      -6.141  -0.179  -3.682  0.00  0.00    +0.155 HD
ENDBRANCH  17  18
ENDBRANCH   2  17
TORSDOF 5
