REMARK  Name = ZINC47138939
REMARK  6 active torsions:
REMARK  status: ('A' for Active; 'I' for Inactive)
REMARK    1  A    between atoms: C_5  and  C_7
REMARK    2  A    between atoms: N_8  and  N_9
REMARK    3  A    between atoms: N_11  and  C_25
REMARK    4  A    between atoms: C_15  and  C_16
REMARK    5  A    between atoms: C_21  and  O_22
REMARK    6  A    between atoms: C_25  and  C_26
REMARK                            x       y       z     vdW  Elec       q    Type
REMARK                         _______ _______ _______ _____ _____    ______ ____
ROOT
ATOM      1  N   UNL     1       3.592  -2.022  -1.423  0.00  0.00    -0.126 NA
ATOM      2  C   UNL     1       4.722  -2.681  -1.250  0.00  0.00    +0.190 C 
ATOM      3  N   UNL     1       4.945  -4.037  -1.342  0.00  0.00    -0.237 N 
ATOM      4  C   UNL     1       6.151  -4.537  -1.136  0.00  0.00    +0.259 C 
ATOM      5  O   UNL     1       6.366  -5.733  -1.212  0.00  0.00    -0.269 OA
ATOM      6  C   UNL     1       7.225  -3.580  -0.808  0.00  0.00    +0.078 C 
ATOM      7  C   UNL     1       8.539  -3.813  -0.552  0.00  0.00    +0.032 C 
ATOM      8  S   UNL     1       6.335  -2.031  -0.848  0.00  0.00    -0.047 S 
ENDROOT
BRANCH   7   9
ATOM      9  C   UNL     1       9.466  -2.687  -0.393  0.00  0.00    +0.019 A 
ATOM     10  C   UNL     1       9.118  -1.416  -0.865  0.00  0.00    +0.031 A 
ATOM     11  C   UNL     1       9.995  -0.363  -0.711  0.00  0.00    +0.042 A 
ATOM     12  C   UNL     1      11.221  -0.558  -0.092  0.00  0.00    +0.023 A 
ATOM     13  C   UNL     1      11.576  -1.808   0.378  0.00  0.00    +0.047 A 
ATOM     14  C   UNL     1      10.707  -2.877   0.238  0.00  0.00    +0.124 A 
ATOM     15 CL   UNL     1       9.564   1.213  -1.296  0.00  0.00    -0.084 Cl
BRANCH  14  16
ATOM     16  O   UNL     1      11.054  -4.104   0.704  0.00  0.00    -0.506 OA
ATOM     17  H   UNL     1      11.522  -4.652   0.059  0.00  0.00    +0.292 HD
ENDBRANCH  14  16
ENDBRANCH   7   9
BRANCH   1  19
ATOM     18  C   UNL     1       1.392  -2.009  -1.885  0.00  0.00    +0.145 C 
ATOM     19  N   UNL     1       2.510  -2.662  -1.714  0.00  0.00    -0.155 NA
BRANCH  18  24
ATOM     20  C   UNL     1       2.329   1.537  -1.104  0.00  0.00    +0.001 A 
ATOM     21  C   UNL     1       1.381   2.233  -1.834  0.00  0.00    +0.003 A 
ATOM     22  C   UNL     1       0.436   1.554  -2.581  0.00  0.00    +0.039 A 
ATOM     23  C   UNL     1       0.431   0.172  -2.604  0.00  0.00    +0.132 A 
ATOM     24  C   UNL     1       1.388  -0.538  -1.868  0.00  0.00    +0.030 A 
ATOM     25  C   UNL     1       2.340   0.158  -1.116  0.00  0.00    +0.012 A 
ATOM     26  F   UNL     1      -0.492  -0.491  -3.333  0.00  0.00    -0.205 F 
ENDBRANCH  18  24
ENDBRANCH   1  19
BRANCH   3  27
ATOM     27  C   UNL     1       3.834  -4.934  -1.671  0.00  0.00    +0.190 C 
BRANCH  27  28
ATOM     28  C   UNL     1       3.748  -5.100  -3.166  0.00  0.00    +0.123 A 
ATOM     29  C   UNL     1       4.374  -6.046  -3.889  0.00  0.00    +0.046 A 
ATOM     30  C   UNL     1       4.016  -5.832  -5.240  0.00  0.00    +0.041 A 
ATOM     31  C   UNL     1       3.193  -4.768  -5.261  0.00  0.00    +0.195 A 
ATOM     32  O   UNL     1       3.030  -4.332  -4.002  0.00  0.00    -0.466 OA
ENDBRANCH  27  28
ENDBRANCH   3  27
TORSDOF 6
