REMARK  Name = ZINC39912527
REMARK  14 active torsions:
REMARK  status: ('A' for Active; 'I' for Inactive)
REMARK    1  A    between atoms: C_1  and  C_2
REMARK    2  A    between atoms: C_2  and  C_3
REMARK    3  A    between atoms: C_3  and  O_4
REMARK    4  A    between atoms: O_4  and  C_5
REMARK    5  A    between atoms: C_8  and  C_14
REMARK    6  A    between atoms: C_10  and  O_11
REMARK    7  A    between atoms: O_11  and  C_12
REMARK    8  A    between atoms: C_12  and  C_13
REMARK    9  A    between atoms: C_17  and  C_33
REMARK   10  A    between atoms: N_24  and  C_25
REMARK   11  A    between atoms: C_25  and  C_26
REMARK   12  A    between atoms: C_35  and  C_41
REMARK   13  A    between atoms: C_37  and  C_40
REMARK   14  A    between atoms: C_38  and  O_39
REMARK                            x       y       z     vdW  Elec       q    Type
REMARK                         _______ _______ _______ _____ _____    ______ ____
ROOT
ATOM      1  C   UNL     1       2.420  -4.265  -6.003  0.00  0.00    +0.142 C 
ATOM      2  C   UNL     1       1.314  -4.237  -7.022  0.00  0.00    +0.035 A 
ATOM      3  C   UNL     1       0.014  -4.626  -7.363  0.00  0.00    +0.102 A 
ATOM      4  N   UNL     1      -0.240  -4.144  -8.563  0.00  0.00    -0.173 NA
ATOM      5  N   UNL     1       0.770  -3.488  -9.014  0.00  0.00    -0.272 N 
ATOM      6  H   UNL     1       0.807  -3.046  -9.876  0.00  0.00    +0.189 HD
ATOM      7  C   UNL     1       1.782  -3.506  -8.097  0.00  0.00    +0.126 A 
ATOM      8  C   UNL     1       3.150  -3.065  -7.801  0.00  0.00    +0.266 C 
ATOM      9  O   UNL     1       3.842  -2.400  -8.548  0.00  0.00    -0.268 OA
ATOM     10  N   UNL     1       3.531  -3.502  -6.585  0.00  0.00    -0.281 N 
ENDROOT
BRANCH   3  11
ATOM     11  C   UNL     1      -0.908  -5.434  -6.527  0.00  0.00    +0.044 A 
ATOM     12  C   UNL     1      -0.463  -5.989  -5.330  0.00  0.00    +0.017 A 
ATOM     13  C   UNL     1      -1.325  -6.740  -4.556  0.00  0.00    -0.049 A 
ATOM     14  C   UNL     1      -2.631  -6.944  -4.966  0.00  0.00    +0.010 A 
ATOM     15  C   UNL     1      -3.083  -6.398  -6.152  0.00  0.00    -0.008 A 
ATOM     16  C   UNL     1      -2.230  -5.637  -6.935  0.00  0.00    +0.129 A 
ATOM     17  C   UNL     1      -4.506  -6.625  -6.591  0.00  0.00    +0.047 C 
ATOM     18  C   UNL     1      -0.842  -7.341  -3.261  0.00  0.00    +0.044 C 
BRANCH  16  19
ATOM     19  O   UNL     1      -2.675  -5.094  -8.099  0.00  0.00    -0.506 OA
ATOM     20  H   UNL     1      -2.557  -5.666  -8.870  0.00  0.00    +0.292 HD
ENDBRANCH  16  19
ENDBRANCH   3  11
BRANCH   1  24
ATOM     21  C   UNL     1       1.119  -2.432  -2.364  0.00  0.00    +0.162 A 
ATOM     22  C   UNL     1       1.347  -3.798  -2.413  0.00  0.00    +0.050 A 
ATOM     23  C   UNL     1       1.767  -4.387  -3.590  0.00  0.00    +0.009 A 
ATOM     24  C   UNL     1       1.961  -3.617  -4.722  0.00  0.00    -0.019 A 
ATOM     25  C   UNL     1       1.737  -2.254  -4.680  0.00  0.00    +0.055 A 
ATOM     26  C   UNL     1       1.310  -1.657  -3.505  0.00  0.00    +0.162 A 
BRANCH  21  27
ATOM     27  O   UNL     1       0.705  -1.850  -1.207  0.00  0.00    -0.488 OA
BRANCH  27  28
ATOM     28  C   UNL     1       0.531  -2.707  -0.076  0.00  0.00    +0.229 C 
BRANCH  28  30
ATOM     29  C   UNL     1      -0.121  -2.797   2.334  0.00  0.00    +0.007 C 
ATOM     30  C   UNL     1       0.066  -1.880   1.124  0.00  0.00    +0.038 C 
ENDBRANCH  28  30
ENDBRANCH  27  28
ENDBRANCH  21  27
BRANCH  26  31
ATOM     31  O   UNL     1       1.082  -0.317  -3.464  0.00  0.00    -0.489 OA
BRANCH  31  32
ATOM     32  C   UNL     1       1.254   0.408  -4.684  0.00  0.00    +0.226 C 
ATOM     33  C   UNL     1       0.897   1.878  -4.458  0.00  0.00    +0.048 C 
ENDBRANCH  31  32
ENDBRANCH  26  31
ENDBRANCH   1  24
BRANCH  10  34
ATOM     34  C   UNL     1       4.830  -3.258  -5.952  0.00  0.00    +0.144 C 
BRANCH  34  35
ATOM     35  C   UNL     1       5.784  -4.364  -6.321  0.00  0.00    -0.030 A 
ATOM     36  C   UNL     1       5.867  -5.497  -5.533  0.00  0.00    +0.008 A 
ATOM     37  C   UNL     1       6.742  -6.512  -5.871  0.00  0.00    +0.038 A 
ATOM     38  C   UNL     1       7.536  -6.394  -6.999  0.00  0.00    +0.123 A 
ATOM     39  C   UNL     1       7.452  -5.259  -7.788  0.00  0.00    +0.038 A 
ATOM     40  C   UNL     1       6.573  -4.247  -7.451  0.00  0.00    +0.008 A 
ATOM     41  F   UNL     1       8.392  -7.385  -7.330  0.00  0.00    -0.205 F 
ENDBRANCH  34  35
ENDBRANCH  10  34
TORSDOF 10
