REMARK  Name = ZINC13500599
REMARK  12 active torsions:
REMARK  status: ('A' for Active; 'I' for Inactive)
REMARK    1  A    between atoms: C_1  and  C_2
REMARK    2  A    between atoms: C_4  and  C_37
REMARK    3  A    between atoms: C_9  and  C_14
REMARK    4  A    between atoms: C_14  and  N_72
REMARK    5  A    between atoms: C_15  and  N_72
REMARK    6  A    between atoms: C_21  and  C_23
REMARK    7  A    between atoms: C_21  and  C_34
REMARK    8  A    between atoms: C_21  and  N_72
REMARK    9  A    between atoms: N_27  and  C_28
REMARK   10  A    between atoms: C_28  and  C_29
REMARK   11  A    between atoms: C_34  and  C_35
REMARK   12  A    between atoms: C_34  and  C_36
REMARK                            x       y       z     vdW  Elec       q    Type
REMARK                         _______ _______ _______ _____ _____    ______ ____
ROOT
ATOM      1  N   UNL     1      -3.475   0.939  -1.164  0.00  0.00    +0.391 N 
ATOM      2  H   UNL     1      -2.645   0.843  -1.761  0.00  0.00    -0.080 HD
ENDROOT
BRANCH   1   3
ATOM      3  C   UNL     1      -4.306   2.050  -1.674  0.00  0.00    -0.067 C 
ATOM      4  C   UNL     1      -5.644   2.102  -0.934  0.00  0.00    -0.015 C 
ATOM      5  C   UNL     1      -6.486   3.256  -1.482  0.00  0.00    -0.002 C 
ATOM      6  C   UNL     1      -6.737   3.040  -2.975  0.00  0.00    -0.000 C 
ATOM      7  C   UNL     1      -5.399   2.988  -3.715  0.00  0.00    -0.002 C 
ATOM      8  C   UNL     1      -4.558   1.834  -3.167  0.00  0.00    -0.015 C 
ENDBRANCH   1   3
BRANCH   1   9
ATOM      9  C   UNL     1      -3.040   1.227   0.219  0.00  0.00    -0.036 C 
BRANCH   9  18
ATOM     10  C   UNL     1      -1.222   8.371   1.345  0.00  0.00    +0.044 C 
ATOM     11  C   UNL     1      -0.858   6.976   0.908  0.00  0.00    -0.050 A 
ATOM     12  C   UNL     1       0.427   6.710   0.453  0.00  0.00    +0.008 A 
ATOM     13  C   UNL     1       0.782   5.441   0.049  0.00  0.00    -0.026 A 
ATOM     14  C   UNL     1      -0.156   4.414   0.096  0.00  0.00    +0.052 A 
ATOM     15  C   UNL     1      -1.457   4.687   0.558  0.00  0.00    -0.001 A 
ATOM     16  C   UNL     1      -1.794   5.983   0.964  0.00  0.00    +0.013 A 
ATOM     17  C   UNL     1      -2.437   3.600   0.604  0.00  0.00    +0.017 A 
ATOM     18  C   UNL     1      -2.054   2.366   0.191  0.00  0.00    +0.001 A 
ATOM     19  C   UNL     1      -0.735   2.144  -0.258  0.00  0.00    +0.251 A 
ATOM     20  O   UNL     1      -0.411   1.026  -0.619  0.00  0.00    -0.268 OA
ATOM     21  N   UNL     1       0.172   3.136  -0.303  0.00  0.00    -0.322 N 
ATOM     22  H   UNL     1       1.069   2.950  -0.622  0.00  0.00    +0.169 HD
ATOM     23  C   UNL     1       2.180   5.167  -0.442  0.00  0.00    +0.046 C 
ENDBRANCH   9  18
ENDBRANCH   1   9
BRANCH   1  24
ATOM     24  C   UNL     1      -4.242  -0.323  -1.201  0.00  0.00    +0.006 C 
BRANCH  24  25
ATOM     25  C   UNL     1      -5.005  -0.512   0.085  0.00  0.00    +0.139 A 
ATOM     26  N   UNL     1      -4.520  -0.438   1.301  0.00  0.00    -0.115 NA
ATOM     27  N   UNL     1      -5.484  -0.656   2.127  0.00  0.00    -0.023 NA
ATOM     28  N   UNL     1      -6.570  -0.874   1.470  0.00  0.00    -0.044 NA
ATOM     29  N   UNL     1      -6.315  -0.794   0.208  0.00  0.00    -0.223 N 
BRANCH  29  30
ATOM     30  C   UNL     1      -7.272  -0.977  -0.886  0.00  0.00    +0.221 C 
BRANCH  30  31
ATOM     31  C   UNL     1      -7.404  -2.445  -1.199  0.00  0.00    +0.126 A 
ATOM     32  C   UNL     1      -8.339  -3.275  -0.702  0.00  0.00    +0.046 A 
ATOM     33  C   UNL     1      -8.092  -4.550  -1.259  0.00  0.00    +0.041 A 
ATOM     34  C   UNL     1      -7.016  -4.426  -2.057  0.00  0.00    +0.195 A 
ATOM     35  O   UNL     1      -6.603  -3.149  -2.016  0.00  0.00    -0.466 OA
ENDBRANCH  30  31
ENDBRANCH  29  30
ENDBRANCH  24  25
BRANCH  24  36
ATOM     36  C   UNL     1      -3.262  -1.484  -1.387  0.00  0.00    -0.024 C 
ATOM     37  C   UNL     1      -2.503  -1.304  -2.703  0.00  0.00    +0.006 C 
ATOM     38  C   UNL     1      -2.268  -1.503  -0.224  0.00  0.00    +0.006 C 
ENDBRANCH  24  36
ENDBRANCH   1  24
TORSDOF 8
