REMARK  Name = ZINC39965644
REMARK  12 active torsions:
REMARK  status: ('A' for Active; 'I' for Inactive)
REMARK    1  A    between atoms: C_1  and  C_2
REMARK    2  A    between atoms: C_2  and  N_3
REMARK    3  A    between atoms: C_4  and  C_25
REMARK    4  A    between atoms: C_7  and  S_8
REMARK    5  A    between atoms: S_8  and  C_9
REMARK    6  A    between atoms: C_9  and  C_10
REMARK    7  A    between atoms: N_12  and  C_13
REMARK    8  A    between atoms: C_14  and  C_23
REMARK    9  A    between atoms: C_15  and  C_22
REMARK   10  A    between atoms: C_16  and  C_18
REMARK   11  A    between atoms: C_18  and  O_20
REMARK   12  A    between atoms: O_20  and  C_21
REMARK                            x       y       z     vdW  Elec       q    Type
REMARK                         _______ _______ _______ _____ _____    ______ ____
ROOT
ATOM      1  S   UNL     1      -1.798  -0.361  -2.749  0.00  0.00    -0.077 S 
ENDROOT
BRANCH   1   6
ATOM      2  N   UNL     1      -1.378  -0.497   0.014  0.00  0.00    -0.302 N 
ATOM      3  C   UNL     1      -2.111  -0.889   1.110  0.00  0.00    +0.165 A 
ATOM      4  N   UNL     1      -3.279  -1.292   0.668  0.00  0.00    -0.128 NA
ATOM      5  N   UNL     1      -3.327  -1.181  -0.612  0.00  0.00    -0.122 NA
ATOM      6  C   UNL     1      -2.193  -0.694  -1.064  0.00  0.00    +0.192 A 
BRANCH   3   7
ATOM      7  C   UNL     1      -1.667  -0.862   2.520  0.00  0.00    +0.023 A 
ATOM      8  C   UNL     1      -2.320  -1.643   3.474  0.00  0.00    +0.015 A 
ATOM      9  C   UNL     1      -1.904  -1.617   4.789  0.00  0.00    +0.050 A 
ATOM     10  C   UNL     1      -0.836  -0.816   5.167  0.00  0.00    +0.166 A 
ATOM     11  C   UNL     1      -0.179  -0.033   4.218  0.00  0.00    +0.167 A 
ATOM     12  C   UNL     1      -0.589  -0.060   2.898  0.00  0.00    +0.061 A 
ATOM     13  O   UNL     1       0.824   0.654   4.839  0.00  0.00    -0.453 OA
ATOM     14  C   UNL     1       0.515   0.599   6.245  0.00  0.00    +0.466 C 
ATOM     15  O   UNL     1      -0.243  -0.617   6.381  0.00  0.00    -0.453 OA
ENDBRANCH   3   7
BRANCH   2  17
ATOM     16  C   UNL     1      -0.051   1.558   0.034  0.00  0.00    +0.027 C 
ATOM     17  C   UNL     1      -0.010   0.028   0.005  0.00  0.00    +0.122 C 
ENDBRANCH   2  17
ENDBRANCH   1   6
BRANCH   1  18
ATOM     18  C   UNL     1      -3.295  -0.838  -3.654  0.00  0.00    +0.173 C 
BRANCH  18  19
ATOM     19  C   UNL     1      -3.089  -0.600  -5.128  0.00  0.00    +0.228 C 
ATOM     20  O   UNL     1      -2.035  -0.153  -5.528  0.00  0.00    -0.275 OA
ATOM     21  N   UNL     1      -4.075  -0.885  -6.001  0.00  0.00    -0.278 N 
ATOM     22  H   UNL     1      -4.918  -1.242  -5.681  0.00  0.00    +0.155 HD
BRANCH  21  23
ATOM     23  C   UNL     1      -3.886  -0.667  -7.353  0.00  0.00    +0.090 A 
ATOM     24  C   UNL     1      -4.786  -0.894  -8.393  0.00  0.00    +0.084 A 
ATOM     25  C   UNL     1      -4.372  -0.597  -9.683  0.00  0.00    -0.010 A 
ATOM     26  C   UNL     1      -3.090  -0.099  -9.808  0.00  0.00    +0.102 A 
ATOM     27  S   UNL     1      -2.521  -0.060  -8.120  0.00  0.00    -0.065 S 
ATOM     28  C   UNL     1      -5.267  -0.806 -10.877  0.00  0.00    +0.046 C 
BRANCH  26  29
ATOM     29  C   UNL     1      -2.379   0.300 -11.021  0.00  0.00    +0.346 C 
ATOM     30  O   UNL     1      -2.926   0.211 -12.104  0.00  0.00    -0.244 OA
BRANCH  29  31
ATOM     31  O   UNL     1      -1.116   0.769 -10.941  0.00  0.00    -0.464 OA
ATOM     32  C   UNL     1      -0.483   1.141 -12.166  0.00  0.00    +0.280 C 
ENDBRANCH  29  31
ENDBRANCH  26  29
BRANCH  24  33
ATOM     33  C   UNL     1      -6.095  -1.417  -8.139  0.00  0.00    +0.102 C 
ATOM     34  N   UNL     1      -7.133  -1.831  -7.936  0.00  0.00    -0.191 NA
ENDBRANCH  24  33
ENDBRANCH  21  23
ENDBRANCH  18  19
ENDBRANCH   1  18
TORSDOF 9
