REMARK  Name = ZINC52607335
REMARK  10 active torsions:
REMARK  status: ('A' for Active; 'I' for Inactive)
REMARK    1  A    between atoms: C_1  and  C_2
REMARK    2  A    between atoms: C_6  and  S_12
REMARK    3  A    between atoms: C_9  and  C_11
REMARK    4  A    between atoms: S_12  and  C_14
REMARK    5  A    between atoms: C_14  and  C_15
REMARK    6  A    between atoms: C_17  and  O_21
REMARK    7  A    between atoms: O_21  and  C_22
REMARK    8  A    between atoms: C_22  and  C_23
REMARK    9  A    between atoms: C_23  and  C_24
REMARK   10  A    between atoms: C_24  and  C_25
REMARK                            x       y       z     vdW  Elec       q    Type
REMARK                         _______ _______ _______ _____ _____    ______ ____
ROOT
ATOM      1  C   UNL     1       0.854  -2.714  -6.771  0.00  0.00    +0.032 A 
ATOM      2  C   UNL     1       0.336  -1.832  -7.698  0.00  0.00    +0.067 A 
ATOM      3  C   UNL     1       0.497  -2.104  -9.055  0.00  0.00    +0.124 A 
ATOM      4  C   UNL     1       1.179  -3.263  -9.420  0.00  0.00    +0.063 A 
ATOM      5  C   UNL     1       1.667  -4.093  -8.432  0.00  0.00    +0.086 A 
ATOM      6  N   UNL     1       1.499  -3.799  -7.157  0.00  0.00    -0.363 N 
ATOM      7  H   UNL     1       1.856  -4.399  -6.483  0.00  0.00    +0.165 HD
ENDROOT
BRANCH   1   8
ATOM      8  C   UNL     1       0.686  -2.431  -5.301  0.00  0.00    +0.165 C 
BRANCH   8   9
ATOM      9  S   UNL     1       2.089  -1.443  -4.711  0.00  0.00    +0.097 S 
ATOM     10  O   UNL     1       3.266  -2.240  -4.718  0.00  0.00    -0.249 OA
BRANCH   9  15
ATOM     11  C   UNL     1      -0.019   1.526   0.010  0.00  0.00    +0.026 C 
ATOM     12  C   UNL     1       0.002  -0.004   0.002  0.00  0.00    +0.099 C 
ATOM     13  C   UNL     1       0.779  -0.534  -1.193  0.00  0.00    +0.083 C 
ATOM     14  N   UNL     1       0.723  -0.510  -2.518  0.00  0.00    -0.222 NA
ATOM     15  C   UNL     1       1.750  -1.199  -3.000  0.00  0.00    +0.220 C 
ATOM     16  N   UNL     1       2.471  -1.671  -2.018  0.00  0.00    -0.218 NA
ATOM     17  C   UNL     1       1.899  -1.278  -0.835  0.00  0.00    +0.098 C 
ATOM     18  C   UNL     1       2.191  -1.460   0.527  0.00  0.00    +0.010 C 
ATOM     19  S   UNL     1       1.001  -0.658   1.394  0.00  0.00    -0.118 S 
ATOM     20  C   UNL     1       3.352  -2.229   1.101  0.00  0.00    +0.053 C 
ENDBRANCH   9  15
ENDBRANCH   8   9
ENDBRANCH   1   8
BRANCH   3  21
ATOM     21  O   UNL     1       0.001  -1.262  -9.997  0.00  0.00    -0.486 OA
BRANCH  21  22
ATOM     22  C   UNL     1       0.213  -1.621 -11.364  0.00  0.00    +0.311 C 
BRANCH  22  23
ATOM     23  C   UNL     1      -0.411  -0.560 -12.272  0.00  0.00    +0.352 C 
ATOM     24  F   UNL     1      -0.203  -0.911 -13.610  0.00  0.00    -0.195 F 
ATOM     25  F   UNL     1      -1.784  -0.479 -12.019  0.00  0.00    -0.195 F 
BRANCH  23  26
ATOM     26  C   UNL     1       0.240   0.797 -11.994  0.00  0.00    +0.406 C 
ATOM     27  F   UNL     1       0.032   1.148 -10.656  0.00  0.00    -0.189 F 
ATOM     28  F   UNL     1       1.613   0.716 -12.247  0.00  0.00    -0.189 F 
BRANCH  26  29
ATOM     29  C   UNL     1      -0.385   1.858 -12.902  0.00  0.00    +0.460 C 
ATOM     30  F   UNL     1      -1.758   1.939 -12.649  0.00  0.00    -0.165 F 
ATOM     31  F   UNL     1       0.210   3.098 -12.648  0.00  0.00    -0.165 F 
ATOM     32  F   UNL     1      -0.177   1.507 -14.241  0.00  0.00    -0.165 F 
ENDBRANCH  26  29
ENDBRANCH  23  26
ENDBRANCH  22  23
ENDBRANCH  21  22
ENDBRANCH   3  21
TORSDOF 8
