REMARK  Name = ZINC04045964
REMARK  9 active torsions:
REMARK  status: ('A' for Active; 'I' for Inactive)
REMARK    1  A    between atoms: N_4  and  C_7
REMARK    2  A    between atoms: C_10  and  C_15
REMARK    3  A    between atoms: C_16  and  C_17
REMARK    4  A    between atoms: C_16  and  C_19
REMARK    5  A    between atoms: C_20  and  C_28
REMARK    6  A    between atoms: C_21  and  N_27
REMARK    7  A    between atoms: N_22  and  C_24
REMARK    8  A    between atoms: C_24  and  C_25
REMARK    9  A    between atoms: C_25  and  O_26
REMARK                            x       y       z     vdW  Elec       q    Type
REMARK                         _______ _______ _______ _____ _____    ______ ____
ROOT
ATOM      1  C   UNL     1       4.261  -0.675  -0.042  0.00  0.00    +0.035 C 
ATOM      2  C   UNL     1       3.617   0.528  -0.030  0.00  0.00    +0.081 C 
ENDROOT
BRANCH   1   6
ATOM      3  C   UNL     1       8.501  -0.811  -0.084  0.00  0.00    +0.107 A 
ATOM      4  C   UNL     1       7.792  -1.569   0.845  0.00  0.00    +0.183 A 
ATOM      5  C   UNL     1       6.413  -1.529   0.864  0.00  0.00    +0.170 A 
ATOM      6  C   UNL     1       5.724  -0.722  -0.056  0.00  0.00    +0.052 A 
ATOM      7  C   UNL     1       6.445   0.036  -0.993  0.00  0.00    +0.170 A 
ATOM      8  C   UNL     1       7.824  -0.009  -0.999  0.00  0.00    +0.183 A 
ATOM      9  F   UNL     1       8.518   0.724  -1.897  0.00  0.00    -0.200 F 
ATOM     10  F   UNL     1       5.789   0.811  -1.885  0.00  0.00    -0.202 F 
ATOM     11  F   UNL     1       5.726  -2.264   1.765  0.00  0.00    -0.202 F 
ATOM     12  F   UNL     1       8.456  -2.345   1.729  0.00  0.00    -0.200 F 
BRANCH   3  16
ATOM     13  C   UNL     1      12.560  -0.169  -0.972  0.00  0.00    +0.003 C 
ATOM     14  C   UNL     1      11.912  -1.511  -1.324  0.00  0.00    +0.019 C 
ATOM     15  C   UNL     1      10.393  -1.336  -1.393  0.00  0.00    +0.105 C 
ATOM     16  N   UNL     1       9.895  -0.856  -0.098  0.00  0.00    -0.325 N 
ATOM     17  C   UNL     1      10.467   0.454   0.239  0.00  0.00    +0.105 C 
ATOM     18  C   UNL     1      11.988   0.332   0.357  0.00  0.00    +0.019 C 
ENDBRANCH   3  16
ENDBRANCH   1   6
BRANCH   2  19
ATOM     19  C   UNL     1       2.138   0.575  -0.015  0.00  0.00    +0.122 A 
ATOM     20  C   UNL     1       1.304   1.783  -0.001  0.00  0.00    +0.119 A 
ATOM     21  C   UNL     1      -0.016   1.344   0.009  0.00  0.00    +0.133 A 
ATOM     22  N   UNL     1       0.002  -0.004   0.002  0.00  0.00    -0.247 N 
ATOM     23  N   UNL     1       1.324  -0.457  -0.013  0.00  0.00    -0.167 NA
BRANCH  21  24
ATOM     24  N   UNL     1      -1.142   2.145   0.019  0.00  0.00    -0.342 N 
ATOM     25  H   UNL     1      -2.024   1.741   0.021  0.00  0.00    +0.144 HD
ATOM     26  H   UNL     1      -1.051   3.110   0.024  0.00  0.00    +0.144 HD
ENDBRANCH  21  24
BRANCH  20  27
ATOM     27  C   UNL     1       1.759   3.141   0.002  0.00  0.00    +0.105 C 
ATOM     28  N   UNL     1       2.119   4.218   0.004  0.00  0.00    -0.191 NA
ENDBRANCH  20  27
BRANCH  22  29
ATOM     29  C   UNL     1      -1.184  -0.864   0.009  0.00  0.00    +0.173 C 
BRANCH  29  30
ATOM     30  C   UNL     1      -1.611  -1.155  -1.431  0.00  0.00    +0.179 C 
BRANCH  30  31
ATOM     31  O   UNL     1      -2.768  -1.994  -1.424  0.00  0.00    -0.393 OA
ATOM     32  H   UNL     1      -3.095  -2.220  -2.305  0.00  0.00    +0.209 HD
ENDBRANCH  30  31
ENDBRANCH  29  30
ENDBRANCH  22  29
ENDBRANCH   2  19
BRANCH   2  33
ATOM     33  C   UNL     1       4.372   1.744  -0.031  0.00  0.00    +0.101 C 
ATOM     34  N   UNL     1       4.971   2.709  -0.032  0.00  0.00    -0.191 NA
ENDBRANCH   2  33
TORSDOF 9
