REMARK  Name = ZINC16040526
REMARK  15 active torsions:
REMARK  status: ('A' for Active; 'I' for Inactive)
REMARK    1  A    between atoms: C_1  and  C_2
REMARK    2  A    between atoms: C_2  and  C_3
REMARK    3  A    between atoms: C_3  and  O_5
REMARK    4  A    between atoms: O_5  and  C_6
REMARK    5  A    between atoms: C_10  and  C_44
REMARK    6  A    between atoms: C_15  and  C_43
REMARK    7  A    between atoms: C_25  and  C_42
REMARK    8  A    between atoms: C_28  and  C_41
REMARK    9  A    between atoms: C_29  and  C_31
REMARK   10  A    between atoms: C_31  and  C_32
REMARK   11  A    between atoms: C_32  and  C_33
REMARK   12  A    between atoms: C_33  and  C_35
REMARK   13  A    between atoms: C_33  and  C_36
REMARK   14  A    between atoms: C_36  and  N_37
REMARK   15  A    between atoms: C_38  and  C_40
REMARK                            x       y       z     vdW  Elec       q    Type
REMARK                         _______ _______ _______ _____ _____    ______ ____
ROOT
ATOM      1  C   UNL     1      -0.474  -0.117  -0.669  0.00  0.00    +0.180 C 
ATOM      2  C   UNL     1      -1.021   1.292  -0.881  0.00  0.00    +0.046 C 
ATOM      3  C   UNL     1      -1.848   1.760   0.311  0.00  0.00    +0.015 C 
ATOM      4  C   UNL     1      -1.005   1.749   1.598  0.00  0.00    -0.008 C 
ATOM      5  C   UNL     1      -1.855   2.191   2.764  0.00  0.00    +0.003 C 
ATOM      6  C   UNL     1      -1.927   3.705   2.906  0.00  0.00    +0.005 C 
ATOM      7  C   UNL     1      -0.834   4.367   3.733  0.00  0.00    +0.008 C 
ATOM      8  C   UNL     1      -0.598   3.629   5.042  0.00  0.00    -0.019 C 
ATOM      9  C   UNL     1      -0.293   2.143   4.662  0.00  0.00    +0.003 C 
ATOM     10  C   UNL     1      -1.537   1.517   4.099  0.00  0.00    +0.000 C 
ATOM     11  C   UNL     1      -1.424   0.006   3.958  0.00  0.00    +0.031 C 
ATOM     12  C   UNL     1      -0.591  -0.384   2.781  0.00  0.00    -0.027 C 
ATOM     13  C   UNL     1      -0.421   0.372   1.742  0.00  0.00    -0.064 C 
ATOM     14  C   UNL     1       0.407  -0.161   0.585  0.00  0.00    +0.075 C 
ATOM     15  C   UNL     1       0.317   1.524   5.932  0.00  0.00    +0.052 C 
ATOM     16  C   UNL     1       0.853   2.678   6.711  0.00  0.00    +0.115 C 
ATOM     17  C   UNL     1       0.642   3.942   5.783  0.00  0.00    +0.068 C 
ATOM     18  C   UNL     1       1.026   4.954   6.783  0.00  0.00    -0.028 C 
ATOM     19  C   UNL     1       1.988   4.331   7.499  0.00  0.00    +0.098 C 
ATOM     20  O   UNL     1       2.183   3.026   7.043  0.00  0.00    -0.490 OA
ATOM     21  C   UNL     1       0.507   6.352   6.970  0.00  0.00    +0.043 C 
ATOM     22  C   UNL     1       0.072   2.809   8.020  0.00  0.00    +0.056 C 
ATOM     23  C   UNL     1      -1.846   3.792   5.899  0.00  0.00    +0.012 C 
ATOM     24  C   UNL     1       0.157   2.716   1.376  0.00  0.00    +0.016 C 
ENDROOT
BRANCH   1  25
ATOM     25  O   UNL     1      -1.575  -1.051  -0.517  0.00  0.00    -0.461 OA
BRANCH  25  26
ATOM     26  C   UNL     1      -1.375  -2.305  -0.951  0.00  0.00    +0.307 C 
ATOM     27  O   UNL     1      -0.313  -2.613  -1.440  0.00  0.00    -0.251 OA
BRANCH  26  29
ATOM     28  C   UNL     1      -1.988  -4.668  -1.390  0.00  0.00    +0.015 C 
ATOM     29  C   UNL     1      -2.472  -3.330  -0.827  0.00  0.00    +0.117 C 
ENDBRANCH  26  29
ENDBRANCH  25  26
ENDBRANCH   1  25
BRANCH  19  30
ATOM     30  C   UNL     1       2.761   4.966   8.622  0.00  0.00    +0.074 C 
BRANCH  30  31
ATOM     31  C   UNL     1       2.112   4.599   9.958  0.00  0.00    +0.012 C 
BRANCH  31  32
ATOM     32  C   UNL     1       2.899   5.245  11.101  0.00  0.00    +0.003 C 
ATOM     33  C   UNL     1       2.786   6.768  11.001  0.00  0.00    +0.009 C 
BRANCH  32  34
ATOM     34  C   UNL     1       2.327   4.779  12.441  0.00  0.00    +0.107 C 
BRANCH  34  35
ATOM     35  N   UNL     1       3.152   5.301  13.533  0.00  0.00    -0.315 N 
ATOM     36  C   UNL     1       2.837   5.017  14.812  0.00  0.00    +0.210 C 
ATOM     37  O   UNL     1       1.869   4.329  15.059  0.00  0.00    -0.276 OA
ATOM     38  C   UNL     1       3.686   5.554  15.935  0.00  0.00    +0.109 C 
ATOM     39  H   UNL     1       3.926   5.852  13.335  0.00  0.00    +0.149 HD
ENDBRANCH  34  35
ENDBRANCH  32  34
ENDBRANCH  31  32
ENDBRANCH  30  31
ENDBRANCH  19  30
TORSDOF 8
