REMARK  Name = ZINC08964502
REMARK  15 active torsions:
REMARK  status: ('A' for Active; 'I' for Inactive)
REMARK    1  A    between atoms: C_1  and  C_2
REMARK    2  A    between atoms: C_2  and  C_3
REMARK    3  A    between atoms: C_3  and  O_5
REMARK    4  A    between atoms: O_5  and  C_6
REMARK    5  A    between atoms: C_10  and  C_44
REMARK    6  A    between atoms: C_15  and  C_43
REMARK    7  A    between atoms: C_25  and  C_42
REMARK    8  A    between atoms: C_28  and  C_41
REMARK    9  A    between atoms: C_29  and  C_31
REMARK   10  A    between atoms: C_31  and  C_32
REMARK   11  A    between atoms: C_32  and  C_33
REMARK   12  A    between atoms: C_33  and  C_35
REMARK   13  A    between atoms: C_33  and  C_36
REMARK   14  A    between atoms: C_36  and  N_37
REMARK   15  A    between atoms: C_38  and  C_40
REMARK                            x       y       z     vdW  Elec       q    Type
REMARK                         _______ _______ _______ _____ _____    ______ ____
ROOT
ATOM      1  C   UNL     1       1.406  -0.151  -4.486  0.00  0.00    +0.180 C 
ATOM      2  C   UNL     1       1.411   1.369  -4.326  0.00  0.00    +0.046 C 
ATOM      3  C   UNL     1       0.712   1.768  -3.028  0.00  0.00    +0.015 C 
ATOM      4  C   UNL     1      -0.742   1.294  -3.023  0.00  0.00    -0.008 C 
ATOM      5  C   UNL     1      -1.402   1.615  -1.694  0.00  0.00    +0.003 C 
ATOM      6  C   UNL     1      -0.445   1.386  -0.524  0.00  0.00    +0.005 C 
ATOM      7  C   UNL     1      -1.081   1.950   0.735  0.00  0.00    +0.008 C 
ATOM      8  C   UNL     1      -2.466   1.423   1.037  0.00  0.00    -0.019 C 
ATOM      9  C   UNL     1      -3.364   1.176  -0.187  0.00  0.00    +0.003 C 
ATOM     10  C   UNL     1      -2.648   0.772  -1.458  0.00  0.00    +0.000 C 
ATOM     11  C   UNL     1      -2.248  -0.704  -1.430  0.00  0.00    +0.031 C 
ATOM     12  C   UNL     1      -1.457  -1.042  -2.662  0.00  0.00    -0.027 C 
ATOM     13  C   UNL     1      -0.797  -0.167  -3.360  0.00  0.00    -0.064 C 
ATOM     14  C   UNL     1      -0.038  -0.651  -4.583  0.00  0.00    +0.075 C 
ATOM     15  C   UNL     1      -4.356   0.041   0.218  0.00  0.00    +0.052 C 
ATOM     16  C   UNL     1      -3.912  -0.453   1.540  0.00  0.00    +0.115 C 
ATOM     17  C   UNL     1      -2.447   0.095   1.717  0.00  0.00    +0.068 C 
ATOM     18  C   UNL     1      -2.305  -0.260   3.149  0.00  0.00    -0.028 C 
ATOM     19  C   UNL     1      -3.029  -1.394   3.263  0.00  0.00    +0.098 C 
ATOM     20  O   UNL     1      -3.620  -1.734   2.046  0.00  0.00    -0.490 OA
ATOM     21  C   UNL     1      -1.530   0.439   4.231  0.00  0.00    +0.043 C 
ATOM     22  C   UNL     1      -4.825   0.156   2.604  0.00  0.00    +0.056 C 
ATOM     23  C   UNL     1      -3.112   2.510   1.896  0.00  0.00    +0.012 C 
ATOM     24  C   UNL     1      -1.501   2.065  -4.109  0.00  0.00    +0.016 C 
ENDROOT
BRANCH   1  25
ATOM     25  O   UNL     1       2.058  -0.764  -3.343  0.00  0.00    -0.461 OA
BRANCH  25  26
ATOM     26  C   UNL     1       2.692  -1.928  -3.555  0.00  0.00    +0.307 C 
ATOM     27  O   UNL     1       2.702  -2.418  -4.659  0.00  0.00    -0.251 OA
BRANCH  26  29
ATOM     28  C   UNL     1       4.029  -3.918  -2.923  0.00  0.00    +0.015 C 
ATOM     29  C   UNL     1       3.391  -2.623  -2.416  0.00  0.00    +0.117 C 
ENDBRANCH  26  29
ENDBRANCH  25  26
ENDBRANCH   1  25
BRANCH  19  30
ATOM     30  C   UNL     1      -3.160  -2.197   4.528  0.00  0.00    +0.074 C 
BRANCH  30  31
ATOM     31  C   UNL     1      -4.447  -1.798   5.253  0.00  0.00    +0.012 C 
BRANCH  31  32
ATOM     32  C   UNL     1      -4.581  -2.615   6.540  0.00  0.00    +0.003 C 
ATOM     33  C   UNL     1      -3.446  -2.248   7.498  0.00  0.00    +0.009 C 
BRANCH  32  34
ATOM     34  C   UNL     1      -5.926  -2.308   7.202  0.00  0.00    +0.107 C 
BRANCH  34  35
ATOM     35  N   UNL     1      -6.106  -3.176   8.368  0.00  0.00    -0.315 N 
ATOM     36  C   UNL     1      -7.227  -3.082   9.111  0.00  0.00    +0.210 C 
ATOM     37  O   UNL     1      -8.086  -2.279   8.814  0.00  0.00    -0.276 OA
ATOM     38  C   UNL     1      -7.413  -3.975  10.310  0.00  0.00    +0.109 C 
ATOM     39  H   UNL     1      -5.420  -3.819   8.605  0.00  0.00    +0.149 HD
ENDBRANCH  34  35
ENDBRANCH  32  34
ENDBRANCH  31  32
ENDBRANCH  30  31
ENDBRANCH  19  30
TORSDOF 8
