REMARK  Name = ZINC21005613
REMARK  10 active torsions:
REMARK  status: ('A' for Active; 'I' for Inactive)
REMARK    1  A    between atoms: C_1  and  C_2
REMARK    2  A    between atoms: C_2  and  O_3
REMARK    3  A    between atoms: O_3  and  C_4
REMARK    4  A    between atoms: C_4  and  C_6
REMARK    5  A    between atoms: C_7  and  C_28
REMARK    6  A    between atoms: C_18  and  C_20
REMARK    7  A    between atoms: C_23  and  S_26
REMARK    8  A    between atoms: S_26  and  C_27
REMARK    9  A    between atoms: C_31  and  O_34
REMARK   10  A    between atoms: O_34  and  C_35
REMARK                            x       y       z     vdW  Elec       q    Type
REMARK                         _______ _______ _______ _____ _____    ______ ____
ROOT
ATOM      1  C   UNL     1       1.845  -2.357  -2.300  0.00  0.00    +0.085 C 
ATOM      2  C   UNL     1       1.597  -3.668  -2.554  0.00  0.00    +0.053 C 
ATOM      3  N   UNL     1       1.801  -4.222  -3.802  0.00  0.00    -0.284 N 
ATOM      4  C   UNL     1       2.526  -3.481  -4.722  0.00  0.00    +0.202 A 
ATOM      5  N   UNL     1       3.043  -3.878  -5.854  0.00  0.00    -0.214 NA
ATOM      6  C   UNL     1       3.676  -2.845  -6.444  0.00  0.00    +0.091 A 
ATOM      7  C   UNL     1       4.382  -2.747  -7.649  0.00  0.00    +0.030 A 
ATOM      8  C   UNL     1       4.920  -1.511  -7.962  0.00  0.00    +0.002 A 
ATOM      9  C   UNL     1       4.774  -0.415  -7.129  0.00  0.00    +0.002 A 
ATOM     10  C   UNL     1       4.080  -0.489  -5.932  0.00  0.00    +0.028 A 
ATOM     11  C   UNL     1       3.529  -1.719  -5.595  0.00  0.00    +0.071 A 
ATOM     12  N   UNL     1       2.800  -2.147  -4.522  0.00  0.00    -0.300 N 
ATOM     13  C   UNL     1       2.342  -1.400  -3.348  0.00  0.00    +0.160 C 
ATOM     14  H   UNL     1       1.451  -5.098  -4.026  0.00  0.00    +0.155 HD
ENDROOT
BRANCH  13  15
ATOM     15  C   UNL     1       1.226  -0.468  -3.745  0.00  0.00    -0.020 A 
ATOM     16  C   UNL     1       0.057  -0.980  -4.279  0.00  0.00    +0.007 A 
ATOM     17  C   UNL     1      -0.968  -0.130  -4.644  0.00  0.00    +0.015 A 
ATOM     18  C   UNL     1      -0.824   1.242  -4.475  0.00  0.00    +0.008 A 
ATOM     19  C   UNL     1       0.352   1.753  -3.939  0.00  0.00    +0.015 A 
ATOM     20  C   UNL     1       1.371   0.896  -3.571  0.00  0.00    +0.007 A 
BRANCH  18  21
ATOM     21  S   UNL     1      -2.128   2.331  -4.941  0.00  0.00    -0.129 S 
ATOM     22  C   UNL     1      -1.487   3.980  -4.540  0.00  0.00    +0.090 C 
ENDBRANCH  18  21
ENDBRANCH  13  15
BRANCH   2  23
ATOM     23  C   UNL     1       1.094  -4.524  -1.463  0.00  0.00    -0.003 A 
ATOM     24  C   UNL     1      -0.185  -4.315  -0.941  0.00  0.00    +0.013 A 
ATOM     25  C   UNL     1      -0.651  -5.118   0.077  0.00  0.00    +0.046 A 
ATOM     26  C   UNL     1       0.149  -6.135   0.585  0.00  0.00    +0.120 A 
ATOM     27  C   UNL     1       1.422  -6.346   0.068  0.00  0.00    +0.046 A 
ATOM     28  C   UNL     1       1.894  -5.552  -0.954  0.00  0.00    +0.013 A 
BRANCH  26  29
ATOM     29  O   UNL     1      -0.313  -6.923   1.588  0.00  0.00    -0.495 OA
ATOM     30  C   UNL     1       0.561  -7.949   2.062  0.00  0.00    +0.277 C 
ENDBRANCH  26  29
ENDBRANCH   2  23
BRANCH   1  31
ATOM     31  C   UNL     1       1.623  -1.872  -1.000  0.00  0.00    +0.339 C 
ATOM     32  O   UNL     1       1.332  -2.643  -0.103  0.00  0.00    -0.245 OA
BRANCH  31  33
ATOM     33  O   UNL     1       1.731  -0.550  -0.745  0.00  0.00    -0.462 OA
BRANCH  33  35
ATOM     34  C   UNL     1       1.659   1.391   0.693  0.00  0.00    +0.048 C 
ATOM     35  C   UNL     1       1.491  -0.127   0.599  0.00  0.00    +0.229 C 
ENDBRANCH  33  35
ENDBRANCH  31  33
ENDBRANCH   1  31
TORSDOF 7
