REMARK  Name = ZINC39267165
REMARK  8 active torsions:
REMARK  status: ('A' for Active; 'I' for Inactive)
REMARK    1  A    between atoms: C_1  and  C_2
REMARK    2  A    between atoms: C_9  and  C_10
REMARK    3  A    between atoms: C_9  and  C_11
REMARK    4  A    between atoms: C_13  and  N_15
REMARK    5  A    between atoms: C_16  and  C_18
REMARK    6  A    between atoms: C_18  and  C_19
REMARK    7  A    between atoms: CA_24  and  CB_29
REMARK    8  A    between atoms: CB_29  and  CG_30
REMARK                            x       y       z     vdW  Elec       q    Type
REMARK                         _______ _______ _______ _____ _____    ______ ____
ROOT
ATOM      1  C   UNK A   2       1.602   0.994   5.840  0.00  0.00    +0.168 C 
ATOM      2  C   UNK A   2       1.140   1.828   6.996  0.00  0.00    +0.234 C 
ATOM      3  O   UNK A   2       1.183   3.036   6.896  0.00  0.00    -0.274 OA
ATOM      4  N   PHE A   1       0.681   1.295   8.133  0.00  0.00    -0.302 N 
ATOM      5  CA  PHE A   1       0.588  -0.142   8.351  0.00  0.00    +0.163 C 
ATOM      6  C   PHE A   1       1.469  -0.895   7.400  0.00  0.00    +0.234 C 
ATOM      7  O   PHE A   1       1.782  -2.034   7.675  0.00  0.00    -0.274 OA
ATOM      8  N   UNK A   2       1.922  -0.363   6.261  0.00  0.00    -0.302 N 
ATOM      9  H   PHE A   1       0.399   1.892   8.844  0.00  0.00    +0.150 HD
ATOM     10  H   UNK A   2       2.488  -0.905   5.691  0.00  0.00    +0.150 HD
ENDROOT
BRANCH   1  11
ATOM     11  C   UNK A   2       0.496   0.944   4.784  0.00  0.00    +0.127 C 
BRANCH  11  13
ATOM     12  N   UNK A   2       0.196   0.065   2.492  0.00  0.00    -0.312 N 
ATOM     13  C   UNK A   2       1.003   0.230   3.558  0.00  0.00    +0.215 C 
ATOM     14  O   UNK A   2       2.138  -0.197   3.531  0.00  0.00    -0.276 OA
ATOM     15  H   UNK A   2      -0.712   0.406   2.513  0.00  0.00    +0.149 HD
BRANCH  12  25
ATOM     16  C   UNK A   2      -0.980   0.793   0.084  0.00  0.00    +0.009 C 
ATOM     17  C   UNK A   2      -0.393  -0.615   0.210  0.00  0.00    +0.010 C 
ATOM     18  C   UNK A   2      -1.498  -1.604   0.619  0.00  0.00    -0.000 C 
ATOM     19  C   UNK A   2      -1.468  -1.863   2.139  0.00  0.00    +0.008 C 
ATOM     20  C   UNK A   2      -0.318  -2.844   1.829  0.00  0.00    -0.003 C 
ATOM     21  C   UNK A   2      -1.027  -3.062   0.459  0.00  0.00    -0.029 C 
ATOM     22  C   UNK A   2      -2.162  -4.087   0.509  0.00  0.00    +0.011 C 
ATOM     23  C   UNK A   2      -0.074  -3.279  -0.719  0.00  0.00    +0.011 C 
ATOM     24  C   UNK A   2       1.014  -2.091   1.664  0.00  0.00    +0.026 C 
ATOM     25  C   UNK A   2       0.689  -0.629   1.300  0.00  0.00    +0.076 C 
ENDBRANCH  12  25
ENDBRANCH  11  13
ENDBRANCH   1  11
BRANCH   5  26
ATOM     26  CB  PHE A   1      -0.862  -0.586   8.148  0.00  0.00    +0.067 C 
BRANCH  26  27
ATOM     27  CG  PHE A   1      -1.732   0.039   9.208  0.00  0.00    -0.045 A 
ATOM     28  CD2 PHE A   1      -1.936  -0.615  10.409  0.00  0.00    +0.004 A 
ATOM     29  CE2 PHE A   1      -2.734  -0.041  11.381  0.00  0.00    +0.000 A 
ATOM     30  CZ  PHE A   1      -3.327   1.186  11.153  0.00  0.00    +0.000 A 
ATOM     31  CE1 PHE A   1      -3.122   1.841   9.952  0.00  0.00    +0.000 A 
ATOM     32  CD1 PHE A   1      -2.320   1.269   8.982  0.00  0.00    +0.004 A 
ENDBRANCH  26  27
ENDBRANCH   5  26
TORSDOF 5
