REMARK  Name = ZINC27834907
REMARK  10 active torsions:
REMARK  status: ('A' for Active; 'I' for Inactive)
REMARK    1  A    between atoms: C_1  and  C_2
REMARK    2  A    between atoms: C_2  and  C_3
REMARK    3  A    between atoms: C_6  and  N_9
REMARK    4  A    between atoms: C_13  and  C_14
REMARK    5  A    between atoms: C_17  and  O_22
REMARK    6  A    between atoms: C_18  and  O_20
REMARK    7  A    between atoms: O_20  and  C_21
REMARK    8  A    between atoms: O_22  and  C_23
REMARK    9  A    between atoms: C_23  and  C_25
REMARK   10  A    between atoms: C_23  and  C_26
REMARK                            x       y       z     vdW  Elec       q    Type
REMARK                         _______ _______ _______ _____ _____    ______ ____
ROOT
ATOM      1  N   UNL     1       0.244  -1.373   8.601  0.00  0.00    -0.216 N 
ATOM      2  C   UNL     1       0.620  -2.141   7.558  0.00  0.00    +0.262 C 
ATOM      3  O   UNL     1       0.963  -3.296   7.724  0.00  0.00    -0.269 OA
ATOM      4  C   UNL     1       0.606  -1.541   6.210  0.00  0.00    +0.102 C 
ATOM      5  C   UNL     1       0.977  -2.265   5.093  0.00  0.00    +0.026 C 
ATOM      6  C   UNL     1       0.182  -0.130   6.108  0.00  0.00    +0.274 C 
ATOM      7  O   UNL     1       0.148   0.436   5.032  0.00  0.00    -0.268 OA
ATOM      8  N   UNL     1      -0.173   0.512   7.240  0.00  0.00    -0.153 NA
ATOM      9  C   UNL     1      -0.135  -0.098   8.433  0.00  0.00    +0.171 C 
ATOM     10  S   UNL     1      -0.595   0.799   9.816  0.00  0.00    -0.016 S 
ENDROOT
BRANCH   1  14
ATOM     11  C   UNL     1       0.262  -3.001  12.438  0.00  0.00    -0.048 A 
ATOM     12  C   UNL     1      -0.649  -3.454  11.500  0.00  0.00    +0.005 A 
ATOM     13  C   UNL     1      -0.657  -2.916  10.228  0.00  0.00    +0.024 A 
ATOM     14  C   UNL     1       0.249  -1.920   9.891  0.00  0.00    +0.043 A 
ATOM     15  C   UNL     1       1.166  -1.471  10.833  0.00  0.00    +0.024 A 
ATOM     16  C   UNL     1       1.166  -2.010  12.105  0.00  0.00    +0.005 A 
BRANCH  11  18
ATOM     17  C   UNL     1       1.213  -4.794  13.863  0.00  0.00    +0.009 C 
ATOM     18  C   UNL     1       0.268  -3.591  13.825  0.00  0.00    +0.032 C 
ENDBRANCH  11  18
ENDBRANCH   1  14
BRANCH   5  19
ATOM     19  C   UNL     1       0.770  -1.707   3.757  0.00  0.00    -0.020 A 
ATOM     20  C   UNL     1      -0.453  -1.103   3.428  0.00  0.00    +0.012 A 
ATOM     21  C   UNL     1      -0.641  -0.574   2.172  0.00  0.00    +0.050 A 
ATOM     22  C   UNL     1       0.373  -0.645   1.224  0.00  0.00    +0.163 A 
ATOM     23  C   UNL     1       1.592  -1.245   1.542  0.00  0.00    +0.162 A 
ATOM     24  C   UNL     1       1.794  -1.773   2.800  0.00  0.00    +0.057 A 
BRANCH  23  25
ATOM     25  O   UNL     1       2.582  -1.307   0.612  0.00  0.00    -0.491 OA
ATOM     26  C   UNL     1       3.804  -1.935   1.006  0.00  0.00    +0.277 C 
ENDBRANCH  23  25
BRANCH  22  27
ATOM     27  O   UNL     1       0.178  -0.125  -0.015  0.00  0.00    -0.474 OA
BRANCH  27  28
ATOM     28  C   UNL     1      -1.075   0.516  -0.259  0.00  0.00    +0.283 C 
ATOM     29  C   UNL     1      -1.016   1.960   0.244  0.00  0.00    +0.064 C 
BRANCH  28  30
ATOM     30  C   UNL     1      -1.362   0.512  -1.739  0.00  0.00    +0.395 C 
ATOM     31  O   UNL     1      -0.574   0.010  -2.505  0.00  0.00    -0.242 OA
ATOM     32  O   UNL     1      -2.493   1.064  -2.205  0.00  0.00    -0.242 OA
ENDBRANCH  28  30
ENDBRANCH  27  28
ENDBRANCH  22  27
ENDBRANCH   5  19
TORSDOF 7
