REMARK  Name = ZINC23426514
REMARK  10 active torsions:
REMARK  status: ('A' for Active; 'I' for Inactive)
REMARK    1  A    between atoms: C_1  and  C_2
REMARK    2  A    between atoms: C_5  and  C_9
REMARK    3  A    between atoms: C_6  and  C_8
REMARK    4  A    between atoms: C_12  and  C_23
REMARK    5  A    between atoms: N_13  and  C_14
REMARK    6  A    between atoms: C_17  and  C_20
REMARK    7  A    between atoms: C_20  and  C_21
REMARK    8  A    between atoms: C_23  and  C_24
REMARK    9  A    between atoms: C_24  and  C_25
REMARK   10  A    between atoms: N_27  and  C_28
REMARK                            x       y       z     vdW  Elec       q    Type
REMARK                         _______ _______ _______ _____ _____    ______ ____
ROOT
ATOM      1  C   UNL     1       1.018   1.868   0.170  0.00  0.00    +0.054 A 
ATOM      2  C   UNL     1       0.403   3.084   0.146  0.00  0.00    +0.028 A 
ATOM      3  C   UNL     1      -0.919   2.895   0.580  0.00  0.00    +0.024 A 
ATOM      4  C   UNL     1      -1.080   1.581   0.850  0.00  0.00    +0.025 A 
ATOM      5  N   UNL     1       0.102   0.942   0.608  0.00  0.00    -0.313 N 
ENDROOT
BRANCH   1  10
ATOM      6  C   UNL     1       6.477   0.801  -1.304  0.00  0.00    +0.044 C 
ATOM      7  C   UNL     1       5.047   1.081  -0.918  0.00  0.00    -0.050 A 
ATOM      8  C   UNL     1       4.019   0.393  -1.539  0.00  0.00    +0.004 A 
ATOM      9  C   UNL     1       2.708   0.644  -1.190  0.00  0.00    +0.010 A 
ATOM     10  C   UNL     1       2.420   1.594  -0.209  0.00  0.00    +0.002 A 
ATOM     11  C   UNL     1       3.461   2.288   0.409  0.00  0.00    -0.041 A 
ATOM     12  C   UNL     1       4.768   2.024   0.055  0.00  0.00    +0.007 A 
ATOM     13  C   UNL     1       3.159   3.319   1.466  0.00  0.00    +0.044 C 
ENDBRANCH   1  10
BRANCH   5  14
ATOM     14  C   UNL     1       0.340  -0.429   0.773  0.00  0.00    +0.047 A 
ATOM     15  C   UNL     1      -0.293  -1.349  -0.052  0.00  0.00    +0.026 A 
ATOM     16  C   UNL     1      -0.054  -2.699   0.110  0.00  0.00    +0.006 A 
ATOM     17  C   UNL     1       0.809  -3.136   1.099  0.00  0.00    -0.033 A 
ATOM     18  C   UNL     1       1.437  -2.223   1.925  0.00  0.00    +0.006 A 
ATOM     19  C   UNL     1       1.206  -0.871   1.765  0.00  0.00    +0.026 A 
BRANCH  17  20
ATOM     20  C   UNL     1       1.064  -4.611   1.277  0.00  0.00    +0.153 C 
BRANCH  20  21
ATOM     21  C   UNL     1       0.086  -5.167   2.227  0.00  0.00    +0.067 C 
ATOM     22  N   UNL     1      -0.668  -5.596   2.959  0.00  0.00    -0.196 NA
ENDBRANCH  20  21
ENDBRANCH  17  20
ENDBRANCH   5  14
BRANCH   4  23
ATOM     23  C   UNL     1      -2.348   0.931   1.339  0.00  0.00    +0.063 C 
BRANCH  23  24
ATOM     24  C   UNL     1      -3.240   0.589   0.144  0.00  0.00    +0.102 C 
BRANCH  24  25
ATOM     25  C   UNL     1      -4.508  -0.061   0.634  0.00  0.00    +0.214 C 
ATOM     26  O   UNL     1      -4.682  -0.234   1.821  0.00  0.00    -0.276 OA
ATOM     27  N   UNL     1      -5.450  -0.451  -0.249  0.00  0.00    -0.313 N 
ATOM     28  H   UNL     1      -5.292  -0.294  -1.326  0.00  0.00    +0.149 HD
BRANCH  27  29
ATOM     29  C   UNL     1      -6.683  -1.082   0.227  0.00  0.00    +0.069 C 
ATOM     30  C   UNL     1      -6.450  -2.584   0.412  0.00  0.00    +0.003 C 
ATOM     31  C   UNL     1      -7.757  -3.249   0.849  0.00  0.00    -0.081 C 
ATOM     32  N   UNL     1      -8.791  -3.016  -0.168  0.00  0.00    +0.379 N 
ATOM     33  C   UNL     1      -9.065  -1.582  -0.328  0.00  0.00    -0.081 C 
ATOM     34  C   UNL     1      -7.797  -0.869  -0.801  0.00  0.00    +0.003 C 
ATOM     35  H   UNL     1      -8.452  -3.418  -1.134  0.00  0.00    -0.086 HD
ATOM     36  H   UNL     1      -9.721  -3.520   0.133  0.00  0.00    -0.086 HD
ENDBRANCH  27  29
ENDBRANCH  24  25
ENDBRANCH  23  24
ENDBRANCH   4  23
TORSDOF 8
