REMARK  Name = ZINC02093143
REMARK  12 active torsions:
REMARK  status: ('A' for Active; 'I' for Inactive)
REMARK    1  A    between atoms: C_1  and  C_2
REMARK    2  A    between atoms: C_2  and  C_3
REMARK    3  A    between atoms: C_3  and  C_4
REMARK    4  A    between atoms: C_13  and  O_16
REMARK    5  A    between atoms: C_14  and  C_15
REMARK    6  A    between atoms: O_16  and  C_17
REMARK    7  A    between atoms: C_17  and  C_19
REMARK    8  A    between atoms: C_19  and  C_21
REMARK    9  A    between atoms: C_19  and  N_27
REMARK   10  A    between atoms: N_27  and  S_28
REMARK   11  A    between atoms: S_28  and  C_31
REMARK   12  A    between atoms: C_34  and  C_37
REMARK                            x       y       z     vdW  Elec       q    Type
REMARK                         _______ _______ _______ _____ _____    ______ ____
ROOT
ATOM      1  C   UNL     1      -4.881   3.691  -0.159  0.00  0.00    +0.215 C 
ENDROOT
BRANCH   1   2
ATOM      2  C   UNL     1      -5.124   4.537   1.064  0.00  0.00    -0.018 A 
ATOM      3  C   UNL     1      -5.546   3.947   2.240  0.00  0.00    +0.006 A 
ATOM      4  C   UNL     1      -5.765   4.723   3.363  0.00  0.00    +0.000 A 
ATOM      5  C   UNL     1      -5.571   6.091   3.307  0.00  0.00    +0.000 A 
ATOM      6  C   UNL     1      -5.154   6.682   2.129  0.00  0.00    +0.000 A 
ATOM      7  C   UNL     1      -4.931   5.905   1.007  0.00  0.00    +0.006 A 
ENDBRANCH   1   2
BRANCH   1   8
ATOM      8  C   UNL     1      -3.529   3.034  -0.054  0.00  0.00    +0.336 C 
ATOM      9  O   UNL     1      -3.441   1.829  -0.059  0.00  0.00    -0.248 OA
BRANCH   8  10
ATOM     10  O   UNL     1      -2.422   3.788   0.044  0.00  0.00    -0.424 OA
BRANCH  10  20
ATOM     11  C   UNL     1       2.485   1.114  -0.054  0.00  0.00    -0.030 A 
ATOM     12  C   UNL     1       2.989   0.768  -1.267  0.00  0.00    +0.096 A 
ATOM     13  C   UNL     1       2.274   1.086  -2.441  0.00  0.00    +0.337 A 
ATOM     14  O   UNL     1       2.737   0.769  -3.522  0.00  0.00    -0.245 OA
ATOM     15  O   UNL     1       1.097   1.728  -2.397  0.00  0.00    -0.422 OA
ATOM     16  C   UNL     1       0.540   2.101  -1.224  0.00  0.00    +0.146 A 
ATOM     17  C   UNL     1       1.200   1.815  -0.014  0.00  0.00    +0.021 A 
ATOM     18  C   UNL     1       0.627   2.201   1.203  0.00  0.00    +0.015 A 
ATOM     19  C   UNL     1      -0.574   2.849   1.213  0.00  0.00    +0.047 A 
ATOM     20  C   UNL     1      -1.229   3.138   0.018  0.00  0.00    +0.138 A 
ATOM     21  C   UNL     1      -0.677   2.764  -1.196  0.00  0.00    +0.035 A 
ATOM     22  C   UNL     1      -1.396   3.079  -2.483  0.00  0.00    +0.051 C 
BRANCH  11  23
ATOM     23  C   UNL     1       3.228   0.787   1.215  0.00  0.00    +0.036 C 
BRANCH  23  25
ATOM     24  C   UNL     1       3.458  -0.863   3.077  0.00  0.00    +0.004 C 
ATOM     25  C   UNL     1       2.703  -0.531   1.788  0.00  0.00    +0.001 C 
ENDBRANCH  23  25
ENDBRANCH  11  23
ENDBRANCH  10  20
ENDBRANCH   8  10
ENDBRANCH   1   8
BRANCH   1  26
ATOM     26  N   UNL     1      -5.918   2.661  -0.254  0.00  0.00    -0.172 NA
ATOM     27  H   UNL     1      -5.819   1.826   0.230  0.00  0.00    +0.149 HD
BRANCH  26  28
ATOM     28  S   UNL     1      -7.261   2.922  -1.188  0.00  0.00    +0.059 S 
ATOM     29  O   UNL     1      -8.054   1.746  -1.097  0.00  0.00    -0.153 OA
ATOM     30  O   UNL     1      -7.759   4.205  -0.834  0.00  0.00    -0.153 OA
BRANCH  28  31
ATOM     31  C   UNL     1      -6.719   3.036  -2.860  0.00  0.00    +0.105 A 
ATOM     32  C   UNL     1      -6.370   4.263  -3.391  0.00  0.00    +0.029 A 
ATOM     33  C   UNL     1      -5.940   4.352  -4.702  0.00  0.00    +0.005 A 
ATOM     34  C   UNL     1      -5.869   3.215  -5.485  0.00  0.00    -0.050 A 
ATOM     35  C   UNL     1      -6.223   1.988  -4.955  0.00  0.00    +0.005 A 
ATOM     36  C   UNL     1      -6.648   1.898  -3.643  0.00  0.00    +0.029 A 
ATOM     37  C   UNL     1      -5.405   3.312  -6.915  0.00  0.00    +0.044 C 
ENDBRANCH  28  31
ENDBRANCH  26  28
ENDBRANCH   1  26
TORSDOF 9
