REMARK  Name = ZINC06916523
REMARK  9 active torsions:
REMARK  status: ('A' for Active; 'I' for Inactive)
REMARK    1  A    between atoms: C_1  and  C_2
REMARK    2  A    between atoms: C_5  and  C_7
REMARK    3  A    between atoms: C_7  and  N_8
REMARK    4  A    between atoms: C_9  and  C_11
REMARK    5  A    between atoms: C_11  and  C_13
REMARK    6  A    between atoms: C_11  and  N_14
REMARK    7  A    between atoms: C_18  and  C_31
REMARK    8  A    between atoms: N_21  and  C_25
REMARK    9  A    between atoms: C_23  and  C_24
REMARK                            x       y       z     vdW  Elec       q    Type
REMARK                         _______ _______ _______ _____ _____    ______ ____
ROOT
ATOM      1  N   UNL     1      -0.823   3.715   1.512  0.00  0.00    -0.281 N 
ATOM      2  C   UNL     1      -1.357   4.898   1.869  0.00  0.00    +0.254 A 
ATOM      3  O   UNL     1      -0.670   5.716   2.458  0.00  0.00    -0.268 OA
ATOM      4  C   UNL     1      -2.699   5.202   1.573  0.00  0.00    +0.074 A 
ATOM      5  C   UNL     1      -3.472   4.296   0.918  0.00  0.00    -0.033 A 
ATOM      6  C   UNL     1      -2.910   3.055   0.542  0.00  0.00    +0.043 A 
ATOM      7  C   UNL     1      -1.577   2.780   0.856  0.00  0.00    +0.148 A 
ATOM      8  N   UNL     1      -1.308   1.536   0.379  0.00  0.00    -0.215 N 
ATOM      9  N   UNL     1      -2.470   1.034  -0.220  0.00  0.00    -0.169 NA
ATOM     10  C   UNL     1      -3.422   1.920  -0.130  0.00  0.00    +0.070 A 
ATOM     11  C   UNL     1      -4.826   1.763  -0.654  0.00  0.00    +0.068 C 
ATOM     12  C   UNL     1      -4.910   4.612   0.595  0.00  0.00    +0.045 C 
ENDROOT
BRANCH   8  13
ATOM     13  C   UNL     1      -0.081   0.868   0.475  0.00  0.00    +0.068 A 
ATOM     14  C   UNL     1       0.562   0.424  -0.673  0.00  0.00    +0.028 A 
ATOM     15  C   UNL     1       1.769  -0.239  -0.574  0.00  0.00    +0.002 A 
ATOM     16  C   UNL     1       2.338  -0.462   0.666  0.00  0.00    +0.000 A 
ATOM     17  C   UNL     1       1.701  -0.021   1.812  0.00  0.00    +0.002 A 
ATOM     18  C   UNL     1       0.493   0.643   1.719  0.00  0.00    +0.028 A 
ENDBRANCH   8  13
BRANCH   1  19
ATOM     19  C   UNL     1       0.576   3.423   1.834  0.00  0.00    +0.175 C 
ATOM     20  C   UNL     1       1.467   4.549   1.303  0.00  0.00    +0.041 C 
BRANCH  19  22
ATOM     21  N   UNL     1       1.946   3.054   3.860  0.00  0.00    -0.307 N 
ATOM     22  C   UNL     1       0.736   3.318   3.329  0.00  0.00    +0.236 C 
ATOM     23  O   UNL     1      -0.224   3.472   4.054  0.00  0.00    -0.274 OA
ATOM     24  H   UNL     1       2.714   2.931   3.280  0.00  0.00    +0.149 HD
BRANCH  21  25
ATOM     25  C   UNL     1       2.102   2.952   5.313  0.00  0.00    +0.178 C 
BRANCH  25  30
ATOM     26  C   UNL     1       6.342   0.398   6.282  0.00  0.00    +0.086 C 
ATOM     27  C   UNL     1       5.385   1.542   6.066  0.00  0.00    +0.102 A 
ATOM     28  C   UNL     1       5.692   2.849   6.141  0.00  0.00    +0.045 A 
ATOM     29  C   UNL     1       4.503   3.565   5.869  0.00  0.00    +0.046 A 
ATOM     30  C   UNL     1       3.541   2.652   5.644  0.00  0.00    +0.122 A 
ATOM     31  O   UNL     1       4.080   1.428   5.770  0.00  0.00    -0.463 OA
ENDBRANCH  25  30
ENDBRANCH  21  25
ENDBRANCH  19  22
ENDBRANCH   1  19
TORSDOF 5
