REMARK  Name = ZINC35870758
REMARK  8 active torsions:
REMARK  status: ('A' for Active; 'I' for Inactive)
REMARK    1  A    between atoms: C_1  and  O_2
REMARK    2  A    between atoms: O_2  and  C_3
REMARK    3  A    between atoms: C_8  and  C_9
REMARK    4  A    between atoms: C_9  and  C_10
REMARK    5  A    between atoms: C_10  and  N_11
REMARK    6  A    between atoms: C_12  and  C_14
REMARK    7  A    between atoms: N_27  and  C_30
REMARK    8  A    between atoms: C_30  and  C_31
REMARK                            x       y       z     vdW  Elec       q    Type
REMARK                         _______ _______ _______ _____ _____    ______ ____
ROOT
ATOM      1  C   UNL     1      -3.958  -4.971   1.815  0.00  0.00    +0.098 C 
ATOM      2  C   UNL     1      -3.712  -4.281   3.140  0.00  0.00    +0.051 C 
ATOM      3  C   UNL     1      -4.635  -3.117   3.352  0.00  0.00    -0.026 A 
ATOM      4  C   UNL     1      -4.223  -2.044   4.121  0.00  0.00    +0.005 A 
ATOM      5  C   UNL     1      -5.069  -0.969   4.323  0.00  0.00    +0.000 A 
ATOM      6  C   UNL     1      -6.331  -0.963   3.759  0.00  0.00    +0.002 A 
ATOM      7  C   UNL     1      -6.748  -2.030   2.988  0.00  0.00    +0.023 A 
ATOM      8  C   UNL     1      -5.899  -3.112   2.781  0.00  0.00    +0.033 A 
ATOM      9  N   UNL     1      -6.318  -4.181   1.998  0.00  0.00    -0.329 N 
ATOM     10  C   UNL     1      -5.410  -5.195   1.491  0.00  0.00    +0.069 C 
ATOM     11  C   UNL     1      -5.901  -6.569   1.948  0.00  0.00    -0.055 C 
ATOM     12  N   UNL     1      -7.296  -6.745   1.520  0.00  0.00    +0.388 N 
ATOM     13  C   UNL     1      -8.160  -5.744   2.155  0.00  0.00    -0.059 C 
ATOM     14  C   UNL     1      -7.753  -4.345   1.688  0.00  0.00    +0.087 C 
ATOM     15  H   UNL     1      -7.351  -6.644   0.517  0.00  0.00    -0.081 HD
ENDROOT
BRANCH   1  17
ATOM     16  N   UNL     1      -2.035  -3.834   0.755  0.00  0.00    -0.315 N 
ATOM     17  C   UNL     1      -3.348  -4.134   0.721  0.00  0.00    +0.218 C 
ATOM     18  O   UNL     1      -4.039  -3.731  -0.191  0.00  0.00    -0.275 OA
ATOM     19  H   UNL     1      -1.482  -4.156   1.484  0.00  0.00    +0.149 HD
BRANCH  16  20
ATOM     20  C   UNL     1      -1.442  -3.020  -0.309  0.00  0.00    +0.109 C 
BRANCH  20  21
ATOM     21  C   UNL     1       0.051  -2.828  -0.033  0.00  0.00    +0.057 C 
BRANCH  21  27
ATOM     22  C   UNL     1       0.606  -0.607  -1.056  0.00  0.00    +0.123 A 
ATOM     23  C   UNL     1       1.173   0.161  -2.063  0.00  0.00    +0.046 A 
ATOM     24  C   UNL     1       1.786  -0.455  -3.136  0.00  0.00    +0.004 A 
ATOM     25  C   UNL     1       1.836  -1.835  -3.208  0.00  0.00    +0.000 A 
ATOM     26  C   UNL     1       1.271  -2.602  -2.207  0.00  0.00    +0.007 A 
ATOM     27  C   UNL     1       0.661  -1.991  -1.128  0.00  0.00    -0.004 A 
BRANCH  22  29
ATOM     28  C   UNL     1      -0.017   1.425   0.010  0.00  0.00    +0.277 C 
ATOM     29  O   UNL     1       0.002  -0.004   0.002  0.00  0.00    -0.495 OA
ENDBRANCH  22  29
ENDBRANCH  21  27
ENDBRANCH  20  21
ENDBRANCH  16  20
ENDBRANCH   1  17
BRANCH  12  30
ATOM     30  C   UNL     1      -7.753  -8.089   1.897  0.00  0.00    +0.019 C 
BRANCH  30  31
ATOM     31  C   UNL     1      -9.140  -8.319   1.353  0.00  0.00    +0.199 C 
ATOM     32  O   UNL     1      -9.692  -7.449   0.714  0.00  0.00    -0.278 OA
ATOM     33  N   UNL     1      -9.766  -9.492   1.577  0.00  0.00    -0.299 N 
ATOM     34  C   UNL     1      -9.118 -10.559   2.355  0.00  0.00    +0.136 C 
ATOM     35  C   UNL     1     -10.095 -11.028   3.440  0.00  0.00    +0.179 C 
ATOM     36  O   UNL     1     -11.348 -11.354   2.835  0.00  0.00    -0.377 OA
ATOM     37  C   UNL     1     -11.996 -10.250   2.199  0.00  0.00    +0.179 C 
ATOM     38  C   UNL     1     -11.119  -9.739   1.056  0.00  0.00    +0.136 C 
ENDBRANCH  30  31
ENDBRANCH  12  30
TORSDOF 7
