REMARK  Name = ZINC35006577
REMARK  11 active torsions:
REMARK  status: ('A' for Active; 'I' for Inactive)
REMARK    1  A    between atoms: C_1  and  C_2
REMARK    2  A    between atoms: C_5  and  C_8
REMARK    3  A    between atoms: C_8  and  N_9
REMARK    4  A    between atoms: N_9  and  C_10
REMARK    5  A    between atoms: C_10  and  C_11
REMARK    6  A    between atoms: C_11  and  C_30
REMARK    7  A    between atoms: C_15  and  C_29
REMARK    8  A    between atoms: C_24  and  C_26
REMARK    9  A    between atoms: C_26  and  C_27
REMARK   10  A    between atoms: C_26  and  C_28
REMARK   11  A    between atoms: N_33  and  C_34
REMARK                            x       y       z     vdW  Elec       q    Type
REMARK                         _______ _______ _______ _____ _____    ______ ____
ROOT
ATOM      1  N   UNL     1       1.556  -4.536   0.155  0.00  0.00    -0.281 N 
ATOM      2  C   UNL     1       2.167  -4.771  -1.023  0.00  0.00    +0.307 C 
ATOM      3  O   UNL     1       3.276  -5.269  -1.044  0.00  0.00    -0.252 OA
ATOM      4  N   UNL     1       1.549  -4.453  -2.178  0.00  0.00    -0.267 N 
ATOM      5  H   UNL     1       0.693  -3.999  -2.161  0.00  0.00    +0.156 HD
ENDROOT
BRANCH   4   6
ATOM      6  C   UNL     1       2.145  -4.779  -3.404  0.00  0.00    +0.070 A 
ATOM      7  C   UNL     1       3.526  -4.741  -3.538  0.00  0.00    +0.026 A 
ATOM      8  C   UNL     1       4.110  -5.063  -4.748  0.00  0.00    +0.002 A 
ATOM      9  C   UNL     1       3.321  -5.423  -5.825  0.00  0.00    +0.003 A 
ATOM     10  C   UNL     1       1.945  -5.464  -5.696  0.00  0.00    +0.040 A 
ATOM     11  C   UNL     1       1.354  -5.148  -4.486  0.00  0.00    +0.145 A 
ATOM     12  F   UNL     1       0.010  -5.193  -4.358  0.00  0.00    -0.204 F 
ENDBRANCH   4   6
BRANCH   1  13
ATOM     13  C   UNL     1       0.220  -3.936   0.180  0.00  0.00    +0.144 C 
BRANCH  13  18
ATOM     14  C   UNL     1       0.695   1.820   0.382  0.00  0.00    +0.044 C 
ATOM     15  C   UNL     1       0.571   0.319   0.330  0.00  0.00    -0.050 A 
ATOM     16  C   UNL     1       0.512  -0.327  -0.891  0.00  0.00    +0.003 A 
ATOM     17  C   UNL     1       0.399  -1.704  -0.940  0.00  0.00    +0.005 A 
ATOM     18  C   UNL     1       0.345  -2.435   0.233  0.00  0.00    -0.030 A 
ATOM     19  C   UNL     1       0.405  -1.788   1.453  0.00  0.00    +0.005 A 
ATOM     20  C   UNL     1       0.523  -0.412   1.502  0.00  0.00    +0.003 A 
ENDBRANCH  13  18
ENDBRANCH   1  13
BRANCH   1  21
ATOM     21  C   UNL     1       2.228  -4.881   1.410  0.00  0.00    +0.116 C 
BRANCH  21  22
ATOM     22  C   UNL     1       1.870  -6.314   1.802  0.00  0.00    -0.013 C 
ATOM     23  C   UNL     1       0.357  -6.449   1.985  0.00  0.00    +0.008 C 
ATOM     24  C   UNL     1      -0.116  -5.848   3.302  0.00  0.00    +0.001 C 
ATOM     25  C   UNL     1       0.600  -6.522   4.474  0.00  0.00    +0.011 C 
ATOM     26  C   UNL     1       2.102  -6.282   4.356  0.00  0.00    -0.003 C 
ATOM     27  C   UNL     1       2.620  -6.791   3.025  0.00  0.00    +0.007 C 
ATOM     28  C   UNL     1       4.128  -6.565   2.946  0.00  0.00    +0.009 C 
ATOM     29  C   UNL     1       4.798  -7.525   3.932  0.00  0.00    +0.036 C 
ATOM     30  C   UNL     1       4.077  -7.570   5.251  0.00  0.00    -0.043 A 
ATOM     31  C   UNL     1       2.836  -7.009   5.463  0.00  0.00    -0.038 A 
ATOM     32  C   UNL     1       2.236  -7.096   6.709  0.00  0.00    +0.005 A 
ATOM     33  C   UNL     1       2.873  -7.745   7.748  0.00  0.00    +0.004 A 
ATOM     34  C   UNL     1       4.118  -8.309   7.542  0.00  0.00    -0.045 A 
ATOM     35  C   UNL     1       4.715  -8.222   6.302  0.00  0.00    +0.007 A 
ATOM     36  C   UNL     1       2.380  -4.792   4.558  0.00  0.00    +0.016 C 
ATOM     37  C   UNL     1       2.255  -7.225   0.611  0.00  0.00    +0.013 C 
BRANCH  34  38
ATOM     38  C   UNL     1       4.822  -9.018   8.671  0.00  0.00    +0.013 C 
ATOM     39  C   UNL     1       5.047  -8.039   9.826  0.00  0.00    +0.012 C 
ATOM     40  C   UNL     1       3.962 -10.187   9.154  0.00  0.00    +0.012 C 
ENDBRANCH  34  38
ENDBRANCH  21  22
ENDBRANCH   1  21
TORSDOF 6
