REMARK  Name = ZINC33037332
REMARK  6 active torsions:
REMARK  status: ('A' for Active; 'I' for Inactive)
REMARK    1  A    between atoms: C_1  and  C_2
REMARK    2  A    between atoms: C_3  and  C_31
REMARK    3  A    between atoms: C_4  and  N_27
REMARK    4  A    between atoms: N_5  and  C_7
REMARK    5  A    between atoms: C_10  and  C_13
REMARK    6  A    between atoms: C_28  and  C_30
REMARK                            x       y       z     vdW  Elec       q    Type
REMARK                         _______ _______ _______ _____ _____    ______ ____
ROOT
ATOM      1  C   UNL     1      -4.081   4.055  -1.227  0.00  0.00    +0.067 A 
ATOM      2  C   UNL     1      -3.644   2.764  -1.505  0.00  0.00    +0.028 A 
ATOM      3  C   UNL     1      -2.372   2.554  -1.988  0.00  0.00    +0.015 A 
ATOM      4  C   UNL     1      -1.519   3.641  -2.199  0.00  0.00    +0.037 A 
ATOM      5  C   UNL     1      -1.958   4.936  -1.913  0.00  0.00    +0.015 A 
ATOM      6  C   UNL     1      -3.234   5.138  -1.435  0.00  0.00    +0.028 A 
ENDROOT
BRANCH   4   7
ATOM      7  C   UNL     1      -0.154   3.420  -2.716  0.00  0.00    +0.247 C 
ATOM      8  O   UNL     1       0.445   2.400  -2.435  0.00  0.00    -0.270 OA
ATOM      9  N   UNL     1       0.426   4.346  -3.504  0.00  0.00    -0.295 N 
ATOM     10  C   UNL     1       1.827   4.205  -3.930  0.00  0.00    +0.127 C 
ATOM     11  C   UNL     1       1.885   4.370  -5.457  0.00  0.00    +0.125 C 
ATOM     12  N   UNL     1       1.247   5.640  -5.832  0.00  0.00    -0.314 N 
ATOM     13  C   UNL     1      -0.178   5.645  -5.477  0.00  0.00    +0.125 C 
ATOM     14  C   UNL     1      -0.323   5.529  -3.956  0.00  0.00    +0.127 C 
ATOM     15  C   UNL     1       1.424   5.906  -7.185  0.00  0.00    +0.099 A 
ATOM     16  C   UNL     1       2.709   5.945  -7.717  0.00  0.00    +0.042 A 
ATOM     17  C   UNL     1       2.871   6.211  -9.065  0.00  0.00    +0.005 A 
ATOM     18  C   UNL     1       1.738   6.431  -9.838  0.00  0.00    +0.018 A 
ATOM     19  C   UNL     1       0.494   6.377  -9.243  0.00  0.00    +0.084 A 
ATOM     20  N   UNL     1       0.369   6.116  -7.956  0.00  0.00    -0.350 N 
ATOM     21  H   UNL     1      -0.643   6.074  -7.527  0.00  0.00    +0.166 HD
ENDBRANCH   4   7
BRANCH   1  26
ATOM     22  C   UNL     1      -8.978   3.590  -0.630  0.00  0.00    +0.068 C 
ATOM     23  C   UNL     1      -7.551   4.048  -0.481  0.00  0.00    +0.070 A 
ATOM     24  C   UNL     1      -7.092   5.037   0.411  0.00  0.00    +0.045 A 
ATOM     25  C   UNL     1      -5.726   5.153   0.231  0.00  0.00    +0.137 A 
ATOM     26  N   UNL     1      -5.373   4.264  -0.737  0.00  0.00    -0.218 N 
ATOM     27  N   UNL     1      -6.529   3.599  -1.161  0.00  0.00    -0.169 NA
BRANCH  24  28
ATOM     28  C   UNL     1      -7.921   5.812   1.367  0.00  0.00    -0.013 A 
ATOM     29  C   UNL     1      -7.735   5.656   2.739  0.00  0.00    +0.011 A 
ATOM     30  C   UNL     1      -8.505   6.383   3.624  0.00  0.00    +0.039 A 
ATOM     31  C   UNL     1      -9.470   7.257   3.151  0.00  0.00    +0.123 A 
ATOM     32  C   UNL     1      -9.662   7.410   1.787  0.00  0.00    +0.039 A 
ATOM     33  C   UNL     1      -8.893   6.692   0.895  0.00  0.00    +0.011 A 
ATOM     34  F   UNL     1     -10.225   7.963   4.021  0.00  0.00    -0.205 F 
ENDBRANCH  24  28
BRANCH  25  35
ATOM     35  N   UNL     1      -4.873   6.016   0.912  0.00  0.00    -0.270 N 
ATOM     36  C   UNL     1      -3.949   5.521   1.759  0.00  0.00    +0.215 C 
ATOM     37  O   UNL     1      -3.796   4.321   1.855  0.00  0.00    -0.276 OA
ATOM     38  C   UNL     1      -3.107   6.457   2.587  0.00  0.00    +0.109 C 
ATOM     39  H   UNL     1      -4.952   7.102   0.758  0.00  0.00    +0.156 HD
ENDBRANCH  25  35
ENDBRANCH   1  26
TORSDOF 4
