REMARK  Name = ZINC33052109
REMARK  6 active torsions:
REMARK  status: ('A' for Active; 'I' for Inactive)
REMARK    1  A    between atoms: C_1  and  C_2
REMARK    2  A    between atoms: C_2  and  C_3
REMARK    3  A    between atoms: N_6  and  C_8
REMARK    4  A    between atoms: C_19  and  C_34
REMARK    5  A    between atoms: N_25  and  C_26
REMARK    6  A    between atoms: C_26  and  C_27
REMARK                            x       y       z     vdW  Elec       q    Type
REMARK                         _______ _______ _______ _____ _____    ______ ____
ROOT
ATOM      1  C   UNL     1       0.996   4.102  -2.569  0.00  0.00    +0.070 A 
ATOM      2  C   UNL     1       1.242   3.584  -1.302  0.00  0.00    +0.036 A 
ATOM      3  C   UNL     1       2.495   3.983  -0.930  0.00  0.00    +0.146 A 
ATOM      4  N   UNL     1       2.989   4.772  -1.903  0.00  0.00    -0.215 N 
ATOM      5  N   UNL     1       2.037   4.812  -2.935  0.00  0.00    -0.169 NA
ATOM      6  N   UNL     1       3.060   3.542   0.272  0.00  0.00    -0.303 N 
ATOM      7  C   UNL     1       3.745   4.216   1.225  0.00  0.00    +0.093 A 
ATOM      8  C   UNL     1       4.006   3.354   2.234  0.00  0.00    +0.020 A 
ATOM      9  C   UNL     1       3.478   2.097   1.869  0.00  0.00    +0.025 A 
ATOM     10  C   UNL     1       2.929   2.230   0.651  0.00  0.00    +0.050 A 
ATOM     11  C   UNL     1       2.314   1.180  -0.220  0.00  0.00    +0.155 C 
ATOM     12  N   UNL     1       0.847   1.349  -0.331  0.00  0.00    -0.269 N 
ATOM     13  C   UNL     1       0.355   2.744  -0.431  0.00  0.00    +0.151 C 
ATOM     14  C   UNL     1       0.007   0.295  -0.336  0.00  0.00    +0.304 C 
ATOM     15  O   UNL     1       0.449  -0.835  -0.252  0.00  0.00    -0.253 OA
ATOM     16  N   UNL     1      -1.322   0.493  -0.438  0.00  0.00    -0.295 N 
ATOM     17  H   UNL     1      -1.721   1.515  -0.513  0.00  0.00    +0.151 HD
ENDROOT
BRANCH  11  18
ATOM     18  C   UNL     1       2.925   1.268  -1.595  0.00  0.00    -0.018 A 
ATOM     19  C   UNL     1       4.280   1.504  -1.736  0.00  0.00    +0.006 A 
ATOM     20  C   UNL     1       4.842   1.585  -2.996  0.00  0.00    +0.003 A 
ATOM     21  C   UNL     1       4.049   1.431  -4.117  0.00  0.00    +0.038 A 
ATOM     22  C   UNL     1       2.692   1.194  -3.978  0.00  0.00    +0.124 A 
ATOM     23  C   UNL     1       2.131   1.108  -2.715  0.00  0.00    +0.044 A 
ATOM     24  F   UNL     1       1.916   1.043  -5.074  0.00  0.00    -0.205 F 
ENDBRANCH  11  18
BRANCH   4  25
ATOM     25  C   UNL     1       4.226   5.431  -1.889  0.00  0.00    +0.068 A 
ATOM     26  C   UNL     1       5.354   4.782  -1.405  0.00  0.00    +0.028 A 
ATOM     27  C   UNL     1       6.573   5.432  -1.398  0.00  0.00    +0.002 A 
ATOM     28  C   UNL     1       6.668   6.731  -1.861  0.00  0.00    +0.000 A 
ATOM     29  C   UNL     1       5.545   7.382  -2.338  0.00  0.00    +0.002 A 
ATOM     30  C   UNL     1       4.324   6.735  -2.353  0.00  0.00    +0.028 A 
ENDBRANCH   4  25
BRANCH   1  32
ATOM     31  C   UNL     1      -1.268   4.983  -3.065  0.00  0.00    +0.010 C 
ATOM     32  C   UNL     1      -0.253   3.883  -3.384  0.00  0.00    +0.054 C 
ENDBRANCH   1  32
BRANCH  16  33
ATOM     33  C   UNL     1      -2.235  -0.653  -0.449  0.00  0.00    +0.141 C 
BRANCH  33  34
ATOM     34  C   UNL     1      -3.654  -0.163  -0.572  0.00  0.00    -0.030 A 
ATOM     35  C   UNL     1      -4.391   0.111   0.566  0.00  0.00    +0.008 A 
ATOM     36  C   UNL     1      -5.691   0.565   0.455  0.00  0.00    +0.038 A 
ATOM     37  C   UNL     1      -6.260   0.735  -0.796  0.00  0.00    +0.123 A 
ATOM     38  C   UNL     1      -5.523   0.455  -1.935  0.00  0.00    +0.038 A 
ATOM     39  C   UNL     1      -4.221   0.006  -1.821  0.00  0.00    +0.008 A 
ATOM     40  F   UNL     1      -7.533   1.174  -0.906  0.00  0.00    -0.205 F 
ENDBRANCH  33  34
ENDBRANCH  16  33
TORSDOF 5
