REMARK  Name = ZINC38684840
REMARK  11 active torsions:
REMARK  status: ('A' for Active; 'I' for Inactive)
REMARK    1  A    between atoms: C_1  and  C_2
REMARK    2  A    between atoms: C_2  and  O_3
REMARK    3  A    between atoms: O_3  and  C_4
REMARK    4  A    between atoms: C_8  and  C_10
REMARK    5  A    between atoms: C_15  and  O_24
REMARK    6  A    between atoms: C_19  and  N_23
REMARK    7  A    between atoms: C_20  and  C_21
REMARK    8  A    between atoms: O_24  and  C_25
REMARK    9  A    between atoms: C_25  and  C_27
REMARK   10  A    between atoms: C_32  and  O_33
REMARK   11  A    between atoms: O_33  and  C_34
REMARK                            x       y       z     vdW  Elec       q    Type
REMARK                         _______ _______ _______ _____ _____    ______ ____
ROOT
ATOM      1  C   UNL     1       2.263  -4.208  -3.844  0.00  0.00    +0.098 C 
ATOM      2  C   UNL     1       3.428  -5.050  -3.397  0.00  0.00    +0.008 A 
ATOM      3  C   UNL     1       4.622  -4.436  -3.060  0.00  0.00    +0.012 A 
ATOM      4  C   UNL     1       5.701  -5.192  -2.648  0.00  0.00    +0.047 A 
ATOM      5  C   UNL     1       5.592  -6.573  -2.571  0.00  0.00    +0.135 A 
ATOM      6  C   UNL     1       4.398  -7.191  -2.907  0.00  0.00    +0.093 A 
ATOM      7  C   UNL     1       3.313  -6.429  -3.320  0.00  0.00    +0.138 A 
ATOM      8  O   UNL     1       2.152  -7.049  -3.646  0.00  0.00    -0.441 OA
ATOM      9  C   UNL     1       1.240  -6.411  -4.399  0.00  0.00    +0.199 C 
ATOM     10  C   UNL     1       1.239  -5.067  -4.532  0.00  0.00    +0.098 C 
ENDROOT
BRANCH   1  15
ATOM     11  C   UNL     1       1.003  -1.562  -1.458  0.00  0.00    +0.121 A 
ATOM     12  C   UNL     1       0.480  -2.341  -0.436  0.00  0.00    +0.045 A 
ATOM     13  C   UNL     1       0.535  -3.718  -0.521  0.00  0.00    +0.004 A 
ATOM     14  C   UNL     1       1.112  -4.321  -1.624  0.00  0.00    +0.005 A 
ATOM     15  C   UNL     1       1.635  -3.547  -2.643  0.00  0.00    -0.031 A 
ATOM     16  C   UNL     1       1.576  -2.169  -2.566  0.00  0.00    +0.050 A 
BRANCH  11  17
ATOM     17  O   UNL     1       0.949  -0.206  -1.377  0.00  0.00    -0.492 OA
BRANCH  17  19
ATOM     18  C   UNL     1       0.375   1.877  -0.295  0.00  0.00    +0.048 C 
ATOM     19  C   UNL     1       0.344   0.350  -0.208  0.00  0.00    +0.225 C 
ENDBRANCH  17  19
ENDBRANCH  11  17
ENDBRANCH   1  15
BRANCH   9  20
ATOM     20  N   UNL     1       0.282  -7.147  -5.051  0.00  0.00    -0.328 N 
ATOM     21  H   UNL     1       0.270  -8.113  -4.964  0.00  0.00    +0.145 HD
ATOM     22  H   UNL     1      -0.383  -6.701  -5.598  0.00  0.00    +0.145 HD
ENDBRANCH   9  20
BRANCH  10  23
ATOM     23  C   UNL     1       0.239  -4.448  -5.349  0.00  0.00    +0.101 C 
ATOM     24  N   UNL     1      -0.554  -3.957  -5.996  0.00  0.00    -0.191 NA
ENDBRANCH  10  23
BRANCH   5  25
ATOM     25  O   UNL     1       6.654  -7.319  -2.166  0.00  0.00    -0.422 OA
BRANCH  25  26
ATOM     26  C   UNL     1       7.035  -7.229  -0.876  0.00  0.00    +0.348 C 
ATOM     27  O   UNL     1       6.373  -6.580  -0.091  0.00  0.00    -0.244 OA
BRANCH  26  28
ATOM     28  C   UNL     1       8.255  -7.918  -0.419  0.00  0.00    +0.101 A 
ATOM     29  C   UNL     1       9.023  -8.661  -1.321  0.00  0.00    +0.018 A 
ATOM     30  C   UNL     1      10.162  -9.302  -0.887  0.00  0.00    +0.001 A 
ATOM     31  C   UNL     1      10.551  -9.215   0.440  0.00  0.00    +0.004 A 
ATOM     32  C   UNL     1       9.802  -8.485   1.341  0.00  0.00    +0.046 A 
ATOM     33  C   UNL     1       8.656  -7.828   0.921  0.00  0.00    +0.134 A 
BRANCH  33  34
ATOM     34  O   UNL     1       7.922  -7.106   1.804  0.00  0.00    -0.494 OA
ATOM     35  C   UNL     1       8.392  -7.059   3.153  0.00  0.00    +0.277 C 
ENDBRANCH  33  34
ENDBRANCH  26  28
ENDBRANCH  25  26
ENDBRANCH   5  25
TORSDOF 9
