REMARK  Name = ZINC01441798
REMARK  7 active torsions:
REMARK  status: ('A' for Active; 'I' for Inactive)
REMARK    1  A    between atoms: C_3  and  N_8
REMARK    2  A    between atoms: C_9  and  C_11
REMARK    3  A    between atoms: C_11  and  C_12
REMARK    4  A    between atoms: N_16  and  C_30
REMARK    5  A    between atoms: N_19  and  C_20
REMARK    6  A    between atoms: C_20  and  C_21
REMARK    7  A    between atoms: C_21  and  C_22
REMARK                            x       y       z     vdW  Elec       q    Type
REMARK                         _______ _______ _______ _____ _____    ______ ____
ROOT
ATOM      1  C   UNL     1      -0.563   3.306   0.507  0.00  0.00    +0.170 C 
ATOM      2  C   UNL     1       0.788   2.777   0.067  0.00  0.00    +0.242 C 
ATOM      3  O   UNL     1       1.018   1.718  -0.477  0.00  0.00    -0.273 OA
ATOM      4  N   UNL     1       1.679   3.732   0.401  0.00  0.00    -0.249 N 
ATOM      5  C   UNL     1       1.086   4.777   0.989  0.00  0.00    +0.143 C 
ATOM      6  S   UNL     1       1.927   6.163   1.539  0.00  0.00    -0.018 S 
ATOM      7  N   UNL     1      -0.245   4.617   1.101  0.00  0.00    -0.300 N 
ENDROOT
BRANCH   4   8
ATOM      8  C   UNL     1       3.120   3.636   0.152  0.00  0.00    +0.083 C 
ATOM      9  C   UNL     1       3.607   2.498  -0.748  0.00  0.00    +0.025 C 
ATOM     10  C   UNL     1       3.864   2.445   0.759  0.00  0.00    +0.025 C 
ENDBRANCH   4   8
BRANCH   1  11
ATOM     11  C   UNL     1      -1.188   2.382   1.553  0.00  0.00    +0.128 C 
BRANCH  11  13
ATOM     12  N   UNL     1      -3.296   2.260   2.841  0.00  0.00    -0.285 N 
ATOM     13  C   UNL     1      -2.601   2.823   1.833  0.00  0.00    +0.219 C 
ATOM     14  O   UNL     1      -3.114   3.685   1.151  0.00  0.00    -0.275 OA
ATOM     15  H   UNL     1      -2.855   1.649   3.452  0.00  0.00    +0.155 HD
BRANCH  12  18
ATOM     16  C   UNL     1      -6.546   2.896   4.441  0.00  0.00    +0.003 A 
ATOM     17  C   UNL     1      -5.205   2.603   4.280  0.00  0.00    +0.023 A 
ATOM     18  C   UNL     1      -4.654   2.556   3.007  0.00  0.00    +0.035 A 
ATOM     19  C   UNL     1      -5.451   2.809   1.898  0.00  0.00    +0.043 A 
ATOM     20  C   UNL     1      -6.792   3.096   2.064  0.00  0.00    +0.043 A 
ATOM     21  C   UNL     1      -7.339   3.142   3.336  0.00  0.00    +0.020 A 
ATOM     22 CL   UNL     1      -7.792   3.406   0.679  0.00  0.00    -0.083 Cl
ENDBRANCH  12  18
ENDBRANCH  11  13
ENDBRANCH   1  11
BRANCH   7  23
ATOM     23  C   UNL     1      -1.194   5.564   1.691  0.00  0.00    +0.112 C 
BRANCH  23  24
ATOM     24  C   UNL     1      -1.290   5.317   3.198  0.00  0.00    +0.055 C 
BRANCH  24  25
ATOM     25  C   UNL     1      -2.157   6.377   3.826  0.00  0.00    -0.027 A 
ATOM     26  C   UNL     1      -3.498   6.129   4.052  0.00  0.00    +0.006 A 
ATOM     27  C   UNL     1      -4.294   7.101   4.628  0.00  0.00    +0.020 A 
ATOM     28  C   UNL     1      -3.749   8.324   4.979  0.00  0.00    +0.042 A 
ATOM     29  C   UNL     1      -2.407   8.572   4.754  0.00  0.00    +0.040 A 
ATOM     30  C   UNL     1      -1.609   7.596   4.182  0.00  0.00    +0.046 A 
ATOM     31 CL   UNL     1       0.076   7.905   3.906  0.00  0.00    -0.083 Cl
ATOM     32 CL   UNL     1      -4.748   9.544   5.703  0.00  0.00    -0.083 Cl
ENDBRANCH  24  25
ENDBRANCH  23  24
ENDBRANCH   7  23
TORSDOF 7
