REMARK  Name = ZINC20238773
REMARK  5 active torsions:
REMARK  status: ('A' for Active; 'I' for Inactive)
REMARK    1  A    between atoms: C_1  and  C_2
REMARK    2  A    between atoms: C_6  and  C_8
REMARK    3  A    between atoms: C_14  and  C_15
REMARK    4  A    between atoms: C_18  and  S_20
REMARK    5  A    between atoms: S_20  and  C_21
REMARK                            x       y       z     vdW  Elec       q    Type
REMARK                         _______ _______ _______ _____ _____    ______ ____
ROOT
ATOM      1  C   UNL     1      -2.524  -3.294   1.143  0.00  0.00    +0.130 C 
ATOM      2  N   UNL     1      -1.884  -4.341   1.604  0.00  0.00    -0.164 NA
ATOM      3  N   UNL     1      -1.608  -4.470   2.948  0.00  0.00    -0.152 N 
ATOM      4  C   UNL     1      -0.849  -5.502   3.539  0.00  0.00    +0.153 C 
ATOM      5  N   UNL     1       0.027  -6.219   2.879  0.00  0.00    -0.283 NA
ATOM      6  C   UNL     1      -1.140  -5.697   4.982  0.00  0.00    +0.084 C 
ATOM      7  C   UNL     1      -1.080  -6.953   5.579  0.00  0.00    +0.063 C 
ATOM      8  C   UNL     1      -1.495  -4.486   5.753  0.00  0.00    +0.273 C 
ATOM      9  O   UNL     1      -1.309  -4.432   6.959  0.00  0.00    -0.268 OA
ATOM     10  N   UNL     1      -2.031  -3.442   5.087  0.00  0.00    -0.152 NA
ATOM     11  C   UNL     1      -2.097  -3.485   3.780  0.00  0.00    +0.181 C 
ATOM     12  S   UNL     1      -2.821  -2.347   2.630  0.00  0.00    -0.033 S 
ATOM     13  H   UNL     1       0.153  -6.075   1.928  0.00  0.00    +0.188 HD
ENDROOT
BRANCH   1  19
ATOM     14  C   UNL     1      -4.668  -0.224  -2.157  0.00  0.00    +0.044 C 
ATOM     15  C   UNL     1      -3.930  -1.501  -1.844  0.00  0.00    -0.050 A 
ATOM     16  C   UNL     1      -3.603  -2.377  -2.863  0.00  0.00    +0.003 A 
ATOM     17  C   UNL     1      -2.926  -3.551  -2.583  0.00  0.00    +0.001 A 
ATOM     18  C   UNL     1      -2.573  -3.854  -1.284  0.00  0.00    +0.010 A 
ATOM     19  C   UNL     1      -2.900  -2.974  -0.252  0.00  0.00    +0.009 A 
ATOM     20  C   UNL     1      -3.578  -1.790  -0.542  0.00  0.00    +0.014 A 
ENDBRANCH   1  19
BRANCH   7  21
ATOM     21  C   UNL     1      -0.992  -8.100   4.785  0.00  0.00    +0.130 A 
ATOM     22  C   UNL     1      -0.816  -9.401   5.245  0.00  0.00    +0.050 A 
ATOM     23  C   UNL     1      -0.784 -10.223   4.124  0.00  0.00    +0.057 A 
ATOM     24  C   UNL     1      -0.939  -9.410   3.019  0.00  0.00    +0.167 A 
ATOM     25  O   UNL     1      -1.068  -8.140   3.435  0.00  0.00    -0.449 OA
BRANCH  24  26
ATOM     26  S   UNL     1      -0.970  -9.950   1.343  0.00  0.00    -0.051 S 
BRANCH  26  27
ATOM     27  C   UNL     1      -2.687 -10.070   0.965  0.00  0.00    +0.023 A 
ATOM     28  C   UNL     1      -3.633  -9.838   1.942  0.00  0.00    +0.016 A 
ATOM     29  C   UNL     1      -4.990  -9.930   1.653  0.00  0.00    +0.002 A 
ATOM     30  C   UNL     1      -5.423 -10.250   0.402  0.00  0.00    +0.008 A 
ATOM     31  C   UNL     1      -4.493 -10.494  -0.622  0.00  0.00    -0.017 A 
ATOM     32  C   UNL     1      -3.107 -10.398  -0.343  0.00  0.00    -0.004 A 
ATOM     33  C   UNL     1      -2.179 -10.637  -1.368  0.00  0.00    +0.009 A 
ATOM     34  C   UNL     1      -2.621 -10.951  -2.617  0.00  0.00    +0.001 A 
ATOM     35  C   UNL     1      -3.983 -11.040  -2.895  0.00  0.00    +0.001 A 
ATOM     36  C   UNL     1      -4.912 -10.826  -1.922  0.00  0.00    +0.008 A 
ENDBRANCH  26  27
ENDBRANCH  24  26
ENDBRANCH   7  21
TORSDOF 4
