REMARK  Name = ZINC16026568
REMARK  14 active torsions:
REMARK  status: ('A' for Active; 'I' for Inactive)
REMARK    1  A    between atoms: CD1_1  and  CG1_2
REMARK    2  A    between atoms: CG1_2  and  CB_3
REMARK    3  A    between atoms: CB_3  and  CG2_5
REMARK    4  A    between atoms: CB_3  and  CA_6
REMARK    5  A    between atoms: CA_6  and  C_8
REMARK    6  A    between atoms: CA_6  and  N_10
REMARK    7  A    between atoms: C_11  and  CA_13
REMARK    8  A    between atoms: CA_13  and  CB_15
REMARK    9  A    between atoms: CA_13  and  N_18
REMARK   10  A    between atoms: CB_15  and  CG1_16
REMARK   11  A    between atoms: CB_15  and  CG2_17
REMARK   12  A    between atoms: C_19  and  C_21
REMARK   13  A    between atoms: C_23  and  C_36
REMARK   14  A    between atoms: C_23  and  C_37
REMARK                            x       y       z     vdW  Elec       q    Type
REMARK                         _______ _______ _______ _____ _____    ______ ____
ROOT
ATOM      1  N   VAL A   1       4.362  -1.002   4.729  0.00  0.00    -0.302 N 
ATOM      2  C   UNK A   0       5.060  -1.779   5.580  0.00  0.00    +0.236 C 
ATOM      3  O   UNK A   0       5.628  -2.769   5.169  0.00  0.00    -0.274 OA
ATOM      4  H   VAL A   1       3.928  -0.196   5.052  0.00  0.00    +0.150 HD
ENDROOT
BRANCH   2   5
ATOM      5  C   UNK A   0       5.134  -1.419   7.041  0.00  0.00    +0.179 C 
ATOM      6  C   UNK A   0       3.843  -1.909   7.739  0.00  0.00    +0.040 C 
ATOM      7  S   UNK A   0       4.526  -2.852   9.168  0.00  0.00    -0.125 S 
ATOM      8  C   UNK A   0       6.236  -2.171   9.084  0.00  0.00    +0.167 C 
ATOM      9  N   UNK A   0       6.354  -1.998   7.606  0.00  0.00    -0.269 N 
ATOM     10  C   UNK A   0       7.573  -2.474   7.270  0.00  0.00    +0.249 C 
ATOM     11  O   UNK A   0       8.169  -2.205   6.245  0.00  0.00    -0.270 OA
ATOM     12  C   UNK A   0       8.072  -3.368   8.332  0.00  0.00    +0.043 A 
ATOM     13  C   UNK A   0       7.240  -3.226   9.447  0.00  0.00    -0.005 A 
ATOM     14  C   UNK A   0       7.466  -3.974  10.579  0.00  0.00    +0.007 A 
ATOM     15  C   UNK A   0       8.531  -4.859  10.624  0.00  0.00    +0.000 A 
ATOM     16  C   UNK A   0       9.371  -4.993   9.533  0.00  0.00    +0.001 A 
ATOM     17  C   UNK A   0       9.148  -4.254   8.388  0.00  0.00    +0.013 A 
ATOM     18  C   UNK A   0       2.997  -0.728   8.219  0.00  0.00    +0.025 C 
ATOM     19  C   UNK A   0       3.034  -2.822   6.816  0.00  0.00    +0.025 C 
ENDBRANCH   2   5
BRANCH   1  20
ATOM     20  CA  VAL A   1       4.258  -1.372   3.315  0.00  0.00    +0.161 C 
BRANCH  20  22
ATOM     21  N   VAL A   1       4.324  -0.188   1.144  0.00  0.00    -0.300 N 
ATOM     22  C   VAL A   1       4.132  -0.126   2.477  0.00  0.00    +0.234 C 
ATOM     23  O   VAL A   1       3.858   0.932   3.001  0.00  0.00    -0.274 OA
ATOM     24  H   VAL A   1       4.473  -1.045   0.715  0.00  0.00    +0.150 HD
BRANCH  21  25
ATOM     25  CA  VAL A   1       4.308   1.039   0.344  0.00  0.00    +0.189 C 
BRANCH  25  26
ATOM     26  C   VAL A   1       2.887   1.381  -0.022  0.00  0.00    +0.376 C 
ATOM     27  O   VAL A   1       2.015   0.555   0.104  0.00  0.00    -0.244 OA
ATOM     28  OXT VAL A   1       2.591   2.603  -0.494  0.00  0.00    -0.244 OA
ENDBRANCH  25  26
BRANCH  25  29
ATOM     29  CB  VAL A   1       5.127   0.827  -0.931  0.00  0.00    +0.017 C 
ATOM     30  CG2 VAL A   1       4.608  -0.408  -1.671  0.00  0.00    +0.010 C 
BRANCH  29  32
ATOM     31  CD1 VAL A   1       7.434   0.528  -1.843  0.00  0.00    +0.004 C 
ATOM     32  CG1 VAL A   1       6.598   0.621  -0.565  0.00  0.00    +0.002 C 
ENDBRANCH  29  32
ENDBRANCH  25  29
ENDBRANCH  21  25
ENDBRANCH  20  22
BRANCH  20  33
ATOM     33  CB  VAL A   1       3.024  -2.253   3.108  0.00  0.00    +0.012 C 
ATOM     34  CG1 VAL A   1       3.229  -3.592   3.818  0.00  0.00    +0.009 C 
ATOM     35  CG2 VAL A   1       1.794  -1.552   3.687  0.00  0.00    +0.009 C 
ENDBRANCH  20  33
ENDBRANCH   1  20
TORSDOF 8
