REMARK  Name = ZINC41586289
REMARK  15 active torsions:
REMARK  status: ('A' for Active; 'I' for Inactive)
REMARK    1  A    between atoms: C_1  and  C_2
REMARK    2  A    between atoms: C_2  and  O_3
REMARK    3  A    between atoms: O_3  and  C_4
REMARK    4  A    between atoms: C_4  and  C_6
REMARK    5  A    between atoms: N_9  and  C_12
REMARK    6  A    between atoms: C_12  and  C_13
REMARK    7  A    between atoms: C_14  and  O_33
REMARK    8  A    between atoms: C_15  and  C_25
REMARK    9  A    between atoms: C_23  and  C_24
REMARK   10  A    between atoms: C_25  and  C_26
REMARK   11  A    between atoms: C_26  and  C_27
REMARK   12  A    between atoms: C_27  and  O_29
REMARK   13  A    between atoms: O_29  and  C_30
REMARK   14  A    between atoms: C_30  and  C_31
REMARK   15  A    between atoms: C_30  and  C_32
REMARK                            x       y       z     vdW  Elec       q    Type
REMARK                         _______ _______ _______ _____ _____    ______ ____
ROOT
ATOM      1  C   UNL     1      -5.976  -6.238   1.600  0.00  0.00    +0.021 A 
ATOM      2  C   UNL     1      -5.942  -7.042   0.473  0.00  0.00    +0.125 A 
ATOM      3  C   UNL     1      -5.782  -8.421   0.592  0.00  0.00    -0.004 A 
ATOM      4  C   UNL     1      -5.657  -8.999   1.822  0.00  0.00    +0.019 A 
ATOM      5  C   UNL     1      -5.689  -8.202   2.971  0.00  0.00    +0.021 A 
ATOM      6  C   UNL     1      -5.845  -6.807   2.857  0.00  0.00    +0.144 A 
ATOM      7  O   UNL     1      -5.870  -6.041   3.968  0.00  0.00    -0.422 OA
ATOM      8  C   UNL     1      -5.743  -6.577   5.192  0.00  0.00    +0.337 A 
ATOM      9  O   UNL     1      -5.772  -5.846   6.166  0.00  0.00    -0.245 OA
ATOM     10  C   UNL     1      -5.578  -7.965   5.380  0.00  0.00    +0.096 A 
ATOM     11  C   UNL     1      -5.557  -8.794   4.304  0.00  0.00    -0.033 A 
ATOM     12  C   UNL     1      -5.383 -10.281   4.476  0.00  0.00    +0.045 C 
ENDROOT
BRANCH   2  13
ATOM     13  O   UNL     1      -6.066  -6.482  -0.758  0.00  0.00    -0.506 OA
ATOM     14  H   UNL     1      -5.224  -6.222  -1.158  0.00  0.00    +0.292 HD
ENDBRANCH   2  13
BRANCH   1  15
ATOM     15  C   UNL     1      -6.150  -4.747   1.460  0.00  0.00    -0.036 C 
BRANCH  15  19
ATOM     16  C   UNL     1      -2.881  -2.427   0.017  0.00  0.00    +0.094 C 
ATOM     17  C   UNL     1      -3.621  -1.980   1.281  0.00  0.00    -0.004 C 
ATOM     18  C   UNL     1      -4.996  -2.651   1.324  0.00  0.00    -0.078 C 
ATOM     19  N   UNL     1      -4.832  -4.110   1.340  0.00  0.00    +0.383 N 
ATOM     20  C   UNL     1      -4.188  -4.552   0.098  0.00  0.00    -0.078 C 
ATOM     21  C   UNL     1      -2.782  -3.955   0.007  0.00  0.00    -0.004 C 
ATOM     22  H   UNL     1      -4.260  -4.374   2.128  0.00  0.00    -0.081 HD
BRANCH  16  23
ATOM     23  C   UNL     1      -1.496  -1.832   0.006  0.00  0.00    +0.310 C 
ATOM     24  O   UNL     1      -0.528  -2.555  -0.007  0.00  0.00    -0.251 OA
BRANCH  23  25
ATOM     25  O   UNL     1      -1.339  -0.499   0.012  0.00  0.00    -0.465 OA
BRANCH  25  27
ATOM     26  C   UNL     1      -0.019   1.526   0.010  0.00  0.00    +0.048 C 
ATOM     27  C   UNL     1       0.002  -0.004   0.002  0.00  0.00    +0.229 C 
ENDBRANCH  25  27
ENDBRANCH  23  25
ENDBRANCH  16  23
ENDBRANCH  15  19
ENDBRANCH   1  15
BRANCH   3  28
ATOM     28  C   UNL     1      -5.748  -9.280  -0.646  0.00  0.00    +0.050 C 
BRANCH  28  29
ATOM     29  C   UNL     1      -4.325  -9.310  -1.208  0.00  0.00    +0.125 C 
BRANCH  29  30
ATOM     30  C   UNL     1      -4.291 -10.169  -2.445  0.00  0.00    +0.308 C 
ATOM     31  O   UNL     1      -5.302 -10.703  -2.838  0.00  0.00    -0.251 OA
BRANCH  30  32
ATOM     32  O   UNL     1      -3.139 -10.341  -3.112  0.00  0.00    -0.462 OA
BRANCH  32  33
ATOM     33  C   UNL     1      -3.180 -11.168  -4.276  0.00  0.00    +0.170 C 
ATOM     34  C   UNL     1      -2.121 -10.696  -5.274  0.00  0.00    +0.052 C 
ATOM     35  C   UNL     1      -2.898 -12.619  -3.881  0.00  0.00    +0.052 C 
ENDBRANCH  32  33
ENDBRANCH  30  32
ENDBRANCH  29  30
ENDBRANCH  28  29
ENDBRANCH   3  28
TORSDOF 11
