REMARK  Name = ZINC12445661
REMARK  6 active torsions:
REMARK  status: ('A' for Active; 'I' for Inactive)
REMARK    1  A    between atoms: C_1  and  C_2
REMARK    2  A    between atoms: C_4  and  C_32
REMARK    3  A    between atoms: C_20  and  C_23
REMARK    4  A    between atoms: C_28  and  C_29
REMARK    5  A    between atoms: C_32  and  O_33
REMARK    6  A    between atoms: O_33  and  C_34
REMARK                            x       y       z     vdW  Elec       q    Type
REMARK                         _______ _______ _______ _____ _____    ______ ____
ROOT
ATOM      1  C   UNL     1      -0.182   1.435   0.732  0.00  0.00    +0.065 C 
ATOM      2  C   UNL     1      -0.131  -0.064   0.588  0.00  0.00    +0.040 A 
ATOM      3  C   UNL     1      -0.113  -0.614  -0.682  0.00  0.00    +0.029 A 
ATOM      4  C   UNL     1      -0.066  -1.979  -0.891  0.00  0.00    -0.009 A 
ATOM      5  C   UNL     1      -0.036  -2.785   0.278  0.00  0.00    +0.035 A 
ATOM      6  C   UNL     1       0.021  -4.230   0.330  0.00  0.00    +0.056 A 
ATOM      7  C   UNL     1       0.028  -4.793   1.596  0.00  0.00    +0.078 A 
ATOM      8  S   UNL     1      -0.013  -3.434   2.715  0.00  0.00    -0.064 S 
ATOM      9  C   UNL     1      -0.059  -2.118   1.535  0.00  0.00    +0.111 A 
ATOM     10  N   UNL     1      -0.099  -0.813   1.683  0.00  0.00    -0.245 NA
ATOM     11  C   UNL     1       0.047  -6.232   1.787  0.00  0.00    +0.152 A 
ATOM     12  N   UNL     1       0.205  -6.979   2.844  0.00  0.00    -0.227 NA
ATOM     13  C   UNL     1       0.190  -8.276   2.481  0.00  0.00    +0.090 A 
ATOM     14  C   UNL     1       0.333  -9.451   3.230  0.00  0.00    +0.030 A 
ATOM     15  C   UNL     1       0.277 -10.647   2.538  0.00  0.00    +0.002 A 
ATOM     16  C   UNL     1       0.090 -10.693   1.167  0.00  0.00    +0.002 A 
ATOM     17  C   UNL     1      -0.056  -9.545   0.406  0.00  0.00    +0.028 A 
ATOM     18  C   UNL     1      -0.009  -8.327   1.076  0.00  0.00    +0.071 A 
ATOM     19  N   UNL     1      -0.127  -7.037   0.659  0.00  0.00    -0.300 N 
ATOM     20  C   UNL     1      -0.413  -6.477  -0.663  0.00  0.00    +0.206 C 
ATOM     21  N   UNL     1       0.093  -5.104  -0.780  0.00  0.00    -0.319 N 
ATOM     22  H   UNL     1       0.476  -4.797  -1.617  0.00  0.00    +0.148 HD
ENDROOT
BRANCH  20  23
ATOM     23  C   UNL     1      -1.903  -6.473  -0.885  0.00  0.00    +0.007 A 
ATOM     24  C   UNL     1      -2.762  -6.644   0.181  0.00  0.00    +0.008 A 
ATOM     25  C   UNL     1      -4.130  -6.641  -0.021  0.00  0.00    +0.000 A 
ATOM     26  C   UNL     1      -4.649  -6.466  -1.293  0.00  0.00    +0.001 A 
ATOM     27  C   UNL     1      -3.802  -6.295  -2.368  0.00  0.00    +0.015 A 
ATOM     28  C   UNL     1      -2.419  -6.291  -2.171  0.00  0.00    +0.070 A 
BRANCH  28  29
ATOM     29  C   UNL     1      -1.507  -6.101  -3.315  0.00  0.00    +0.387 C 
ATOM     30  O   UNL     1      -1.960  -5.842  -4.421  0.00  0.00    -0.241 OA
ATOM     31  O   UNL     1      -0.299  -6.202  -3.157  0.00  0.00    -0.241 OA
ENDBRANCH  28  29
ENDBRANCH  20  23
BRANCH   4  32
ATOM     32  C   UNL     1      -0.048  -2.576  -2.274  0.00  0.00    +0.195 C 
BRANCH  32  33
ATOM     33  O   UNL     1      -0.086  -1.529  -3.245  0.00  0.00    -0.378 OA
ATOM     34  C   UNL     1      -0.073  -1.989  -4.598  0.00  0.00    +0.194 C 
ENDBRANCH  32  33
ENDBRANCH   4  32
TORSDOF 4
