REMARK  Name = ZINC08695233
REMARK  20 active torsions:
REMARK  status: ('A' for Active; 'I' for Inactive)
REMARK    1  A    between atoms: C_1  and  C_2
REMARK    2  A    between atoms: C_2  and  C_3
REMARK    3  A    between atoms: C_3  and  C_4
REMARK    4  A    between atoms: C_4  and  N_77
REMARK    5  A    between atoms: C_5  and  C_6
REMARK    6  A    between atoms: C_5  and  N_77
REMARK    7  A    between atoms: C_6  and  C_7
REMARK    8  A    between atoms: C_7  and  C_8
REMARK    9  A    between atoms: C_9  and  C_10
REMARK   10  A    between atoms: C_9  and  N_77
REMARK   11  A    between atoms: C_10  and  C_11
REMARK   12  A    between atoms: C_11  and  N_12
REMARK   13  A    between atoms: C_13  and  C_29
REMARK   14  A    between atoms: C_15  and  C_20
REMARK   15  A    between atoms: C_16  and  O_19
REMARK   16  A    between atoms: C_20  and  C_22
REMARK   17  A    between atoms: C_25  and  C_28
REMARK   18  A    between atoms: C_32  and  O_37
REMARK   19  A    between atoms: C_33  and  O_35
REMARK   20  A    between atoms: O_35  and  C_36
REMARK                            x       y       z     vdW  Elec       q    Type
REMARK                         _______ _______ _______ _____ _____    ______ ____
ROOT
ATOM      1  N   UNL     1       3.761  -0.681   4.014  0.00  0.00    -0.284 N 
ATOM      2  C   UNL     1       2.463  -0.200   3.528  0.00  0.00    +0.145 C 
ATOM      3  C   UNL     1       1.534  -0.215   4.719  0.00  0.00    +0.071 C 
ATOM      4  C   UNL     1       2.255  -0.664   5.772  0.00  0.00    +0.188 C 
ATOM      5  C   UNL     1       3.635  -0.952   5.328  0.00  0.00    +0.282 C 
ATOM      6  O   UNL     1       4.525  -1.371   6.041  0.00  0.00    -0.267 OA
ENDROOT
BRANCH   2   7
ATOM      7  C   UNL     1       1.941  -1.118   2.452  0.00  0.00    -0.019 A 
ATOM      8  C   UNL     1       2.038  -2.488   2.608  0.00  0.00    +0.009 A 
ATOM      9  C   UNL     1       1.560  -3.334   1.624  0.00  0.00    +0.049 A 
ATOM     10  C   UNL     1       0.983  -2.809   0.479  0.00  0.00    +0.158 A 
ATOM     11  C   UNL     1       0.886  -1.430   0.323  0.00  0.00    +0.162 A 
ATOM     12  C   UNL     1       1.372  -0.587   1.310  0.00  0.00    +0.055 A 
BRANCH  10  13
ATOM     13  O   UNL     1       0.513  -3.639  -0.489  0.00  0.00    -0.503 OA
ATOM     14  H   UNL     1       1.168  -3.869  -1.163  0.00  0.00    +0.292 HD
ENDBRANCH  10  13
BRANCH  11  15
ATOM     15  O   UNL     1       0.320  -0.909  -0.799  0.00  0.00    -0.491 OA
ATOM     16  C   UNL     1       0.359   0.511  -0.947  0.00  0.00    +0.277 C 
ENDBRANCH  11  15
ENDBRANCH   2   7
BRANCH   3  17
ATOM     17  C   UNL     1       0.122   0.182   4.731  0.00  0.00    +0.195 C 
ATOM     18  O   UNL     1      -0.742  -0.652   4.926  0.00  0.00    -0.287 OA
BRANCH  17  19
ATOM     19  C   UNL     1      -0.251   1.595   4.507  0.00  0.00    +0.022 A 
ATOM     20  C   UNL     1       0.732   2.541   4.208  0.00  0.00    +0.012 A 
ATOM     21  C   UNL     1       0.377   3.856   3.995  0.00  0.00    +0.004 A 
ATOM     22  C   UNL     1      -0.949   4.242   4.087  0.00  0.00    -0.050 A 
ATOM     23  C   UNL     1      -1.928   3.310   4.388  0.00  0.00    +0.004 A 
ATOM     24  C   UNL     1      -1.587   1.991   4.599  0.00  0.00    +0.012 A 
ATOM     25  C   UNL     1      -1.329   5.682   3.859  0.00  0.00    +0.044 C 
ENDBRANCH  17  19
ENDBRANCH   3  17
BRANCH   4  26
ATOM     26  O   UNL     1       1.788  -0.825   7.031  0.00  0.00    -0.502 OA
ATOM     27  H   UNL     1       2.521  -1.170   7.618  0.00  0.00    +0.292 HD
ENDBRANCH   4  26
BRANCH   1  28
ATOM     28  C   UNL     1       4.978  -0.839   3.213  0.00  0.00    +0.107 C 
BRANCH  28  29
ATOM     29  C   UNL     1       5.784   0.461   3.249  0.00  0.00    +0.000 C 
BRANCH  29  30
ATOM     30  C   UNL     1       7.054   0.296   2.412  0.00  0.00    -0.077 C 
BRANCH  30  31
ATOM     31  N   UNL     1       7.811   1.566   2.440  0.00  0.00    +0.380 N 
ATOM     32  H   UNL     1       7.183   2.335   2.179  0.00  0.00    -0.082 HD
BRANCH  31  33
ATOM     33  C   UNL     1       8.927   1.509   1.472  0.00  0.00    -0.079 C 
BRANCH  33  34
ATOM     34  C   UNL     1       9.611   2.877   1.425  0.00  0.00    -0.019 C 
BRANCH  34  35
ATOM     35  C   UNL     1      10.665   2.883   0.316  0.00  0.00    -0.005 C 
ATOM     36  C   UNL     1      11.349   4.251   0.269  0.00  0.00    +0.004 C 
ENDBRANCH  34  35
ENDBRANCH  33  34
ENDBRANCH  31  33
BRANCH  31  37
ATOM     37  C   UNL     1       8.334   1.813   3.800  0.00  0.00    -0.079 C 
BRANCH  37  38
ATOM     38  C   UNL     1       9.342   0.731   4.192  0.00  0.00    -0.019 C 
BRANCH  38  40
ATOM     39  C   UNL     1      10.785  -0.141   6.036  0.00  0.00    +0.004 C 
ATOM     40  C   UNL     1       9.777   0.941   5.644  0.00  0.00    -0.005 C 
ENDBRANCH  38  40
ENDBRANCH  37  38
ENDBRANCH  31  37
ENDBRANCH  30  31
ENDBRANCH  29  30
ENDBRANCH  28  29
ENDBRANCH   1  28
TORSDOF 16
