REMARK  Name = ZINC64697479
REMARK  12 active torsions:
REMARK  status: ('A' for Active; 'I' for Inactive)
REMARK    1  A    between atoms: C_1  and  C_2
REMARK    2  A    between atoms: C_3  and  C_33
REMARK    3  A    between atoms: C_4  and  C_32
REMARK    4  A    between atoms: C_7  and  C_8
REMARK    5  A    between atoms: C_8  and  C_10
REMARK    6  A    between atoms: C_10  and  C_12
REMARK    7  A    between atoms: C_10  and  N_13
REMARK    8  A    between atoms: N_13  and  C_14
REMARK    9  A    between atoms: C_14  and  C_15
REMARK   10  A    between atoms: C_15  and  C_17
REMARK   11  A    between atoms: C_15  and  C_23
REMARK   12  A    between atoms: C_33  and  C_35
REMARK                            x       y       z     vdW  Elec       q    Type
REMARK                         _______ _______ _______ _____ _____    ______ ____
ROOT
ATOM      1  C   UNL     1       0.294  -2.540   5.711  0.00  0.00    +0.094 C 
ENDROOT
BRANCH   1   2
ATOM      2  N   UNL     1      -0.266  -1.494   4.845  0.00  0.00    -0.306 NA
ATOM      3  H   UNL     1       0.292  -0.655   4.884  0.00  0.00    +0.123 HD
BRANCH   2   4
ATOM      4  C   UNL     1      -0.401  -1.972   3.462  0.00  0.00    +0.124 C 
ATOM      5  C   UNL     1      -1.727  -2.719   3.307  0.00  0.00    +0.032 C 
BRANCH   4   6
ATOM      6  C   UNL     1      -0.372  -0.797   2.519  0.00  0.00    +0.196 C 
ATOM      7  O   UNL     1      -0.526   0.329   2.947  0.00  0.00    -0.289 OA
BRANCH   6  14
ATOM      8  C   UNL     1      -0.275   1.458   0.383  0.00  0.00    +0.047 C 
ATOM      9  C   UNL     1      -0.118  -0.026   0.167  0.00  0.00    -0.012 A 
ATOM     10  C   UNL     1       0.112  -0.678  -1.065  0.00  0.00    +0.041 A 
ATOM     11  C   UNL     1       0.189  -2.038  -0.799  0.00  0.00    +0.024 A 
ATOM     12  N   UNL     1       0.018  -2.227   0.517  0.00  0.00    -0.355 N 
ATOM     13  H   UNL     1       0.027  -3.086   0.966  0.00  0.00    +0.166 HD
ATOM     14  C   UNL     1      -0.167  -1.006   1.134  0.00  0.00    +0.088 A 
ATOM     15  C   UNL     1       0.425  -3.121  -1.819  0.00  0.00    +0.064 C 
BRANCH  10  16
ATOM     16  C   UNL     1       0.243  -0.039  -2.379  0.00  0.00    +0.162 C 
ATOM     17  O   UNL     1      -0.745   0.181  -3.048  0.00  0.00    -0.292 OA
ATOM     18  C   UNL     1       1.605   0.344  -2.897  0.00  0.00    +0.091 C 
ENDBRANCH  10  16
ENDBRANCH   6  14
ENDBRANCH   4   6
ENDBRANCH   2   4
ENDBRANCH   1   2
BRANCH   1  19
ATOM     19  C   UNL     1       0.419  -2.006   7.139  0.00  0.00    +0.061 C 
BRANCH  19  20
ATOM     20  C   UNL     1       1.105  -3.034   8.002  0.00  0.00    -0.033 C 
ATOM     21  C   UNL     1       2.263  -2.881   8.684  0.00  0.00    -0.000 A 
ATOM     22  C   UNL     1       3.194  -1.754   8.821  0.00  0.00    +0.010 A 
ATOM     23  C   UNL     1       4.296  -1.905   9.591  0.00  0.00    +0.001 A 
ATOM     24  C   UNL     1       4.570  -3.106  10.259  0.00  0.00    +0.002 A 
ATOM     25  C   UNL     1       3.762  -4.185  10.181  0.00  0.00    +0.026 A 
ATOM     26  C   UNL     1       2.575  -4.138   9.400  0.00  0.00    +0.043 A 
ATOM     27  N   UNL     1       1.646  -5.034   9.169  0.00  0.00    -0.380 N 
ATOM     28  C   UNL     1       0.636  -4.444   8.284  0.00  0.00    +0.145 C 
ATOM     29  H   UNL     1       1.628  -5.936   9.527  0.00  0.00    +0.160 HD
ENDBRANCH  19  20
BRANCH  19  30
ATOM     30  C   UNL     1      -0.955  -1.724   7.692  0.00  0.00    -0.039 A 
ATOM     31  C   UNL     1      -1.879  -2.745   7.802  0.00  0.00    +0.004 A 
ATOM     32  C   UNL     1      -3.139  -2.486   8.309  0.00  0.00    +0.000 A 
ATOM     33  C   UNL     1      -3.474  -1.205   8.706  0.00  0.00    +0.000 A 
ATOM     34  C   UNL     1      -2.549  -0.183   8.597  0.00  0.00    +0.000 A 
ATOM     35  C   UNL     1      -1.288  -0.444   8.094  0.00  0.00    +0.004 A 
ENDBRANCH  19  30
ENDBRANCH   1  19
TORSDOF 8
