REMARK  Name = ZINC20928638
REMARK  7 active torsions:
REMARK  status: ('A' for Active; 'I' for Inactive)
REMARK    1  A    between atoms: C_1  and  C_2
REMARK    2  A    between atoms: C_7  and  N_8
REMARK    3  A    between atoms: N_12  and  S_27
REMARK    4  A    between atoms: C_14  and  C_15
REMARK    5  A    between atoms: C_14  and  C_16
REMARK    6  A    between atoms: N_18  and  C_19
REMARK    7  A    between atoms: S_27  and  C_30
REMARK                            x       y       z     vdW  Elec       q    Type
REMARK                         _______ _______ _______ _____ _____    ______ ____
ROOT
ATOM      1  N   UNL     1       1.782   0.439  -1.192  0.00  0.00    -0.254 N 
ATOM      2  C   UNL     1       1.849   1.319  -0.192  0.00  0.00    +0.236 C 
ATOM      3  O   UNL     1       2.830   2.028  -0.110  0.00  0.00    -0.274 OA
ATOM      4  C   UNL     1       0.765   1.474   0.839  0.00  0.00    +0.205 C 
ATOM      5  N   UNL     1      -0.434   0.755   0.380  0.00  0.00    -0.165 NA
ATOM      6  C   UNL     1      -0.235  -0.575  -0.220  0.00  0.00    +0.145 C 
ATOM      7  C   UNL     1       0.632  -0.410  -1.470  0.00  0.00    +0.129 C 
ATOM      8  C   UNL     1       1.121  -1.786  -1.928  0.00  0.00    +0.043 C 
ENDROOT
BRANCH   1  15
ATOM      9  C   UNL     1       2.479   2.674  -2.810  0.00  0.00    +0.045 C 
ATOM     10  C   UNL     1       3.269   1.391  -2.840  0.00  0.00    -0.029 A 
ATOM     11  C   UNL     1       4.367   1.274  -3.670  0.00  0.00    +0.005 A 
ATOM     12  C   UNL     1       5.093   0.098  -3.698  0.00  0.00    +0.000 A 
ATOM     13  C   UNL     1       4.722  -0.966  -2.896  0.00  0.00    +0.002 A 
ATOM     14  C   UNL     1       3.628  -0.854  -2.060  0.00  0.00    +0.024 A 
ATOM     15  C   UNL     1       2.894   0.325  -2.034  0.00  0.00    +0.040 A 
ENDBRANCH   1  15
BRANCH   7  16
ATOM     16  C   UNL     1      -0.192   0.213  -2.567  0.00  0.00    +0.238 C 
ATOM     17  O   UNL     1      -1.402   0.230  -2.481  0.00  0.00    -0.273 OA
ATOM     18  N   UNL     1       0.415   0.750  -3.643  0.00  0.00    -0.311 N 
ATOM     19  H   UNL     1       1.506   0.669  -3.757  0.00  0.00    +0.149 HD
BRANCH  18  20
ATOM     20  C   UNL     1      -0.378   1.444  -4.661  0.00  0.00    +0.073 C 
ATOM     21  C   UNL     1      -0.925   0.425  -5.663  0.00  0.00    +0.022 C 
ATOM     22  C   UNL     1      -2.053   1.064  -6.475  0.00  0.00    +0.002 C 
ATOM     23  C   UNL     1      -2.973   1.852  -5.540  0.00  0.00    +0.000 C 
ATOM     24  C   UNL     1      -2.854   3.346  -5.848  0.00  0.00    +0.000 C 
ATOM     25  C   UNL     1      -1.542   3.882  -5.272  0.00  0.00    +0.000 C 
ATOM     26  C   UNL     1      -0.377   3.442  -6.161  0.00  0.00    +0.002 C 
ATOM     27  C   UNL     1       0.506   2.455  -5.394  0.00  0.00    +0.022 C 
ENDBRANCH  18  20
ENDBRANCH   7  16
BRANCH   5  28
ATOM     28  S   UNL     1      -1.944   1.418   0.526  0.00  0.00    +0.061 S 
ATOM     29  O   UNL     1      -1.765   2.826   0.593  0.00  0.00    -0.153 OA
ATOM     30  O   UNL     1      -2.756   0.799  -0.462  0.00  0.00    -0.153 OA
BRANCH  28  31
ATOM     31  C   UNL     1      -2.584   0.917   2.090  0.00  0.00    +0.105 A 
ATOM     32  C   UNL     1      -3.316  -0.250   2.195  0.00  0.00    +0.028 A 
ATOM     33  C   UNL     1      -3.814  -0.645   3.422  0.00  0.00    +0.002 A 
ATOM     34  C   UNL     1      -3.588   0.132   4.543  0.00  0.00    +0.000 A 
ATOM     35  C   UNL     1      -2.860   1.302   4.436  0.00  0.00    +0.002 A 
ATOM     36  C   UNL     1      -2.358   1.695   3.210  0.00  0.00    +0.028 A 
ENDBRANCH  28  31
ENDBRANCH   5  28
TORSDOF 5
