REMARK  Name = ZINC08622697
REMARK  7 active torsions:
REMARK  status: ('A' for Active; 'I' for Inactive)
REMARK    1  A    between atoms: C_1  and  C_2
REMARK    2  A    between atoms: C_2  and  C_4
REMARK    3  A    between atoms: C_2  and  N_14
REMARK    4  A    between atoms: C_15  and  C_17
REMARK    5  A    between atoms: C_17  and  N_18
REMARK    6  A    between atoms: C_21  and  C_25
REMARK    7  A    between atoms: C_21  and  C_26
REMARK                            x       y       z     vdW  Elec       q    Type
REMARK                         _______ _______ _______ _____ _____    ______ ____
ROOT
ATOM      1  C   UNL     1      -0.018   1.461   0.010  0.00  0.00    +0.213 C 
ENDROOT
BRANCH   1   2
ATOM      2  N   UNL     1       0.002  -0.004   0.002  0.00  0.00    -0.215 N 
ATOM      3  C   UNL     1      -0.958  -0.771  -0.550  0.00  0.00    +0.251 C 
ATOM      4  O   UNL     1      -1.964  -0.394  -1.112  0.00  0.00    -0.272 OA
ATOM      5  C   UNL     1      -0.520  -2.204  -0.323  0.00  0.00    +0.135 C 
ATOM      6  N   UNL     1       0.757  -2.065   0.399  0.00  0.00    -0.281 N 
ATOM      7  C   UNL     1       0.979  -0.745   0.537  0.00  0.00    +0.310 C 
ATOM      8  O   UNL     1       1.956  -0.279   1.089  0.00  0.00    -0.252 OA
ATOM      9  C   UNL     1      -1.546  -2.952   0.531  0.00  0.00    +0.047 C 
ATOM     10  H   UNL     1       1.328  -2.785   0.711  0.00  0.00    +0.152 HD
BRANCH   5  11
ATOM     11  C   UNL     1      -0.311  -2.910  -1.638  0.00  0.00    -0.015 A 
ATOM     12  C   UNL     1      -1.058  -2.548  -2.743  0.00  0.00    +0.007 A 
ATOM     13  C   UNL     1      -0.863  -3.191  -3.950  0.00  0.00    +0.020 A 
ATOM     14  C   UNL     1       0.072  -4.205  -4.051  0.00  0.00    +0.041 A 
ATOM     15  C   UNL     1       0.816  -4.571  -2.943  0.00  0.00    +0.020 A 
ATOM     16  C   UNL     1       0.624  -3.924  -1.737  0.00  0.00    +0.007 A 
ATOM     17 CL   UNL     1       0.313  -5.019  -5.565  0.00  0.00    -0.084 Cl
ENDBRANCH   5  11
ENDBRANCH   1   2
BRANCH   1  19
ATOM     18  N   UNL     1      -0.862   3.269   1.472  0.00  0.00    -0.307 N 
ATOM     19  C   UNL     1      -0.723   1.947   1.250  0.00  0.00    +0.231 C 
ATOM     20  O   UNL     1      -1.166   1.148   2.048  0.00  0.00    -0.274 OA
ATOM     21  H   UNL     1      -0.508   3.908   0.833  0.00  0.00    +0.149 HD
BRANCH  18  23
ATOM     22  C   UNL     1      -0.554   3.800   3.839  0.00  0.00    +0.033 C 
ATOM     23  C   UNL     1      -1.548   3.741   2.677  0.00  0.00    +0.100 C 
BRANCH  23  24
ATOM     24  C   UNL     1      -2.111   5.117   2.428  0.00  0.00    -0.027 A 
ATOM     25  C   UNL     1      -1.362   6.045   1.708  0.00  0.00    +0.006 A 
ATOM     26  C   UNL     1      -1.844   7.294   1.461  0.00  0.00    +0.009 A 
ATOM     27  C   UNL     1      -3.110   7.660   1.948  0.00  0.00    -0.018 A 
ATOM     28  C   UNL     1      -3.638   8.942   1.718  0.00  0.00    +0.008 A 
ATOM     29  C   UNL     1      -4.869   9.260   2.204  0.00  0.00    +0.001 A 
ATOM     30  C   UNL     1      -5.616   8.334   2.929  0.00  0.00    +0.001 A 
ATOM     31  C   UNL     1      -5.137   7.083   3.171  0.00  0.00    +0.008 A 
ATOM     32  C   UNL     1      -3.870   6.717   2.684  0.00  0.00    -0.018 A 
ATOM     33  C   UNL     1      -3.342   5.435   2.914  0.00  0.00    +0.014 A 
ENDBRANCH  23  24
ENDBRANCH  18  23
ENDBRANCH   1  19
TORSDOF 5
