REMARK  Name = ZINC63395776
REMARK  5 active torsions:
REMARK  status: ('A' for Active; 'I' for Inactive)
REMARK    1  A    between atoms: C_3  and  C_6
REMARK    2  A    between atoms: C_6  and  N_7
REMARK    3  A    between atoms: C_15  and  O_34
REMARK    4  A    between atoms: C_16  and  C_20
REMARK    5  A    between atoms: C_20  and  N_22
REMARK                            x       y       z     vdW  Elec       q    Type
REMARK                         _______ _______ _______ _____ _____    ______ ____
ROOT
ATOM      1  N   UNL     1       3.992   0.588   1.368  0.00  0.00    -0.286 N 
ATOM      2  C   UNL     1       4.434   1.818   2.034  0.00  0.00    +0.106 C 
ATOM      3  C   UNL     1       4.305   3.034   1.159  0.00  0.00    +0.027 C 
ATOM      4  C   UNL     1       5.658   3.546   0.672  0.00  0.00    +0.002 C 
ATOM      5  C   UNL     1       6.528   3.835   1.905  0.00  0.00    +0.005 C 
ATOM      6  C   UNL     1       6.954   2.491   2.497  0.00  0.00    +0.036 C 
ATOM      7  C   UNL     1       5.774   1.599   2.655  0.00  0.00    -0.011 C 
ATOM      8  C   UNL     1       5.932   0.487   3.380  0.00  0.00    +0.116 C 
ATOM      9  C   UNL     1       4.736  -0.441   3.469  0.00  0.00    +0.227 C 
ATOM     10  C   UNL     1       4.135  -0.566   2.081  0.00  0.00    +0.236 C 
ATOM     11  O   UNL     1       3.802  -1.640   1.627  0.00  0.00    -0.274 OA
ENDROOT
BRANCH   9  12
ATOM     12  C   UNL     1       5.178  -1.796   3.960  0.00  0.00    +0.258 C 
ATOM     13  O   UNL     1       5.630  -2.609   3.177  0.00  0.00    -0.272 OA
BRANCH  12  14
ATOM     14  N   UNL     1       5.073  -2.101   5.249  0.00  0.00    -0.156 NA
ATOM     15  C   UNL     1       5.370  -3.329   5.668  0.00  0.00    +0.164 A 
ATOM     16  N   UNL     1       5.910  -4.346   4.950  0.00  0.00    -0.335 N 
ATOM     17  H   UNL     1       6.125  -4.218   4.012  0.00  0.00    +0.168 HD
ATOM     18  C   UNL     1       6.153  -5.564   5.557  0.00  0.00    +0.055 A 
ATOM     19  C   UNL     1       6.697  -6.734   5.008  0.00  0.00    +0.028 A 
ATOM     20  C   UNL     1       6.863  -7.859   5.782  0.00  0.00    +0.017 A 
ATOM     21  C   UNL     1       6.500  -7.870   7.119  0.00  0.00    +0.019 A 
ATOM     22  C   UNL     1       5.960  -6.727   7.684  0.00  0.00    +0.032 A 
ATOM     23  C   UNL     1       5.794  -5.602   6.912  0.00  0.00    +0.040 A 
ATOM     24  S   UNL     1       5.169  -3.969   7.210  0.00  0.00    -0.052 S 
ATOM     25 BR   UNL     1       6.737  -9.430   8.160  0.00  0.00    -0.050 Br
ENDBRANCH  12  14
ENDBRANCH   9  12
BRANCH   8  26
ATOM     26  O   UNL     1       7.102   0.204   4.004  0.00  0.00    -0.510 OA
ATOM     27  H   UNL     1       7.119  -0.662   4.435  0.00  0.00    +0.292 HD
ENDBRANCH   8  26
BRANCH   1  28
ATOM     28  C   UNL     1       3.425   0.600   0.017  0.00  0.00    +0.182 C 
BRANCH  28  31
ATOM     29  C   UNL     1      -0.060   1.788   0.177  0.00  0.00    +0.041 A 
ATOM     30  C   UNL     1       1.329   2.033   0.079  0.00  0.00    +0.046 A 
ATOM     31  C   UNL     1       1.939   0.834   0.098  0.00  0.00    +0.122 A 
ATOM     32  O   UNL     1       0.998  -0.118   0.201  0.00  0.00    -0.466 OA
ATOM     33  C   UNL     1      -0.216   0.455   0.249  0.00  0.00    +0.195 A 
ENDBRANCH  28  31
ENDBRANCH   1  28
TORSDOF 5
