REMARK  Name = ZINC39665811
REMARK  9 active torsions:
REMARK  status: ('A' for Active; 'I' for Inactive)
REMARK    1  A    between atoms: C_1  and  C_2
REMARK    2  A    between atoms: C_2  and  C_4
REMARK    3  A    between atoms: C_2  and  O_28
REMARK    4  A    between atoms: C_4  and  N_5
REMARK    5  A    between atoms: C_6  and  C_8
REMARK    6  A    between atoms: C_19  and  C_21
REMARK    7  A    between atoms: O_28  and  C_29
REMARK    8  A    between atoms: C_32  and  O_35
REMARK    9  A    between atoms: O_35  and  C_36
REMARK                            x       y       z     vdW  Elec       q    Type
REMARK                         _______ _______ _______ _____ _____    ______ ____
ROOT
ATOM      1  C   UNL     1       1.385  -1.026   3.125  0.00  0.00    +0.100 C 
ATOM      2  C   UNL     1       1.999  -2.178   2.299  0.00  0.00    +0.121 C 
ATOM      3  N   UNL     1       3.345  -2.383   2.884  0.00  0.00    -0.300 N 
ATOM      4  C   UNL     1       3.141  -2.221   4.344  0.00  0.00    +0.115 C 
ATOM      5  C   UNL     1       2.135  -1.060   4.468  0.00  0.00    -0.004 C 
ATOM      6  C   UNL     1       1.160  -1.326   5.611  0.00  0.00    -0.010 C 
ATOM      7  C   UNL     1       1.919  -1.297   6.940  0.00  0.00    -0.082 C 
ATOM      8  N   UNL     1       2.559   0.013   7.112  0.00  0.00    +0.379 N 
ATOM      9  C   UNL     1       3.563   0.220   6.061  0.00  0.00    -0.082 C 
ATOM     10  C   UNL     1       2.873   0.256   4.694  0.00  0.00    -0.010 C 
ATOM     11  C   UNL     1       4.495  -2.655   2.236  0.00  0.00    +0.219 C 
ATOM     12  O   UNL     1       4.519  -2.669   1.024  0.00  0.00    -0.275 OA
ATOM     13  H   UNL     1       1.860   0.738   7.055  0.00  0.00    -0.086 HD
ATOM     14  H   UNL     1       3.007   0.051   8.015  0.00  0.00    -0.086 HD
ENDROOT
BRANCH  11  15
ATOM     15  C   UNL     1       5.751  -2.942   3.018  0.00  0.00    +0.079 C 
ATOM     16  C   UNL     1       6.972  -2.452   2.229  0.00  0.00    +0.017 C 
ATOM     17  C   UNL     1       8.210  -2.592   3.118  0.00  0.00    +0.027 C 
ATOM     18  C   UNL     1       8.263  -3.966   3.719  0.00  0.00    -0.031 C 
ATOM     19  C   UNL     1       7.252  -4.772   3.774  0.00  0.00    -0.030 C 
ATOM     20  C   UNL     1       5.886  -4.449   3.240  0.00  0.00    +0.039 C 
ENDBRANCH  11  15
BRANCH   1  22
ATOM     21  N   UNL     1       0.760   1.319   2.645  0.00  0.00    -0.312 N 
ATOM     22  C   UNL     1       1.609   0.293   2.433  0.00  0.00    +0.218 C 
ATOM     23  O   UNL     1       2.553   0.433   1.684  0.00  0.00    -0.275 OA
ATOM     24  H   UNL     1       0.006   1.207   3.244  0.00  0.00    +0.149 HD
BRANCH  21  25
ATOM     25  C   UNL     1       0.978   2.601   1.972  0.00  0.00    +0.148 C 
BRANCH  25  27
ATOM     26  C   UNL     1       0.108   4.925   1.680  0.00  0.00    +0.053 C 
ATOM     27  C   UNL     1      -0.119   3.586   2.384  0.00  0.00    +0.187 C 
BRANCH  27  28
ATOM     28  O   UNL     1      -1.394   3.062   2.009  0.00  0.00    -0.488 OA
BRANCH  28  29
ATOM     29  C   UNL     1      -2.464   3.447   2.756  0.00  0.00    +0.121 A 
ATOM     30  C   UNL     1      -2.301   4.378   3.770  0.00  0.00    +0.049 A 
ATOM     31  C   UNL     1      -3.387   4.770   4.529  0.00  0.00    +0.049 A 
ATOM     32  C   UNL     1      -4.640   4.231   4.276  0.00  0.00    +0.120 A 
ATOM     33  C   UNL     1      -4.803   3.300   3.260  0.00  0.00    +0.049 A 
ATOM     34  C   UNL     1      -3.717   2.912   2.499  0.00  0.00    +0.049 A 
BRANCH  32  35
ATOM     35  O   UNL     1      -5.709   4.616   5.023  0.00  0.00    -0.495 OA
ATOM     36  C   UNL     1      -6.969   4.021   4.707  0.00  0.00    +0.277 C 
ENDBRANCH  32  35
ENDBRANCH  28  29
ENDBRANCH  27  28
ENDBRANCH  25  27
ENDBRANCH  21  25
ENDBRANCH   1  22
TORSDOF 7
