REMARK  Name = ZINC41584629
REMARK  7 active torsions:
REMARK  status: ('A' for Active; 'I' for Inactive)
REMARK    1  A    between atoms: C_1  and  O_2
REMARK    2  A    between atoms: O_2  and  C_3
REMARK    3  A    between atoms: C_8  and  C_9
REMARK    4  A    between atoms: C_16  and  O_34
REMARK    5  A    between atoms: C_17  and  C_20
REMARK    6  A    between atoms: C_20  and  N_21
REMARK    7  A    between atoms: C_26  and  C_28
REMARK                            x       y       z     vdW  Elec       q    Type
REMARK                         _______ _______ _______ _____ _____    ______ ____
ROOT
ATOM      1  C   UNL     1      -1.630  -1.753   0.845  0.00  0.00    +0.061 C 
ATOM      2  C   UNL     1      -1.362  -3.081   0.943  0.00  0.00    +0.176 C 
ATOM      3  C   UNL     1      -0.061  -3.682   1.268  0.00  0.00    +0.231 C 
ATOM      4  O   UNL     1       0.989  -3.108   1.503  0.00  0.00    -0.283 OA
ATOM      5  C   UNL     1      -0.310  -5.135   1.248  0.00  0.00    +0.068 A 
ATOM      6  C   UNL     1       0.505  -6.246   1.471  0.00  0.00    +0.019 A 
ATOM      7  C   UNL     1      -0.020  -7.504   1.380  0.00  0.00    +0.046 A 
ATOM      8  C   UNL     1      -1.365  -7.680   1.065  0.00  0.00    +0.122 A 
ATOM      9  C   UNL     1      -2.185  -6.586   0.840  0.00  0.00    +0.020 A 
ATOM     10  C   UNL     1      -1.667  -5.300   0.930  0.00  0.00    +0.144 A 
ATOM     11  O   UNL     1      -2.246  -4.091   0.765  0.00  0.00    -0.451 OA
ENDROOT
BRANCH   1  17
ATOM     12  C   UNL     1      -3.351   0.046   0.883  0.00  0.00    +0.127 A 
ATOM     13  C   UNL     1      -4.657   0.467   0.687  0.00  0.00    +0.047 A 
ATOM     14  C   UNL     1      -5.619  -0.430   0.266  0.00  0.00    +0.019 A 
ATOM     15  C   UNL     1      -5.290  -1.758   0.036  0.00  0.00    +0.019 A 
ATOM     16  C   UNL     1      -3.997  -2.196   0.225  0.00  0.00    +0.027 A 
ATOM     17  C   UNL     1      -3.010  -1.296   0.646  0.00  0.00    +0.021 A 
ATOM     18 BR   UNL     1      -6.620  -2.971  -0.539  0.00  0.00    -0.050 Br
BRANCH  12  20
ATOM     19  C   UNL     1      -2.827   2.275   1.517  0.00  0.00    +0.277 C 
ATOM     20  O   UNL     1      -2.406   0.927   1.297  0.00  0.00    -0.495 OA
ENDBRANCH  12  20
ENDBRANCH   1  17
BRANCH   8  21
ATOM     21  O   UNL     1      -1.877  -8.934   0.976  0.00  0.00    -0.506 OA
ATOM     22  H   UNL     1      -2.230  -9.275   1.810  0.00  0.00    +0.292 HD
ENDBRANCH   8  21
BRANCH   9  23
ATOM     23  C   UNL     1      -3.639  -6.792   0.499  0.00  0.00    -0.035 C 
BRANCH  23  24
ATOM     24  N   UNL     1      -3.765  -7.120  -0.927  0.00  0.00    +0.387 N 
ATOM     25  C   UNL     1      -3.325  -5.974  -1.732  0.00  0.00    -0.078 C 
ATOM     26  C   UNL     1      -3.379  -6.339  -3.217  0.00  0.00    -0.019 C 
ATOM     27  C   UNL     1      -4.816  -6.708  -3.595  0.00  0.00    -0.003 C 
ATOM     28  C   UNL     1      -5.290  -7.856  -2.698  0.00  0.00    -0.011 C 
ATOM     29  C   UNL     1      -5.166  -7.434  -1.232  0.00  0.00    -0.036 C 
ATOM     30  H   UNL     1      -3.188  -7.919  -1.140  0.00  0.00    -0.080 HD
BRANCH  29  31
ATOM     31  C   UNL     1      -5.632  -8.560  -0.346  0.00  0.00    -0.043 A 
ATOM     32  C   UNL     1      -6.816  -8.448   0.368  0.00  0.00    +0.005 A 
ATOM     33  C   UNL     1      -7.205  -9.509   1.171  0.00  0.00    +0.020 A 
ATOM     34  C   UNL     1      -6.406 -10.636   1.233  0.00  0.00    +0.111 A 
ATOM     35  N   UNL     1      -5.287 -10.707   0.540  0.00  0.00    -0.263 NA
ATOM     36  C   UNL     1      -4.888  -9.720  -0.239  0.00  0.00    +0.112 A 
ENDBRANCH  29  31
ENDBRANCH  23  24
ENDBRANCH   9  23
TORSDOF 6
