REMARK  Name = ZINC63686391
REMARK  9 active torsions:
REMARK  status: ('A' for Active; 'I' for Inactive)
REMARK    1  A    between atoms: C_1  and  C_2
REMARK    2  A    between atoms: C_2  and  C_3
REMARK    3  A    between atoms: C_3  and  C_4
REMARK    4  A    between atoms: C_7  and  S_11
REMARK    5  A    between atoms: N_9  and  C_10
REMARK    6  A    between atoms: S_11  and  C_12
REMARK    7  A    between atoms: C_12  and  C_13
REMARK    8  A    between atoms: C_17  and  C_25
REMARK    9  A    between atoms: C_19  and  C_24
REMARK                            x       y       z     vdW  Elec       q    Type
REMARK                         _______ _______ _______ _____ _____    ______ ____
ROOT
ATOM      1  C   UNL     1       4.807  -5.219   0.376  0.00  0.00    +0.030 A 
ATOM      2  N   UNL     1       5.842  -4.866   1.176  0.00  0.00    -0.357 N 
ATOM      3  C   UNL     1       7.144  -5.170   0.848  0.00  0.00    +0.051 A 
ATOM      4  C   UNL     1       8.200  -4.802   1.676  0.00  0.00    +0.029 A 
ATOM      5  C   UNL     1       9.492  -5.122   1.318  0.00  0.00    -0.048 A 
ATOM      6  C   UNL     1       9.752  -5.807   0.139  0.00  0.00    +0.007 A 
ATOM      7  C   UNL     1       8.729  -6.177  -0.689  0.00  0.00    -0.037 A 
ATOM      8  C   UNL     1       7.414  -5.864  -0.345  0.00  0.00    +0.048 A 
ATOM      9  C   UNL     1       6.282  -6.243  -1.208  0.00  0.00    +0.190 A 
ATOM     10  O   UNL     1       6.460  -6.847  -2.253  0.00  0.00    -0.287 OA
ATOM     11  C   UNL     1       4.980  -5.891  -0.781  0.00  0.00    +0.073 A 
ATOM     12  C   UNL     1       9.021  -6.920  -1.967  0.00  0.00    +0.044 C 
ATOM     13  C   UNL     1      10.634  -4.724   2.216  0.00  0.00    +0.044 C 
ATOM     14  H   UNL     1       5.661  -4.387   2.000  0.00  0.00    +0.166 HD
ENDROOT
BRANCH   1  15
ATOM     15  C   UNL     1       3.407  -4.853   0.799  0.00  0.00    +0.125 C 
BRANCH  15  16
ATOM     16  S   UNL     1       2.877  -5.947   2.145  0.00  0.00    -0.112 S 
BRANCH  16  20
ATOM     17  C   UNL     1       0.386  -3.331   1.911  0.00  0.00    +0.117 C 
ATOM     18  N   UNL     1      -0.094  -4.171   1.069  0.00  0.00    -0.174 NA
ATOM     19  N   UNL     1       0.332  -5.477   1.343  0.00  0.00    -0.238 N 
ATOM     20  C   UNL     1       1.197  -5.383   2.533  0.00  0.00    +0.236 C 
ATOM     21  N   UNL     1       1.196  -3.945   2.853  0.00  0.00    -0.292 N 
ATOM     22  C   UNL     1       1.910  -3.293   3.954  0.00  0.00    +0.133 C 
ATOM     23  H   UNL     1       0.104  -6.281   0.851  0.00  0.00    +0.171 HD
BRANCH  17  24
ATOM     24  C   UNL     1       0.107  -1.851   1.875  0.00  0.00    +0.073 C 
BRANCH  24  26
ATOM     25  C   UNL     1      -1.107  -0.032   0.667  0.00  0.00    +0.004 C 
ATOM     26  C   UNL     1      -0.824  -1.535   0.703  0.00  0.00    +0.004 C 
ENDBRANCH  24  26
ENDBRANCH  17  24
ENDBRANCH  16  20
ENDBRANCH  15  16
ENDBRANCH   1  15
TORSDOF 5
