REMARK  Name = ZINC38546601
REMARK  7 active torsions:
REMARK  status: ('A' for Active; 'I' for Inactive)
REMARK    1  A    between atoms: C_1  and  C_2
REMARK    2  A    between atoms: C_2  and  N_3
REMARK    3  A    between atoms: N_6  and  C_9
REMARK    4  A    between atoms: C_9  and  C_11
REMARK    5  A    between atoms: C_9  and  C_16
REMARK    6  A    between atoms: C_20  and  N_21
REMARK    7  A    between atoms: C_22  and  C_24
REMARK                            x       y       z     vdW  Elec       q    Type
REMARK                         _______ _______ _______ _____ _____    ______ ____
ROOT
ATOM      1  C   UNL     1       1.386  -4.012   4.679  0.00  0.00    +0.007 A 
ATOM      2  C   UNL     1       0.834  -4.779   5.706  0.00  0.00    -0.030 A 
ATOM      3  C   UNL     1       0.739  -6.117   5.484  0.00  0.00    -0.005 A 
ATOM      4  S   UNL     1       1.409  -6.328   3.856  0.00  0.00    -0.078 S 
ATOM      5  C   UNL     1       1.789  -4.613   3.527  0.00  0.00    +0.078 A 
ATOM      6  C   UNL     1       0.195  -7.158   6.408  0.00  0.00    +0.043 C 
ATOM      7  C   UNL     1       0.086  -6.547   7.813  0.00  0.00    +0.005 C 
ATOM      8  C   UNL     1      -0.591  -5.178   7.702  0.00  0.00    +0.005 C 
ATOM      9  C   UNL     1       0.351  -4.182   7.024  0.00  0.00    +0.036 C 
ENDROOT
BRANCH   5  10
ATOM     10  N   UNL     1       2.355  -4.040   2.387  0.00  0.00    -0.273 N 
ATOM     11  C   UNL     1       2.788  -4.826   1.381  0.00  0.00    +0.284 C 
ATOM     12  O   UNL     1       2.685  -6.036   1.468  0.00  0.00    -0.266 OA
ATOM     13  H   UNL     1       2.437  -3.076   2.319  0.00  0.00    +0.156 HD
BRANCH  11  14
ATOM     14  C   UNL     1       3.382  -4.224   0.184  0.00  0.00    +0.189 A 
ATOM     15  C   UNL     1       3.853  -4.900  -0.905  0.00  0.00    +0.054 A 
ATOM     16  C   UNL     1       4.328  -3.934  -1.806  0.00  0.00    +0.042 A 
ATOM     17  C   UNL     1       4.129  -2.726  -1.235  0.00  0.00    +0.196 A 
ATOM     18  O   UNL     1       3.554  -2.904  -0.038  0.00  0.00    -0.458 OA
ENDBRANCH  11  14
ENDBRANCH   5  10
BRANCH   1  19
ATOM     19  C   UNL     1       1.528  -2.521   4.842  0.00  0.00    +0.126 C 
BRANCH  19  23
ATOM     20  N   UNL     1      -0.613  -0.047   2.165  0.00  0.00    +0.381 N 
ATOM     21  C   UNL     1      -0.783  -1.502   2.049  0.00  0.00    -0.063 C 
ATOM     22  C   UNL     1      -0.350  -2.173   3.354  0.00  0.00    +0.067 C 
ATOM     23  N   UNL     1       1.057  -1.848   3.625  0.00  0.00    -0.295 NA
ATOM     24  C   UNL     1       1.248  -0.394   3.720  0.00  0.00    +0.067 C 
ATOM     25  C   UNL     1       0.802   0.263   2.411  0.00  0.00    -0.063 C 
ATOM     26  H   UNL     1      -1.171   0.296   2.933  0.00  0.00    -0.082 HD
BRANCH  20  28
ATOM     27  C   UNL     1      -2.548   0.379   0.726  0.00  0.00    -0.017 C 
ATOM     28  C   UNL     1      -1.046   0.598   0.919  0.00  0.00    -0.082 C 
ENDBRANCH  20  28
ENDBRANCH  19  23
BRANCH  19  29
ATOM     29  C   UNL     1       2.976  -2.178   5.078  0.00  0.00    +0.011 A 
ATOM     30  C   UNL     1       3.610  -1.905   6.245  0.00  0.00    +0.013 A 
ATOM     31  C   UNL     1       4.961  -1.613   6.222  0.00  0.00    +0.008 A 
ATOM     32  C   UNL     1       5.612  -1.609   5.034  0.00  0.00    +0.045 A 
ATOM     33  S   UNL     1       4.305  -2.032   3.894  0.00  0.00    -0.100 S 
ENDBRANCH  19  29
ENDBRANCH   1  19
TORSDOF 6
