REMARK  Name = ZINC36039485
REMARK  11 active torsions:
REMARK  status: ('A' for Active; 'I' for Inactive)
REMARK    1  A    between atoms: C_1  and  C_2
REMARK    2  A    between atoms: C_5  and  N_9
REMARK    3  A    between atoms: C_7  and  C_8
REMARK    4  A    between atoms: C_11  and  C_25
REMARK    5  A    between atoms: N_14  and  C_15
REMARK    6  A    between atoms: C_15  and  C_17
REMARK    7  A    between atoms: C_17  and  N_18
REMARK    8  A    between atoms: N_18  and  C_19
REMARK    9  A    between atoms: C_19  and  C_20
REMARK   10  A    between atoms: C_28  and  O_31
REMARK   11  A    between atoms: O_31  and  C_32
REMARK                            x       y       z     vdW  Elec       q    Type
REMARK                         _______ _______ _______ _____ _____    ______ ____
ROOT
ATOM      1  N   UNL     1       0.058  -4.171  -0.021  0.00  0.00    -0.287 N 
ATOM      2  C   UNL     1       0.068  -4.987   1.093  0.00  0.00    +0.120 A 
ATOM      3  C   UNL     1       0.085  -6.265   0.673  0.00  0.00    +0.066 A 
ATOM      4  N   UNL     1       0.085  -6.258  -0.716  0.00  0.00    -0.326 N 
ATOM      5  C   UNL     1       0.063  -4.963  -1.127  0.00  0.00    +0.205 A 
ATOM      6  N   UNL     1       0.052  -4.542  -2.391  0.00  0.00    -0.148 NA
ATOM      7  H   UNL     1       0.096  -7.039  -1.291  0.00  0.00    +0.169 HD
ENDROOT
BRANCH   1  12
ATOM      8  C   UNL     1      -0.018   1.503   0.010  0.00  0.00    +0.044 C 
ATOM      9  C   UNL     1       0.002  -0.004   0.002  0.00  0.00    -0.047 A 
ATOM     10  C   UNL     1       0.006  -0.688  -1.200  0.00  0.00    +0.005 A 
ATOM     11  C   UNL     1       0.024  -2.068  -1.211  0.00  0.00    +0.026 A 
ATOM     12  C   UNL     1       0.040  -2.771  -0.013  0.00  0.00    +0.049 A 
ATOM     13  C   UNL     1       0.036  -2.082   1.192  0.00  0.00    +0.029 A 
ATOM     14  C   UNL     1       0.023  -0.700   1.196  0.00  0.00    -0.046 A 
ATOM     15  C   UNL     1       0.025   0.049   2.504  0.00  0.00    +0.044 C 
ENDBRANCH   1  12
BRANCH   3  16
ATOM     16  C   UNL     1       0.101  -7.465   1.538  0.00  0.00    +0.000 A 
ATOM     17  C   UNL     1       0.093  -7.327   2.926  0.00  0.00    +0.013 A 
ATOM     18  C   UNL     1       0.108  -8.449   3.729  0.00  0.00    +0.046 A 
ATOM     19  C   UNL     1       0.130  -9.713   3.157  0.00  0.00    +0.120 A 
ATOM     20  C   UNL     1       0.138  -9.855   1.776  0.00  0.00    +0.046 A 
ATOM     21  C   UNL     1       0.117  -8.738   0.967  0.00  0.00    +0.013 A 
BRANCH  19  22
ATOM     22  O   UNL     1       0.145 -10.816   3.951  0.00  0.00    -0.495 OA
ATOM     23  C   UNL     1       0.167 -12.086   3.297  0.00  0.00    +0.277 C 
ENDBRANCH  19  22
ENDBRANCH   3  16
BRANCH   6  24
ATOM     24  C   UNL     1       0.059  -5.424  -3.384  0.00  0.00    +0.222 C 
ATOM     25  O   UNL     1       0.075  -6.615  -3.140  0.00  0.00    -0.276 OA
BRANCH  24  26
ATOM     26  C   UNL     1       0.046  -4.948  -4.814  0.00  0.00    +0.018 C 
BRANCH  26  27
ATOM     27  N   UNL     1       0.057  -6.107  -5.716  0.00  0.00    +0.389 N 
ATOM     28  H   UNL     1       0.888  -6.654  -5.551  0.00  0.00    -0.085 HD
ATOM     29  H   UNL     1      -0.759  -6.676  -5.543  0.00  0.00    -0.085 HD
BRANCH  27  30
ATOM     30  C   UNL     1       0.044  -5.644  -7.110  0.00  0.00    -0.006 C 
BRANCH  30  31
ATOM     31  C   UNL     1       0.055  -6.833  -8.035  0.00  0.00    +0.088 A 
ATOM     32  C   UNL     1      -1.030  -7.465  -8.517  0.00  0.00    +0.042 A 
ATOM     33  C   UNL     1      -0.561  -8.516  -9.339  0.00  0.00    +0.041 A 
ATOM     34  C   UNL     1       0.782  -8.464  -9.309  0.00  0.00    +0.195 A 
ATOM     35  O   UNL     1       1.150  -7.439  -8.523  0.00  0.00    -0.470 OA
ENDBRANCH  30  31
ENDBRANCH  27  30
ENDBRANCH  26  27
ENDBRANCH  24  26
ENDBRANCH   6  24
TORSDOF 8
