REMARK  Name = ZINC62298293
REMARK  7 active torsions:
REMARK  status: ('A' for Active; 'I' for Inactive)
REMARK    1  A    between atoms: C_1  and  C_2
REMARK    2  A    between atoms: C_2  and  C_3
REMARK    3  A    between atoms: C_3  and  C_4
REMARK    4  A    between atoms: N_6  and  C_7
REMARK    5  A    between atoms: C_11  and  N_14
REMARK    6  A    between atoms: C_12  and  C_13
REMARK    7  A    between atoms: C_15  and  C_17
REMARK                            x       y       z     vdW  Elec       q    Type
REMARK                         _______ _______ _______ _____ _____    ______ ____
ROOT
ATOM      1  N   UNL     1       2.828  -6.888  -4.071  0.00  0.00    -0.280 N 
ATOM      2  C   UNL     1       2.379  -8.103  -4.444  0.00  0.00    +0.269 C 
ATOM      3  O   UNL     1       1.434  -8.606  -3.866  0.00  0.00    -0.268 OA
ATOM      4  H   UNL     1       3.623  -6.517  -4.485  0.00  0.00    +0.155 HD
ENDROOT
BRANCH   2   5
ATOM      5  C   UNL     1       3.034  -8.823  -5.554  0.00  0.00    +0.154 A 
ATOM      6  C   UNL     1       2.546 -10.148  -5.973  0.00  0.00    +0.020 A 
ATOM      7  C   UNL     1       1.469 -10.781  -5.362  0.00  0.00    +0.011 A 
ATOM      8  C   UNL     1       1.072 -12.023  -5.811  0.00  0.00    +0.001 A 
ATOM      9  C   UNL     1       1.734 -12.645  -6.862  0.00  0.00    +0.001 A 
ATOM     10  C   UNL     1       2.804 -12.034  -7.481  0.00  0.00    +0.014 A 
ATOM     11  C   UNL     1       3.220 -10.781  -7.043  0.00  0.00    +0.050 A 
ATOM     12  C   UNL     1       4.350 -10.059  -7.644  0.00  0.00    +0.272 A 
ATOM     13  O   UNL     1       4.976 -10.543  -8.569  0.00  0.00    -0.266 OA
ATOM     14  N   UNL     1       4.677  -8.848  -7.148  0.00  0.00    -0.242 N 
ATOM     15  H   UNL     1       5.423  -8.375  -7.548  0.00  0.00    +0.192 HD
ATOM     16  N   UNL     1       4.052  -8.289  -6.182  0.00  0.00    -0.166 NA
ENDBRANCH   2   5
BRANCH   1  21
ATOM     17  C   UNL     1       1.402  -4.064  -2.192  0.00  0.00    +0.038 A 
ATOM     18  C   UNL     1       0.798  -4.734  -1.135  0.00  0.00    +0.024 A 
ATOM     19  C   UNL     1       0.870  -6.111  -1.056  0.00  0.00    +0.004 A 
ATOM     20  C   UNL     1       1.542  -6.827  -2.028  0.00  0.00    +0.024 A 
ATOM     21  C   UNL     1       2.148  -6.163  -3.088  0.00  0.00    +0.038 A 
ATOM     22  C   UNL     1       2.073  -4.780  -3.172  0.00  0.00    -0.008 A 
ATOM     23  C   UNL     1       2.723  -4.057  -4.324  0.00  0.00    +0.047 C 
BRANCH  17  26
ATOM     24  C   UNL     1       0.314  -2.013  -1.672  0.00  0.00    +0.217 C 
ATOM     25  O   UNL     1      -0.587  -2.635  -1.151  0.00  0.00    -0.275 OA
ATOM     26  N   UNL     1       1.328  -2.669  -2.271  0.00  0.00    -0.285 N 
ATOM     27  H   UNL     1       2.006  -2.174  -2.756  0.00  0.00    +0.155 HD
BRANCH  24  28
ATOM     28  C   UNL     1       0.301  -0.506  -1.649  0.00  0.00    +0.096 C 
BRANCH  28  30
ATOM     29  C   UNL     1      -0.962   1.512  -0.890  0.00  0.00    +0.004 C 
ATOM     30  C   UNL     1      -0.949  -0.018  -0.913  0.00  0.00    +0.006 C 
ENDBRANCH  28  30
ENDBRANCH  24  28
ENDBRANCH  17  26
ENDBRANCH   1  21
TORSDOF 5
