REMARK  Name = ZINC39711323
REMARK  10 active torsions:
REMARK  status: ('A' for Active; 'I' for Inactive)
REMARK    1  A    between atoms: C_1  and  C_2
REMARK    2  A    between atoms: C_2  and  C_3
REMARK    3  A    between atoms: C_2  and  C_4
REMARK    4  A    between atoms: C_2  and  N_5
REMARK    5  A    between atoms: C_6  and  C_11
REMARK    6  A    between atoms: C_11  and  C_13
REMARK    7  A    between atoms: C_11  and  N_27
REMARK    8  A    between atoms: C_18  and  O_25
REMARK    9  A    between atoms: O_25  and  C_26
REMARK   10  A    between atoms: N_30  and  C_33
REMARK                            x       y       z     vdW  Elec       q    Type
REMARK                         _______ _______ _______ _____ _____    ______ ____
ROOT
ATOM      1  C   UNL     1      -0.500  -0.954  -3.149  0.00  0.00    -0.009 C 
ENDROOT
BRANCH   1   2
ATOM      2  C   UNL     1      -1.638  -1.667  -2.416  0.00  0.00    +0.088 C 
ATOM      3  C   UNL     1      -2.803  -0.702  -2.316  0.00  0.00    -0.006 C 
ATOM      4  C   UNL     1      -3.264  -0.405  -1.068  0.00  0.00    -0.004 A 
ATOM      5  C   UNL     1      -4.385   0.517  -0.882  0.00  0.00    +0.055 A 
ATOM      6  C   UNL     1      -4.812   0.785   0.383  0.00  0.00    +0.121 A 
ATOM      7  C   UNL     1      -4.200   0.196   1.496  0.00  0.00    +0.047 A 
ATOM      8  C   UNL     1      -3.157  -0.667   1.387  0.00  0.00    +0.027 A 
ATOM      9  C   UNL     1      -2.641  -1.009   0.123  0.00  0.00    +0.041 A 
ATOM     10  N   UNL     1      -1.617  -1.857   0.030  0.00  0.00    -0.285 N 
ATOM     11  C   UNL     1      -1.082  -2.220  -1.123  0.00  0.00    +0.223 C 
ATOM     12  O   UNL     1      -0.147  -2.998  -1.144  0.00  0.00    -0.275 OA
ATOM     13  H   UNL     1      -1.246  -2.224   0.848  0.00  0.00    +0.155 HD
BRANCH   6  14
ATOM     14  O   UNL     1      -5.852   1.640   0.569  0.00  0.00    -0.495 OA
ATOM     15  C   UNL     1      -6.258   1.884   1.917  0.00  0.00    +0.277 C 
ENDBRANCH   6  14
ENDBRANCH   1   2
BRANCH   1  16
ATOM     16  N   UNL     1      -0.999  -0.415  -4.421  0.00  0.00    +0.387 N 
ATOM     17  C   UNL     1      -1.698  -1.475  -5.158  0.00  0.00    -0.059 C 
ATOM     18  C   UNL     1      -2.317  -0.887  -6.431  0.00  0.00    +0.086 C 
ATOM     19  N   UNL     1      -1.257  -0.213  -7.197  0.00  0.00    -0.333 N 
ATOM     20  C   UNL     1      -0.397   0.750  -6.490  0.00  0.00    +0.086 C 
ATOM     21  C   UNL     1       0.131   0.085  -5.215  0.00  0.00    -0.059 C 
ATOM     22  H   UNL     1      -1.639   0.342  -4.236  0.00  0.00    -0.081 HD
BRANCH  19  23
ATOM     23  C   UNL     1      -1.072  -0.479  -8.557  0.00  0.00    +0.030 A 
ATOM     24  C   UNL     1      -1.969  -1.295  -9.234  0.00  0.00    +0.026 A 
ATOM     25  C   UNL     1      -1.785  -1.557 -10.577  0.00  0.00    +0.040 A 
ATOM     26  C   UNL     1      -0.707  -1.005 -11.249  0.00  0.00    +0.124 A 
ATOM     27  C   UNL     1       0.188  -0.191 -10.577  0.00  0.00    +0.040 A 
ATOM     28  C   UNL     1       0.005   0.078  -9.234  0.00  0.00    +0.026 A 
ATOM     29  F   UNL     1      -0.529  -1.262 -12.564  0.00  0.00    -0.205 F 
ENDBRANCH  19  23
ENDBRANCH   1  16
BRANCH   1  31
ATOM     30  N   UNL     1       1.235   0.786  -2.891  0.00  0.00    -0.183 NA
ATOM     31  C   UNL     1       0.027   0.192  -2.281  0.00  0.00    +0.205 C 
ATOM     32  N   UNL     1      -0.944   1.294  -2.238  0.00  0.00    -0.152 NA
ATOM     33  N   UNL     1      -0.422   2.304  -2.714  0.00  0.00    -0.070 NA
ATOM     34  N   UNL     1       0.891   2.090  -3.133  0.00  0.00    -0.179 N 
ATOM     35  H   UNL     1       1.469   2.759  -3.533  0.00  0.00    +0.191 HD
BRANCH  30  37
ATOM     36  C   UNL     1       2.056   1.462  -0.684  0.00  0.00    +0.029 C 
ATOM     37  C   UNL     1       2.381   0.706  -1.974  0.00  0.00    +0.035 C 
ATOM     38  C   UNL     1       3.609   1.333  -2.637  0.00  0.00    +0.029 C 
ATOM     39  C   UNL     1       2.670  -0.760  -1.647  0.00  0.00    +0.029 C 
ENDBRANCH  30  37
ENDBRANCH   1  31
TORSDOF 6
