REMARK  Name = ZINC14542106
REMARK  11 active torsions:
REMARK  status: ('A' for Active; 'I' for Inactive)
REMARK    1  A    between atoms: C_1  and  C_2
REMARK    2  A    between atoms: C_2  and  C_4
REMARK    3  A    between atoms: C_2  and  N_10
REMARK    4  A    between atoms: C_11  and  C_13
REMARK    5  A    between atoms: C_15  and  N_26
REMARK    6  A    between atoms: C_17  and  S_19
REMARK    7  A    between atoms: S_19  and  N_22
REMARK    8  A    between atoms: N_22  and  C_23
REMARK    9  A    between atoms: C_23  and  C_24
REMARK   10  A    between atoms: C_23  and  C_25
REMARK   11  A    between atoms: N_26  and  C_27
REMARK                            x       y       z     vdW  Elec       q    Type
REMARK                         _______ _______ _______ _____ _____    ______ ____
ROOT
ATOM      1  C   UNL     1       0.766  -1.123   3.553  0.00  0.00    +0.040 A 
ATOM      2  C   UNL     1       2.125  -1.431   3.480  0.00  0.00    +0.036 A 
ATOM      3  C   UNL     1       2.788  -1.890   4.607  0.00  0.00    +0.030 A 
ATOM      4  C   UNL     1       2.100  -2.042   5.806  0.00  0.00    +0.051 A 
ATOM      5  C   UNL     1       0.754  -1.736   5.878  0.00  0.00    +0.108 A 
ATOM      6  C   UNL     1       0.086  -1.273   4.763  0.00  0.00    +0.041 A 
ENDROOT
BRANCH   1   8
ATOM      7  N   UNL     1       0.711  -0.489   1.189  0.00  0.00    -0.305 N 
ATOM      8  C   UNL     1       0.051  -0.633   2.355  0.00  0.00    +0.245 C 
ATOM      9  O   UNL     1      -1.131  -0.361   2.423  0.00  0.00    -0.270 OA
ATOM     10  H   UNL     1       1.654  -0.707   1.135  0.00  0.00    +0.150 HD
BRANCH   7  12
ATOM     11  C   UNL     1      -0.019   1.526   0.010  0.00  0.00    +0.033 C 
ATOM     12  C   UNL     1       0.002  -0.004   0.002  0.00  0.00    +0.100 C 
BRANCH  12  13
ATOM     13  C   UNL     1       0.707  -0.490  -1.238  0.00  0.00    -0.027 A 
ATOM     14  C   UNL     1       2.089  -0.511  -1.284  0.00  0.00    +0.005 A 
ATOM     15  C   UNL     1       2.736  -0.957  -2.421  0.00  0.00    +0.000 A 
ATOM     16  C   UNL     1       2.002  -1.382  -3.512  0.00  0.00    +0.000 A 
ATOM     17  C   UNL     1       0.620  -1.362  -3.466  0.00  0.00    +0.000 A 
ATOM     18  C   UNL     1      -0.027  -0.920  -2.327  0.00  0.00    +0.005 A 
ENDBRANCH  12  13
ENDBRANCH   7  12
ENDBRANCH   1   8
BRANCH   5  19
ATOM     19  S   UNL     1      -0.110  -1.932   7.401  0.00  0.00    +0.059 S 
ATOM     20  O   UNL     1      -1.482  -2.099   7.071  0.00  0.00    -0.153 OA
ATOM     21  O   UNL     1       0.613  -2.893   8.158  0.00  0.00    -0.153 OA
BRANCH  19  22
ATOM     22  N   UNL     1       0.009  -0.497   8.219  0.00  0.00    -0.187 NA
ATOM     23  H   UNL     1       0.494  -0.456   9.058  0.00  0.00    +0.148 HD
BRANCH  22  24
ATOM     24  C   UNL     1      -0.619   0.710   7.676  0.00  0.00    +0.070 C 
ATOM     25  C   UNL     1      -1.143   1.573   8.826  0.00  0.00    +0.025 C 
ATOM     26  C   UNL     1       0.413   1.503   6.872  0.00  0.00    +0.025 C 
ENDBRANCH  22  24
ENDBRANCH  19  22
ENDBRANCH   5  19
BRANCH   3  27
ATOM     27  N   UNL     1       4.149  -2.201   4.539  0.00  0.00    -0.341 N 
ATOM     28  H   UNL     1       4.613  -2.522   5.328  0.00  0.00    +0.146 HD
BRANCH  27  29
ATOM     29  C   UNL     1       4.874  -2.042   3.277  0.00  0.00    +0.070 C 
ATOM     30  C   UNL     1       4.695  -3.299   2.423  0.00  0.00    +0.022 C 
ATOM     31  C   UNL     1       5.452  -3.133   1.105  0.00  0.00    +0.002 C 
ATOM     32  C   UNL     1       6.940  -2.921   1.394  0.00  0.00    +0.000 C 
ATOM     33  C   UNL     1       7.119  -1.664   2.247  0.00  0.00    +0.002 C 
ATOM     34  C   UNL     1       6.362  -1.830   3.566  0.00  0.00    +0.022 C 
ENDBRANCH  27  29
ENDBRANCH   3  27
TORSDOF 8
