REMARK  Name = ZINC59224045
REMARK  6 active torsions:
REMARK  status: ('A' for Active; 'I' for Inactive)
REMARK    1  A    between atoms: C_1  and  C_2
REMARK    2  A    between atoms: C_5  and  N_9
REMARK    3  A    between atoms: C_7  and  C_8
REMARK    4  A    between atoms: C_15  and  C_16
REMARK    5  A    between atoms: N_18  and  C_25
REMARK    6  A    between atoms: C_25  and  C_26
REMARK                            x       y       z     vdW  Elec       q    Type
REMARK                         _______ _______ _______ _____ _____    ______ ____
ROOT
ATOM      1  N   UNL     1       0.563  -4.102  -0.690  0.00  0.00    -0.226 NA
ATOM      2  C   UNL     1      -0.365  -4.778  -1.332  0.00  0.00    +0.166 C 
ATOM      3  N   UNL     1      -1.367  -4.305  -2.155  0.00  0.00    -0.260 N 
ATOM      4  C   UNL     1      -2.215  -5.148  -2.719  0.00  0.00    +0.256 C 
ATOM      5  O   UNL     1      -3.103  -4.745  -3.448  0.00  0.00    -0.269 OA
ATOM      6  C   UNL     1      -2.063  -6.541  -2.452  0.00  0.00    +0.078 C 
ATOM      7  C   UNL     1      -2.800  -7.590  -2.908  0.00  0.00    +0.030 C 
ATOM      8  S   UNL     1      -0.643  -6.542  -1.367  0.00  0.00    -0.049 S 
ATOM      9  H   UNL     1      -1.449  -3.353  -2.321  0.00  0.00    +0.157 HD
ENDROOT
BRANCH   7  10
ATOM     10  C   UNL     1      -2.362  -8.962  -2.644  0.00  0.00    +0.001 A 
ATOM     11  C   UNL     1      -1.427  -9.360  -1.730  0.00  0.00    +0.095 A 
ATOM     12  N   UNL     1      -1.291 -10.711  -1.776  0.00  0.00    -0.342 N 
ATOM     13  C   UNL     1      -2.135 -11.248  -2.726  0.00  0.00    +0.050 A 
ATOM     14  C   UNL     1      -2.846 -10.187  -3.308  0.00  0.00    +0.007 A 
ATOM     15  C   UNL     1      -3.783 -10.439  -4.306  0.00  0.00    +0.010 A 
ATOM     16  C   UNL     1      -4.012 -11.735  -4.716  0.00  0.00    +0.001 A 
ATOM     17  C   UNL     1      -3.313 -12.785  -4.140  0.00  0.00    +0.002 A 
ATOM     18  C   UNL     1      -2.376 -12.549  -3.157  0.00  0.00    +0.026 A 
BRANCH  12  19
ATOM     19  C   UNL     1      -0.376 -11.487  -0.935  0.00  0.00    +0.157 C 
BRANCH  19  20
ATOM     20  C   UNL     1       0.913 -11.722  -1.679  0.00  0.00    -0.028 A 
ATOM     21  C   UNL     1       1.056 -12.841  -2.477  0.00  0.00    +0.007 A 
ATOM     22  C   UNL     1       2.239 -13.057  -3.160  0.00  0.00    +0.020 A 
ATOM     23  C   UNL     1       3.279 -12.152  -3.045  0.00  0.00    +0.041 A 
ATOM     24  C   UNL     1       3.135 -11.032  -2.247  0.00  0.00    +0.020 A 
ATOM     25  C   UNL     1       1.950 -10.814  -1.569  0.00  0.00    +0.007 A 
ATOM     26 CL   UNL     1       4.764 -12.423  -3.902  0.00  0.00    -0.084 Cl
ENDBRANCH  19  20
ENDBRANCH  12  19
ENDBRANCH   7  10
BRANCH   1  31
ATOM     27  C   UNL     1       0.756   1.524  -1.112  0.00  0.00    +0.044 C 
ATOM     28  C   UNL     1       0.704   0.022  -0.999  0.00  0.00    -0.047 A 
ATOM     29  C   UNL     1       0.521  -0.748  -2.135  0.00  0.00    +0.006 A 
ATOM     30  C   UNL     1       0.473  -2.123  -2.039  0.00  0.00    +0.028 A 
ATOM     31  C   UNL     1       0.610  -2.738  -0.792  0.00  0.00    +0.067 A 
ATOM     32  C   UNL     1       0.794  -1.955   0.350  0.00  0.00    +0.031 A 
ATOM     33  C   UNL     1       0.846  -0.581   0.238  0.00  0.00    -0.046 A 
ATOM     34  C   UNL     1       1.051   0.266   1.468  0.00  0.00    +0.044 C 
ENDBRANCH   1  31
TORSDOF 4
