REMARK  Name = ZINC59367753
REMARK  3 active torsions:
REMARK  status: ('A' for Active; 'I' for Inactive)
REMARK    1  A    between atoms: C_4  and  C_7
REMARK    2  A    between atoms: C_9  and  C_15
REMARK    3  A    between atoms: C_15  and  N_17
REMARK                            x       y       z     vdW  Elec       q    Type
REMARK                         _______ _______ _______ _____ _____    ______ ____
ROOT
ATOM      1  C   UNL     1       5.394  -0.459  -1.885  0.00  0.00    +0.247 C 
ATOM      2  O   UNL     1       5.996   0.242  -1.094  0.00  0.00    -0.273 OA
ENDROOT
BRANCH   1   3
ATOM      3  N   UNL     1       5.900  -0.681  -3.094  0.00  0.00    -0.147 NA
ATOM      4  C   UNL     1       7.010  -0.054  -3.477  0.00  0.00    +0.198 A 
ATOM      5  N   UNL     1       7.776   0.742  -2.686  0.00  0.00    -0.326 N 
ATOM      6  H   UNL     1       7.608   0.948  -1.753  0.00  0.00    +0.169 HD
ATOM      7  C   UNL     1       8.845   1.211  -3.444  0.00  0.00    +0.065 A 
ATOM      8  C   UNL     1       9.917   2.042  -3.156  0.00  0.00    +0.028 A 
ATOM      9  C   UNL     1      10.843   2.335  -4.138  0.00  0.00    +0.002 A 
ATOM     10  C   UNL     1      10.705   1.803  -5.409  0.00  0.00    +0.002 A 
ATOM     11  C   UNL     1       9.641   0.975  -5.705  0.00  0.00    +0.028 A 
ATOM     12  C   UNL     1       8.706   0.674  -4.726  0.00  0.00    +0.065 A 
ATOM     13  N   UNL     1       7.559  -0.114  -4.718  0.00  0.00    -0.326 N 
ATOM     14  H   UNL     1       7.210  -0.617  -5.471  0.00  0.00    +0.169 HD
ENDBRANCH   1   3
BRANCH   1  16
ATOM     15  C   UNL     1       3.691  -0.680  -0.052  0.00  0.00    +0.219 C 
ATOM     16  C   UNL     1       4.076  -1.076  -1.494  0.00  0.00    +0.133 C 
ATOM     17  C   UNL     1       4.192  -2.619  -1.401  0.00  0.00    +0.137 C 
ATOM     18  C   UNL     1       4.382  -2.828   0.099  0.00  0.00    +0.309 C 
ATOM     19  O   UNL     1       5.097  -3.632   0.647  0.00  0.00    -0.251 OA
ATOM     20  O   UNL     1       3.571  -1.911   0.682  0.00  0.00    -0.456 OA
BRANCH  15  24
ATOM     21  C   UNL     1      -0.036   1.407  -0.046  0.00  0.00    +0.000 A 
ATOM     22  C   UNL     1       1.152   2.114  -0.052  0.00  0.00    +0.000 A 
ATOM     23  C   UNL     1       2.358   1.438  -0.054  0.00  0.00    +0.007 A 
ATOM     24  C   UNL     1       2.377   0.056  -0.049  0.00  0.00    -0.007 A 
ATOM     25  C   UNL     1       1.189  -0.650  -0.042  0.00  0.00    +0.007 A 
ATOM     26  C   UNL     1      -0.018   0.025  -0.042  0.00  0.00    +0.000 A 
ENDBRANCH  15  24
ENDBRANCH   1  16
TORSDOF 3
