REMARK  Name = ZINC00149964
REMARK  3 active torsions:
REMARK  status: ('A' for Active; 'I' for Inactive)
REMARK    1  A    between atoms: C_1  and  C_2
REMARK    2  A    between atoms: C_3  and  C_13
REMARK    3  A    between atoms: C_4  and  C_10
REMARK                            x       y       z     vdW  Elec       q    Type
REMARK                         _______ _______ _______ _____ _____    ______ ____
ROOT
ATOM      1  C   UNL     1      -0.018   1.503   0.010  0.00  0.00    +0.064 C 
ATOM      2  C   UNL     1       0.002  -0.004   0.002  0.00  0.00    +0.032 A 
ATOM      3  C   UNL     1       0.008  -0.773  -1.116  0.00  0.00    +0.099 A 
ATOM      4  C   UNL     1       0.014  -2.178  -0.649  0.00  0.00    +0.109 A 
ATOM      5  C   UNL     1      -0.001  -2.104   0.732  0.00  0.00    +0.091 A 
ATOM      6  N   UNL     1       0.024  -0.799   1.131  0.00  0.00    -0.337 N 
ATOM      7  C   UNL     1       0.081  -0.535   2.578  0.00  0.00    +0.133 C 
ATOM      8  C   UNL     1      -0.406  -1.743   3.411  0.00  0.00    +0.097 C 
ATOM      9  S   UNL     1      -0.036  -3.090   2.213  0.00  0.00    -0.105 S 
ENDROOT
BRANCH   4  10
ATOM     10  C   UNL     1       0.031  -3.346  -1.445  0.00  0.00    +0.390 C 
ATOM     11  O   UNL     1       0.044  -3.255  -2.667  0.00  0.00    -0.240 OA
ATOM     12  O   UNL     1       0.034  -4.450  -0.912  0.00  0.00    -0.240 OA
ENDBRANCH   4  10
BRANCH   3  13
ATOM     13  C   UNL     1       0.007  -0.307  -2.506  0.00  0.00    +0.389 C 
ATOM     14  O   UNL     1       0.001   0.893  -2.749  0.00  0.00    -0.241 OA
ATOM     15  O   UNL     1       0.013  -1.117  -3.423  0.00  0.00    -0.241 OA
ENDBRANCH   3  13
TORSDOF 2
