REMARK  Name = ZINC38984858
REMARK  4 active torsions:
REMARK  status: ('A' for Active; 'I' for Inactive)
REMARK    1  A    between atoms: C_5  and  C_7
REMARK    2  A    between atoms: N_13  and  N_14
REMARK    3  A    between atoms: C_15  and  C_16
REMARK    4  A    between atoms: C_21  and  O_22
REMARK                            x       y       z     vdW  Elec       q    Type
REMARK                         _______ _______ _______ _____ _____    ______ ____
ROOT
ATOM      1  C   UNL     1       1.230  -2.200  -0.032  0.00  0.00    +0.265 C 
ATOM      2  N   UNL     1       2.324  -2.701   0.814  0.00  0.00    -0.189 NA
ATOM      3  N   UNL     1       1.828  -3.360   1.732  0.00  0.00    -0.219 N 
ATOM      4  C   UNL     1       0.470  -3.419   1.682  0.00  0.00    +0.174 C 
ATOM      5  S   UNL     1      -0.517  -4.250   2.807  0.00  0.00    -0.015 S 
ATOM      6  N   UNL     1       0.012  -2.725   0.613  0.00  0.00    -0.172 N 
ATOM      7  H   UNL     1       2.355  -3.793   2.421  0.00  0.00    +0.176 HD
ENDROOT
BRANCH   1  12
ATOM      8  C   UNL     1       0.001   1.369  -0.043  0.00  0.00    +0.000 A 
ATOM      9  C   UNL     1       1.191   2.071  -0.062  0.00  0.00    +0.001 A 
ATOM     10  C   UNL     1       2.395   1.392  -0.071  0.00  0.00    +0.015 A 
ATOM     11  C   UNL     1       2.408   0.009  -0.061  0.00  0.00    +0.025 A 
ATOM     12  C   UNL     1       1.216  -0.694  -0.042  0.00  0.00    +0.012 A 
ATOM     13  C   UNL     1       0.013  -0.013  -0.033  0.00  0.00    +0.008 A 
ATOM     14 BR   UNL     1       4.054  -0.922  -0.075  0.00  0.00    -0.050 Br
ENDBRANCH   1  12
BRANCH   6  15
ATOM     15  N   UNL     1      -1.318  -2.544   0.210  0.00  0.00    -0.183 NA
ATOM     16  C   UNL     1      -2.275  -3.169   0.828  0.00  0.00    +0.142 C 
BRANCH  16  17
ATOM     17  C   UNL     1      -3.659  -3.067   0.336  0.00  0.00    +0.037 A 
ATOM     18  C   UNL     1      -4.692  -3.733   1.001  0.00  0.00    +0.028 A 
ATOM     19  C   UNL     1      -5.987  -3.632   0.535  0.00  0.00    +0.019 A 
ATOM     20  C   UNL     1      -6.267  -2.874  -0.590  0.00  0.00    +0.019 A 
ATOM     21  C   UNL     1      -5.254  -2.210  -1.256  0.00  0.00    +0.047 A 
ATOM     22  C   UNL     1      -3.949  -2.296  -0.798  0.00  0.00    +0.126 A 
ATOM     23 BR   UNL     1      -7.384  -4.535   1.435  0.00  0.00    -0.050 Br
BRANCH  22  24
ATOM     24  O   UNL     1      -2.954  -1.640  -1.449  0.00  0.00    -0.506 OA
ATOM     25  H   UNL     1      -2.535  -2.157  -2.151  0.00  0.00    +0.292 HD
ENDBRANCH  22  24
ENDBRANCH  16  17
ENDBRANCH   6  15
TORSDOF 4
