REMARK  Name = ZINC39361049
REMARK  10 active torsions:
REMARK  status: ('A' for Active; 'I' for Inactive)
REMARK    1  A    between atoms: C_1  and  C_2
REMARK    2  A    between atoms: C_6  and  C_15
REMARK    3  A    between atoms: C_13  and  C_14
REMARK    4  A    between atoms: C_15  and  C_16
REMARK    5  A    between atoms: C_16  and  N_17
REMARK    6  A    between atoms: C_18  and  C_20
REMARK    7  A    between atoms: C_23  and  S_26
REMARK    8  A    between atoms: S_26  and  N_29
REMARK    9  A    between atoms: N_29  and  C_30
REMARK   10  A    between atoms: N_29  and  C_31
REMARK                            x       y       z     vdW  Elec       q    Type
REMARK                         _______ _______ _______ _____ _____    ______ ____
ROOT
ATOM      1  C   UNL     1       1.350  -6.369  -2.917  0.00  0.00    +0.105 C 
ENDROOT
BRANCH   1   2
ATOM      2  N   UNL     1       2.596  -6.842  -3.525  0.00  0.00    -0.311 N 
ATOM      3  C   UNL     1       2.866  -8.162  -3.571  0.00  0.00    +0.244 C 
ATOM      4  O   UNL     1       2.075  -8.960  -3.108  0.00  0.00    -0.270 OA
ATOM      5  H   UNL     1       3.228  -6.205  -3.895  0.00  0.00    +0.149 HD
BRANCH   3   6
ATOM      6  C   UNL     1       4.124  -8.638  -4.185  0.00  0.00    +0.037 A 
ATOM      7  C   UNL     1       5.037  -7.724  -4.712  0.00  0.00    +0.015 A 
ATOM      8  C   UNL     1       6.209  -8.175  -5.283  0.00  0.00    +0.029 A 
ATOM      9  C   UNL     1       6.480  -9.531  -5.334  0.00  0.00    +0.105 A 
ATOM     10  C   UNL     1       5.579 -10.443  -4.813  0.00  0.00    +0.029 A 
ATOM     11  C   UNL     1       4.406 -10.004  -4.234  0.00  0.00    +0.015 A 
BRANCH   9  12
ATOM     12  S   UNL     1       7.979 -10.099  -6.065  0.00  0.00    +0.060 S 
ATOM     13  O   UNL     1       7.747 -11.439  -6.479  0.00  0.00    -0.153 OA
ATOM     14  O   UNL     1       8.400  -9.085  -6.967  0.00  0.00    -0.153 OA
BRANCH  12  15
ATOM     15  N   UNL     1       9.116 -10.166  -4.863  0.00  0.00    -0.183 NA
ATOM     16  C   UNL     1       9.286 -11.394  -4.082  0.00  0.00    +0.131 C 
ATOM     17  C   UNL     1       9.952  -8.996  -4.580  0.00  0.00    +0.131 C 
ENDBRANCH  12  15
ENDBRANCH   9  12
ENDBRANCH   3   6
ENDBRANCH   1   2
BRANCH   1  18
ATOM     18  C   UNL     1       1.292  -4.843  -2.994  0.00  0.00    +0.035 C 
BRANCH  18  24
ATOM     19  C   UNL     1      -5.354  -3.690  -5.344  0.00  0.00    +0.044 C 
ATOM     20  C   UNL     1      -4.106  -3.305  -4.592  0.00  0.00    -0.047 A 
ATOM     21  C   UNL     1      -3.259  -4.277  -4.167  0.00  0.00    +0.013 A 
ATOM     22  C   UNL     1      -2.050  -3.890  -3.437  0.00  0.00    -0.007 A 
ATOM     23  C   UNL     1      -1.171  -4.832  -2.992  0.00  0.00    -0.005 C 
ATOM     24  C   UNL     1       0.055  -4.341  -2.247  0.00  0.00    +0.100 C 
ATOM     25  C   UNL     1       0.202  -2.848  -2.058  0.00  0.00    +0.224 C 
ATOM     26  O   UNL     1       1.166  -2.399  -1.467  0.00  0.00    -0.275 OA
ATOM     27  N   UNL     1      -0.722  -2.032  -2.537  0.00  0.00    -0.284 N 
ATOM     28  C   UNL     1      -1.801  -2.459  -3.193  0.00  0.00    +0.041 A 
ATOM     29  C   UNL     1      -2.743  -1.532  -3.676  0.00  0.00    +0.027 A 
ATOM     30  C   UNL     1      -3.843  -1.956  -4.351  0.00  0.00    -0.046 A 
ATOM     31  C   UNL     1      -4.822  -0.927  -4.856  0.00  0.00    +0.044 C 
ATOM     32  H   UNL     1      -0.609  -1.078  -2.405  0.00  0.00    +0.155 HD
ENDBRANCH  18  24
ENDBRANCH   1  18
TORSDOF 6
