REMARK  Name = ZINC36024819
REMARK  7 active torsions:
REMARK  status: ('A' for Active; 'I' for Inactive)
REMARK    1  A    between atoms: C_1  and  C_2
REMARK    2  A    between atoms: C_2  and  C_3
REMARK    3  A    between atoms: C_2  and  N_4
REMARK    4  A    between atoms: C_7  and  C_26
REMARK    5  A    between atoms: N_13  and  S_16
REMARK    6  A    between atoms: S_16  and  C_19
REMARK    7  A    between atoms: C_26  and  C_27
REMARK                            x       y       z     vdW  Elec       q    Type
REMARK                         _______ _______ _______ _____ _____    ______ ____
ROOT
ATOM      1  N   UNL     1      -1.355  -0.557   0.011  0.00  0.00    -0.311 N 
ATOM      2  C   UNL     1      -2.304  -0.277   0.928  0.00  0.00    +0.201 C 
ATOM      3  O   UNL     1      -2.175   0.467   1.877  0.00  0.00    -0.277 OA
ATOM      4  C   UNL     1      -3.557  -1.046   0.572  0.00  0.00    +0.023 C 
ATOM      5  N   UNL     1      -3.361  -1.457  -0.840  0.00  0.00    +0.401 N 
ATOM      6  C   UNL     1      -1.892  -1.496  -0.978  0.00  0.00    +0.006 C 
ATOM      7  C   UNL     1      -1.389  -2.909  -0.693  0.00  0.00    +0.023 C 
ATOM      8  C   UNL     1       0.140  -2.937  -0.801  0.00  0.00    +0.109 C 
ATOM      9  N   UNL     1       0.530  -2.401  -2.112  0.00  0.00    -0.177 NA
ATOM     10  C   UNL     1       0.035  -1.076  -2.510  0.00  0.00    +0.109 C 
ATOM     11  C   UNL     1      -1.493  -1.064  -2.388  0.00  0.00    +0.023 C 
ATOM     12  H   UNL     1      -3.761  -2.368  -1.005  0.00  0.00    -0.082 HD
ATOM     13  H   UNL     1      -3.756  -0.773  -1.468  0.00  0.00    -0.082 HD
ENDROOT
BRANCH   1  15
ATOM     14  C   UNL     1      -0.003   1.347  -0.715  0.00  0.00    +0.027 C 
ATOM     15  C   UNL     1       0.002  -0.004   0.002  0.00  0.00    +0.068 C 
ATOM     16  C   UNL     1       0.485   0.184   1.441  0.00  0.00    +0.027 C 
ENDBRANCH   1  15
BRANCH   9  17
ATOM     17  S   UNL     1       1.511  -3.273  -3.122  0.00  0.00    +0.061 S 
ATOM     18  O   UNL     1       2.143  -2.336  -3.983  0.00  0.00    -0.153 OA
ATOM     19  O   UNL     1       2.247  -4.168  -2.300  0.00  0.00    -0.153 OA
BRANCH  17  20
ATOM     20  C   UNL     1       0.465  -4.264  -4.136  0.00  0.00    +0.106 A 
ATOM     21  C   UNL     1       0.101  -5.531  -3.721  0.00  0.00    +0.031 A 
ATOM     22  C   UNL     1      -0.720  -6.309  -4.516  0.00  0.00    +0.040 A 
ATOM     23  C   UNL     1      -1.177  -5.819  -5.727  0.00  0.00    +0.124 A 
ATOM     24  C   UNL     1      -0.811  -4.550  -6.141  0.00  0.00    +0.040 A 
ATOM     25  C   UNL     1       0.005  -3.771  -5.343  0.00  0.00    +0.031 A 
ATOM     26  F   UNL     1      -1.979  -6.579  -6.505  0.00  0.00    -0.205 F 
ENDBRANCH  17  20
ENDBRANCH   9  17
BRANCH   4  27
ATOM     27  C   UNL     1      -4.789  -0.148   0.702  0.00  0.00    +0.028 C 
BRANCH  27  28
ATOM     28  C   UNL     1      -6.031  -0.956   0.427  0.00  0.00    -0.048 A 
ATOM     29  C   UNL     1      -6.520  -1.056  -0.862  0.00  0.00    +0.003 A 
ATOM     30  C   UNL     1      -7.659  -1.797  -1.113  0.00  0.00    +0.000 A 
ATOM     31  C   UNL     1      -8.310  -2.438  -0.075  0.00  0.00    +0.000 A 
ATOM     32  C   UNL     1      -7.821  -2.338   1.214  0.00  0.00    +0.000 A 
ATOM     33  C   UNL     1      -6.679  -1.601   1.464  0.00  0.00    +0.003 A 
ENDBRANCH  27  28
ENDBRANCH   4  27
TORSDOF 5
