REMARK  Name = ZINC44883552
REMARK  6 active torsions:
REMARK  status: ('A' for Active; 'I' for Inactive)
REMARK    1  A    between atoms: C_1  and  C_2
REMARK    2  A    between atoms: C_2  and  N_9
REMARK    3  A    between atoms: N_9  and  C_10
REMARK    4  A    between atoms: C_10  and  C_11
REMARK    5  A    between atoms: C_10  and  C_12
REMARK    6  A    between atoms: C_10  and  C_19
REMARK                            x       y       z     vdW  Elec       q    Type
REMARK                         _______ _______ _______ _____ _____    ______ ____
ROOT
ATOM      1  C   UNL     1       0.242  -0.044  -2.385  0.00  0.00    +0.059 C 
ATOM      2  C   UNL     1       0.806   0.929  -3.422  0.00  0.00    +0.007 C 
ENDROOT
BRANCH   1   3
ATOM      3  C   UNL     1       0.908  -1.387  -2.542  0.00  0.00    -0.048 A 
ATOM      4  C   UNL     1       1.618  -1.934  -1.489  0.00  0.00    +0.004 A 
ATOM      5  C   UNL     1       2.229  -3.166  -1.633  0.00  0.00    +0.015 A 
ATOM      6  C   UNL     1       2.128  -3.852  -2.830  0.00  0.00    +0.018 A 
ATOM      7  C   UNL     1       1.417  -3.305  -3.883  0.00  0.00    +0.015 A 
ATOM      8  C   UNL     1       0.802  -2.075  -3.736  0.00  0.00    +0.004 A 
ATOM      9 BR   UNL     1       2.963  -5.537  -3.027  0.00  0.00    -0.050 Br
ENDBRANCH   1   3
BRANCH   1  10
ATOM     10  N   UNL     1       0.501   0.475  -1.035  0.00  0.00    +0.397 N 
ATOM     11  H   UNL     1       1.481   0.376  -0.819  0.00  0.00    -0.083 HD
ATOM     12  H   UNL     1      -0.046  -0.044  -0.364  0.00  0.00    -0.083 HD
BRANCH  10  14
ATOM     13  C   UNL     1      -1.225   2.073  -1.671  0.00  0.00    -0.008 C 
ATOM     14  C   UNL     1       0.127   1.895  -0.977  0.00  0.00    -0.048 C 
ATOM     15  C   UNL     1      -0.018   2.300   0.489  0.00  0.00    +0.011 C 
ATOM     16  C   UNL     1       1.340   2.816   1.043  0.00  0.00    +0.164 C 
ATOM     17  S   UNL     1       1.927   3.770  -0.425  0.00  0.00    -0.032 S 
ATOM     18  O   UNL     1       1.297   5.044  -0.437  0.00  0.00    -0.174 OA
ATOM     19  O   UNL     1       3.344   3.686  -0.501  0.00  0.00    -0.174 OA
ATOM     20  C   UNL     1       1.185   2.716  -1.739  0.00  0.00    +0.153 C 
ENDBRANCH  10  14
ENDBRANCH   1  10
BRANCH   1  21
ATOM     21  C   UNL     1      -1.243  -0.193  -2.590  0.00  0.00    +0.349 C 
ATOM     22  O   UNL     1      -1.934  -0.683  -1.713  0.00  0.00    -0.248 OA
ATOM     23  O   UNL     1      -1.755   0.177  -3.632  0.00  0.00    -0.248 OA
ENDBRANCH   1  21
TORSDOF 4
