REMARK  Name = ZINC06443885
REMARK  13 active torsions:
REMARK  status: ('A' for Active; 'I' for Inactive)
REMARK    1  A    between atoms: C_1  and  C_2
REMARK    2  A    between atoms: C_12  and  C_14
REMARK    3  A    between atoms: C_14  and  C_16
REMARK    4  A    between atoms: C_14  and  N_72
REMARK    5  A    between atoms: N_20  and  C_21
REMARK    6  A    between atoms: C_21  and  C_22
REMARK    7  A    between atoms: C_21  and  C_23
REMARK    8  A    between atoms: C_21  and  C_24
REMARK    9  A    between atoms: C_25  and  C_26
REMARK   10  A    between atoms: C_25  and  N_72
REMARK   11  A    between atoms: C_26  and  C_27
REMARK   12  A    between atoms: C_33  and  C_34
REMARK   13  A    between atoms: C_33  and  N_72
REMARK                            x       y       z     vdW  Elec       q    Type
REMARK                         _______ _______ _______ _____ _____    ______ ____
ROOT
ATOM      1  C   UNL     1      -1.045  -2.240   0.107  0.00  0.00    +0.039 C 
ENDROOT
BRANCH   1  13
ATOM      2  C   UNL     1      -7.612  -2.504   0.013  0.00  0.00    +0.046 C 
ATOM      3  C   UNL     1      -6.574  -3.276  -0.759  0.00  0.00    -0.026 A 
ATOM      4  C   UNL     1      -6.961  -4.231  -1.675  0.00  0.00    +0.005 A 
ATOM      5  C   UNL     1      -6.015  -4.949  -2.393  0.00  0.00    +0.001 A 
ATOM      6  C   UNL     1      -4.681  -4.723  -2.205  0.00  0.00    +0.010 A 
ATOM      7  C   UNL     1      -4.264  -3.758  -1.282  0.00  0.00    -0.001 A 
ATOM      8  C   UNL     1      -5.221  -3.028  -0.552  0.00  0.00    +0.052 A 
ATOM      9  N   UNL     1      -4.806  -2.078   0.357  0.00  0.00    -0.322 N 
ATOM     10  H   UNL     1      -5.466  -1.575   0.859  0.00  0.00    +0.169 HD
ATOM     11  C   UNL     1      -3.498  -1.838   0.557  0.00  0.00    +0.251 A 
ATOM     12  O   UNL     1      -3.167  -0.991   1.368  0.00  0.00    -0.268 OA
ATOM     13  C   UNL     1      -2.499  -2.542  -0.149  0.00  0.00    +0.011 A 
ATOM     14  C   UNL     1      -2.843  -3.486  -1.060  0.00  0.00    +0.017 A 
ENDBRANCH   1  13
BRANCH   1  15
ATOM     15  C   UNL     1      -0.678  -2.679   1.501  0.00  0.00    +0.143 A 
ATOM     16  N   UNL     1      -1.095  -2.148   2.624  0.00  0.00    -0.115 NA
ATOM     17  N   UNL     1      -0.562  -2.803   3.597  0.00  0.00    -0.023 NA
ATOM     18  N   UNL     1       0.191  -3.733   3.123  0.00  0.00    -0.043 NA
ATOM     19  N   UNL     1       0.146  -3.690   1.835  0.00  0.00    -0.225 N 
BRANCH  19  20
ATOM     20  C   UNL     1       0.858  -4.574   0.908  0.00  0.00    +0.059 C 
ATOM     21  C   UNL     1       1.817  -3.748   0.050  0.00  0.00    +0.036 C 
ATOM     22  C   UNL     1       1.651  -5.613   1.704  0.00  0.00    +0.036 C 
ATOM     23  C   UNL     1      -0.152  -5.285   0.005  0.00  0.00    +0.036 C 
ENDBRANCH  19  20
ENDBRANCH   1  15
BRANCH   1  24
ATOM     24  N   UNL     1      -0.832  -0.782  -0.012  0.00  0.00    +0.392 N 
ATOM     25  H   UNL     1      -1.503  -0.297   0.596  0.00  0.00    -0.080 HD
BRANCH  24  26
ATOM     26  C   UNL     1       0.540  -0.436   0.415  0.00  0.00    -0.072 C 
BRANCH  26  27
ATOM     27  C   UNL     1       0.661   1.087   0.497  0.00  0.00    +0.016 C 
BRANCH  27  28
ATOM     28  C   UNL     1       2.050   1.457   0.952  0.00  0.00    -0.049 A 
ATOM     29  C   UNL     1       2.320   1.600   2.300  0.00  0.00    +0.003 A 
ATOM     30  C   UNL     1       3.595   1.933   2.717  0.00  0.00    +0.000 A 
ATOM     31  C   UNL     1       4.596   2.135   1.786  0.00  0.00    +0.000 A 
ATOM     32  C   UNL     1       4.325   1.998   0.438  0.00  0.00    +0.000 A 
ATOM     33  C   UNL     1       3.051   1.658   0.021  0.00  0.00    +0.003 A 
ENDBRANCH  27  28
ENDBRANCH  26  27
ENDBRANCH  24  26
BRANCH  24  34
ATOM     34  C   UNL     1      -1.051  -0.352  -1.409  0.00  0.00    -0.042 C 
BRANCH  34  35
ATOM     35  C   UNL     1      -0.003  -0.946  -2.315  0.00  0.00    -0.064 A 
ATOM     36  C   UNL     1       1.186  -0.274  -2.529  0.00  0.00    +0.002 A 
ATOM     37  C   UNL     1       2.149  -0.821  -3.356  0.00  0.00    +0.000 A 
ATOM     38  C   UNL     1       1.918  -2.035  -3.977  0.00  0.00    +0.000 A 
ATOM     39  C   UNL     1       0.727  -2.703  -3.767  0.00  0.00    +0.000 A 
ATOM     40  C   UNL     1      -0.234  -2.159  -2.936  0.00  0.00    +0.002 A 
ENDBRANCH  34  35
ENDBRANCH  24  34
ENDBRANCH   1  24
TORSDOF 9
