REMARK  Name = ZINC63376059
REMARK  6 active torsions:
REMARK  status: ('A' for Active; 'I' for Inactive)
REMARK    1  A    between atoms: C_1  and  C_2
REMARK    2  A    between atoms: C_2  and  C_3
REMARK    3  A    between atoms: C_3  and  N_4
REMARK    4  A    between atoms: C_5  and  C_7
REMARK    5  A    between atoms: C_12  and  N_13
REMARK    6  A    between atoms: C_29  and  C_34
REMARK                            x       y       z     vdW  Elec       q    Type
REMARK                         _______ _______ _______ _____ _____    ______ ____
ROOT
ATOM      1  N   UNL     1       2.796  -4.475   4.469  0.00  0.00    -0.192 N 
ATOM      2  C   UNL     1       2.136  -4.099   5.584  0.00  0.00    +0.248 C 
ATOM      3  O   UNL     1       0.994  -4.370   5.886  0.00  0.00    -0.273 OA
ATOM      4  C   UNL     1       3.120  -3.270   6.381  0.00  0.00    +0.169 C 
ATOM      5  C   UNL     1       2.550  -1.860   6.614  0.00  0.00    +0.065 C 
ATOM      6  C   UNL     1       3.737  -0.956   6.851  0.00  0.00    -0.034 C 
ATOM      7  C   UNL     1       4.008  -0.128   7.855  0.00  0.00    -0.001 A 
ATOM      8  C   UNL     1       3.219   0.275   9.030  0.00  0.00    +0.010 A 
ATOM      9  C   UNL     1       3.820   1.143   9.886  0.00  0.00    +0.001 A 
ATOM     10  C   UNL     1       5.111   1.645   9.692  0.00  0.00    +0.002 A 
ATOM     11  C   UNL     1       5.904   1.335   8.636  0.00  0.00    +0.026 A 
ATOM     12  C   UNL     1       5.378   0.435   7.663  0.00  0.00    +0.043 A 
ATOM     13  N   UNL     1       5.903  -0.012   6.561  0.00  0.00    -0.375 N 
ATOM     14  C   UNL     1       4.918  -0.865   5.893  0.00  0.00    +0.131 C 
ATOM     15  C   UNL     1       5.447  -2.294   5.700  0.00  0.00    +0.135 C 
ATOM     16  N   UNL     1       4.287  -3.173   5.481  0.00  0.00    -0.264 N 
ATOM     17  C   UNL     1       4.037  -3.971   4.435  0.00  0.00    +0.317 C 
ATOM     18  O   UNL     1       4.841  -4.208   3.555  0.00  0.00    -0.252 OA
ATOM     19  H   UNL     1       6.796   0.185   6.237  0.00  0.00    +0.160 HD
ENDROOT
BRANCH  15  20
ATOM     20  C   UNL     1       6.367  -2.345   4.507  0.00  0.00    -0.025 A 
ATOM     21  C   UNL     1       5.905  -1.962   3.262  0.00  0.00    +0.008 A 
ATOM     22  C   UNL     1       6.748  -2.008   2.168  0.00  0.00    +0.038 A 
ATOM     23  C   UNL     1       8.055  -2.438   2.319  0.00  0.00    +0.123 A 
ATOM     24  C   UNL     1       8.517  -2.822   3.567  0.00  0.00    +0.038 A 
ATOM     25  C   UNL     1       7.674  -2.770   4.661  0.00  0.00    +0.008 A 
ATOM     26  F   UNL     1       8.880  -2.484   1.250  0.00  0.00    -0.205 F 
ENDBRANCH  15  20
BRANCH   1  32
ATOM     27  C   UNL     1       1.566  -4.726   2.393  0.00  0.00    +0.059 A 
ATOM     28  C   UNL     1       1.034  -5.555   1.403  0.00  0.00    +0.015 A 
ATOM     29  C   UNL     1       1.182  -6.922   1.498  0.00  0.00    +0.001 A 
ATOM     30  C   UNL     1       1.857  -7.479   2.571  0.00  0.00    +0.002 A 
ATOM     31  C   UNL     1       2.389  -6.672   3.557  0.00  0.00    +0.025 A 
ATOM     32  C   UNL     1       2.254  -5.293   3.475  0.00  0.00    +0.058 A 
BRANCH  27  34
ATOM     33  N   UNL     1       0.749  -2.721   1.256  0.00  0.00    -0.311 N 
ATOM     34  C   UNL     1       1.411  -3.262   2.298  0.00  0.00    +0.246 C 
ATOM     35  O   UNL     1       1.881  -2.543   3.159  0.00  0.00    -0.270 OA
ATOM     36  H   UNL     1       0.375  -3.294   0.569  0.00  0.00    +0.149 HD
BRANCH  33  37
ATOM     37  C   UNL     1       0.596  -1.267   1.161  0.00  0.00    +0.104 C 
BRANCH  37  39
ATOM     38  C   UNL     1      -0.349   0.600  -0.205  0.00  0.00    +0.005 C 
ATOM     39  C   UNL     1      -0.189  -0.918  -0.106  0.00  0.00    +0.015 C 
ENDBRANCH  37  39
ENDBRANCH  33  37
ENDBRANCH  27  34
ENDBRANCH   1  32
TORSDOF 5
