REMARK  Name = ZINC39791647
REMARK  16 active torsions:
REMARK  status: ('A' for Active; 'I' for Inactive)
REMARK    1  A    between atoms: C_1  and  C_2
REMARK    2  A    between atoms: C_2  and  C_3
REMARK    3  A    between atoms: C_3  and  C_4
REMARK    4  A    between atoms: C_4  and  N_5
REMARK    5  A    between atoms: C_6  and  N_38
REMARK    6  A    between atoms: C_8  and  N_15
REMARK    7  A    between atoms: N_15  and  C_16
REMARK    8  A    between atoms: C_16  and  C_17
REMARK    9  A    between atoms: C_17  and  O_18
REMARK   10  A    between atoms: O_18  and  C_19
REMARK   11  A    between atoms: C_20  and  C_22
REMARK   12  A    between atoms: C_22  and  S_23
REMARK   13  A    between atoms: S_23  and  C_24
REMARK   14  A    between atoms: C_28  and  C_30
REMARK   15  A    between atoms: C_33  and  O_36
REMARK   16  A    between atoms: O_36  and  C_37
REMARK                            x       y       z     vdW  Elec       q    Type
REMARK                         _______ _______ _______ _____ _____    ______ ____
ROOT
ATOM      1  N   UNL     1      -5.103  -1.017   1.124  0.00  0.00    -0.287 N 
ATOM      2  C   UNL     1      -4.427  -0.285   0.217  0.00  0.00    +0.227 C 
ATOM      3  O   UNL     1      -3.759  -0.837  -0.632  0.00  0.00    -0.275 OA
ENDROOT
BRANCH   1   6
ATOM      4  N   UNL     1      -7.238  -2.992   1.866  0.00  0.00    -0.296 N 
ATOM      5  C   UNL     1      -6.297  -3.120   0.749  0.00  0.00    +0.047 C 
ATOM      6  C   UNL     1      -4.964  -2.475   1.139  0.00  0.00    +0.167 C 
ATOM      7  C   UNL     1      -4.577  -2.931   2.522  0.00  0.00    +0.261 C 
ATOM      8  O   UNL     1      -3.279  -3.083   2.834  0.00  0.00    -0.272 OA
ATOM      9  N   UNL     1      -5.490  -3.179   3.417  0.00  0.00    -0.126 NA
ATOM     10  C   UNL     1      -6.799  -3.069   3.134  0.00  0.00    +0.327 C 
ATOM     11  O   UNL     1      -7.605  -3.045   4.046  0.00  0.00    -0.250 OA
BRANCH   5  12
ATOM     12  N   UNL     1      -6.844  -2.442  -0.434  0.00  0.00    +0.392 N 
ATOM     13  H   UNL     1      -6.987  -1.465  -0.226  0.00  0.00    -0.087 HD
ATOM     14  H   UNL     1      -6.196  -2.531  -1.202  0.00  0.00    -0.087 HD
ATOM     15  H   UNL     1      -7.725  -2.865  -0.686  0.00  0.00    -0.087 HD
ENDBRANCH   5  12
BRANCH   4  16
ATOM     16  C   UNL     1      -8.661  -2.772   1.598  0.00  0.00    +0.107 C 
BRANCH  16  17
ATOM     17  C   UNL     1      -8.939  -1.269   1.517  0.00  0.00    +0.019 C 
BRANCH  17  19
ATOM     18  C   UNL     1     -10.703   0.463   1.157  0.00  0.00    +0.004 C 
ATOM     19  C   UNL     1     -10.425  -1.040   1.238  0.00  0.00    -0.002 C 
ENDBRANCH  17  19
ENDBRANCH  16  17
ENDBRANCH   4  16
ENDBRANCH   1   6
BRANCH   1  20
ATOM     20  C   UNL     1      -5.976  -0.355   2.096  0.00  0.00    +0.136 C 
BRANCH  20  21
ATOM     21  C   UNL     1      -5.173  -0.010   3.352  0.00  0.00    +0.178 C 
BRANCH  21  22
ATOM     22  O   UNL     1      -4.170   0.955   3.026  0.00  0.00    -0.381 OA
ATOM     23  C   UNL     1      -3.359   1.348   4.135  0.00  0.00    +0.194 C 
ENDBRANCH  21  22
ENDBRANCH  20  21
ENDBRANCH   1  20
BRANCH   2  24
ATOM     24  C   UNL     1      -4.500   1.220   0.257  0.00  0.00    +0.173 C 
BRANCH  24  25
ATOM     25  S   UNL     1      -3.491   1.911  -1.083  0.00  0.00    -0.077 S 
BRANCH  25  26
ATOM     26  C   UNL     1      -3.679   3.654  -0.902  0.00  0.00    +0.185 A 
ATOM     27  N   UNL     1      -3.112   4.598  -1.685  0.00  0.00    -0.253 N 
ATOM     28  H   UNL     1      -2.529   4.449  -2.446  0.00  0.00    +0.191 HD
ATOM     29  N   UNL     1      -3.532   5.839  -1.179  0.00  0.00    -0.152 NA
ATOM     30  C   UNL     1      -4.308   5.590  -0.149  0.00  0.00    +0.182 A 
ATOM     31  N   UNL     1      -4.400   4.262   0.014  0.00  0.00    -0.201 NA
BRANCH  30  32
ATOM     32  C   UNL     1      -4.978   6.611   0.693  0.00  0.00    +0.021 A 
ATOM     33  C   UNL     1      -5.774   6.217   1.767  0.00  0.00    +0.015 A 
ATOM     34  C   UNL     1      -6.395   7.169   2.549  0.00  0.00    +0.046 A 
ATOM     35  C   UNL     1      -6.228   8.518   2.267  0.00  0.00    +0.120 A 
ATOM     36  C   UNL     1      -5.435   8.913   1.198  0.00  0.00    +0.046 A 
ATOM     37  C   UNL     1      -4.807   7.966   0.416  0.00  0.00    +0.015 A 
BRANCH  35  38
ATOM     38  O   UNL     1      -6.842   9.453   3.038  0.00  0.00    -0.495 OA
ATOM     39  C   UNL     1      -6.627  10.823   2.692  0.00  0.00    +0.277 C 
ENDBRANCH  35  38
ENDBRANCH  30  32
ENDBRANCH  25  26
ENDBRANCH  24  25
ENDBRANCH   2  24
TORSDOF 13
