REMARK  Name = ZINC45470400
REMARK  9 active torsions:
REMARK  status: ('A' for Active; 'I' for Inactive)
REMARK    1  A    between atoms: C_1  and  C_2
REMARK    2  A    between atoms: C_2  and  C_4
REMARK    3  A    between atoms: C_2  and  N_14
REMARK    4  A    between atoms: C_7  and  S_10
REMARK    5  A    between atoms: S_10  and  N_13
REMARK    6  A    between atoms: N_14  and  C_15
REMARK    7  A    between atoms: N_14  and  C_16
REMARK    8  A    between atoms: C_16  and  C_17
REMARK    9  A    between atoms: N_19  and  C_20
REMARK                            x       y       z     vdW  Elec       q    Type
REMARK                         _______ _______ _______ _____ _____    ______ ____
ROOT
ATOM      1  N   UNL     1       0.713  -0.491   1.192  0.00  0.00    +0.388 N 
ATOM      2  C   UNL     1       0.733  -1.960   1.184  0.00  0.00    -0.095 C 
ATOM      3  H   UNL     1       0.240  -0.165   2.022  0.00  0.00    -0.081 HD
ENDROOT
BRANCH   1   5
ATOM      4  C   UNL     1      -0.019   1.526   0.010  0.00  0.00    -0.008 C 
ATOM      5  C   UNL     1       0.002  -0.004   0.002  0.00  0.00    -0.041 C 
BRANCH   5   6
ATOM      6  C   UNL     1      -1.412  -0.526   0.013  0.00  0.00    -0.061 A 
ATOM      7  C   UNL     1      -2.123  -0.571   1.197  0.00  0.00    +0.004 A 
ATOM      8  C   UNL     1      -3.420  -1.049   1.207  0.00  0.00    +0.029 A 
ATOM      9  C   UNL     1      -4.006  -1.482   0.032  0.00  0.00    +0.105 A 
ATOM     10  C   UNL     1      -3.295  -1.436  -1.153  0.00  0.00    +0.029 A 
ATOM     11  C   UNL     1      -2.000  -0.954  -1.163  0.00  0.00    +0.004 A 
BRANCH   9  12
ATOM     12  S   UNL     1      -5.658  -2.093   0.045  0.00  0.00    +0.056 S 
ATOM     13  O   UNL     1      -5.785  -2.944  -1.086  0.00  0.00    -0.153 OA
ATOM     14  O   UNL     1      -5.915  -2.542   1.369  0.00  0.00    -0.153 OA
BRANCH  12  15
ATOM     15  N   UNL     1      -6.660  -0.801  -0.219  0.00  0.00    -0.204 NA
ATOM     16  H   UNL     1      -7.510  -0.930  -0.669  0.00  0.00    +0.144 HD
ATOM     17  H   UNL     1      -6.397   0.085   0.076  0.00  0.00    +0.144 HD
ENDBRANCH  12  15
ENDBRANCH   9  12
ENDBRANCH   5   6
ENDBRANCH   1   5
BRANCH   1  18
ATOM     18  C   UNL     1       2.091   0.018   1.182  0.00  0.00    +0.019 C 
BRANCH  18  19
ATOM     19  C   UNL     1       2.782  -0.379   2.461  0.00  0.00    +0.197 C 
ATOM     20  O   UNL     1       2.186  -1.021   3.299  0.00  0.00    -0.278 OA
ATOM     21  N   UNL     1       4.063  -0.019   2.674  0.00  0.00    -0.314 N 
ATOM     22  H   UNL     1       4.540   0.495   2.004  0.00  0.00    +0.149 HD
BRANCH  21  23
ATOM     23  C   UNL     1       4.736  -0.404   3.917  0.00  0.00    +0.073 C 
ATOM     24  C   UNL     1       4.350   0.598   5.024  0.00  0.00    +0.022 C 
ATOM     25  C   UNL     1       4.596  -0.049   6.361  0.00  0.00    +0.002 C 
ATOM     26  C   UNL     1       5.985   0.292   6.933  0.00  0.00    +0.000 C 
ATOM     27  C   UNL     1       7.096   0.257   5.866  0.00  0.00    +0.000 C 
ATOM     28  C   UNL     1       6.956  -0.911   4.927  0.00  0.00    +0.002 C 
ATOM     29  C   UNL     1       6.171  -0.447   3.683  0.00  0.00    +0.022 C 
ENDBRANCH  21  23
ENDBRANCH  18  19
ENDBRANCH   1  18
TORSDOF 7
