REMARK  Name = ZINC39844432
REMARK  9 active torsions:
REMARK  status: ('A' for Active; 'I' for Inactive)
REMARK    1  A    between atoms: C_1  and  C_2
REMARK    2  A    between atoms: C_5  and  C_8
REMARK    3  A    between atoms: C_10  and  S_23
REMARK    4  A    between atoms: C_11  and  N_13
REMARK    5  A    between atoms: N_13  and  C_14
REMARK    6  A    between atoms: C_14  and  C_16
REMARK    7  A    between atoms: C_14  and  C_17
REMARK    8  A    between atoms: S_23  and  C_26
REMARK    9  A    between atoms: C_29  and  C_32
REMARK                            x       y       z     vdW  Elec       q    Type
REMARK                         _______ _______ _______ _____ _____    ______ ____
ROOT
ATOM      1  C   UNL     1       0.061  -4.250  -0.021  0.00  0.00    +0.231 A 
ATOM      2  N   UNL     1       0.071  -5.020   1.040  0.00  0.00    -0.188 NA
ATOM      3  C   UNL     1       0.088  -6.301   0.643  0.00  0.00    +0.243 A 
ATOM      4  C   UNL     1       0.087  -6.314  -0.712  0.00  0.00    +0.233 A 
ATOM      5  O   UNL     1       0.065  -5.029  -1.121  0.00  0.00    -0.420 OA
ENDROOT
BRANCH   1  10
ATOM      6  C   UNL     1      -0.018   1.503   0.010  0.00  0.00    +0.044 C 
ATOM      7  C   UNL     1       0.002  -0.004   0.002  0.00  0.00    -0.050 A 
ATOM      8  C   UNL     1       0.006  -0.686  -1.202  0.00  0.00    +0.004 A 
ATOM      9  C   UNL     1       0.025  -2.065  -1.217  0.00  0.00    +0.013 A 
ATOM     10  C   UNL     1       0.041  -2.773  -0.013  0.00  0.00    +0.037 A 
ATOM     11  C   UNL     1       0.037  -2.079   1.198  0.00  0.00    +0.013 A 
ATOM     12  C   UNL     1       0.023  -0.699   1.198  0.00  0.00    +0.004 A 
ENDBRANCH   1  10
BRANCH   3  13
ATOM     13  S   UNL     1       0.107  -7.715   1.695  0.00  0.00    +0.047 S 
ATOM     14  O   UNL     1       0.672  -8.776   0.939  0.00  0.00    -0.163 OA
ATOM     15  O   UNL     1       0.653  -7.290   2.937  0.00  0.00    -0.163 OA
BRANCH  13  16
ATOM     16  C   UNL     1      -1.570  -8.155   2.007  0.00  0.00    +0.095 A 
ATOM     17  C   UNL     1      -2.239  -7.609   3.087  0.00  0.00    +0.028 A 
ATOM     18  C   UNL     1      -3.555  -7.954   3.331  0.00  0.00    +0.005 A 
ATOM     19  C   UNL     1      -4.202  -8.846   2.496  0.00  0.00    -0.050 A 
ATOM     20  C   UNL     1      -3.534  -9.391   1.416  0.00  0.00    +0.005 A 
ATOM     21  C   UNL     1      -2.219  -9.043   1.169  0.00  0.00    +0.028 A 
ATOM     22  C   UNL     1      -5.636  -9.223   2.764  0.00  0.00    +0.044 C 
ENDBRANCH  13  16
ENDBRANCH   3  13
BRANCH   4  23
ATOM     23  N   UNL     1       0.102  -7.440  -1.528  0.00  0.00    -0.306 N 
ATOM     24  H   UNL     1       0.113  -8.325  -1.132  0.00  0.00    +0.150 HD
BRANCH  23  25
ATOM     25  C   UNL     1       0.099  -7.289  -2.985  0.00  0.00    +0.100 C 
ATOM     26  C   UNL     1       1.533  -7.092  -3.480  0.00  0.00    +0.033 C 
BRANCH  25  27
ATOM     27  C   UNL     1      -0.486  -8.525  -3.617  0.00  0.00    -0.027 A 
ATOM     28  C   UNL     1      -0.181  -9.773  -3.106  0.00  0.00    +0.005 A 
ATOM     29  C   UNL     1      -0.717 -10.908  -3.686  0.00  0.00    +0.000 A 
ATOM     30  C   UNL     1      -1.559 -10.794  -4.776  0.00  0.00    +0.000 A 
ATOM     31  C   UNL     1      -1.865  -9.547  -5.287  0.00  0.00    +0.000 A 
ATOM     32  C   UNL     1      -1.332  -8.412  -4.705  0.00  0.00    +0.005 A 
ENDBRANCH  25  27
ENDBRANCH  23  25
ENDBRANCH   4  23
TORSDOF 6
