REMARK  Name = ZINC27117553
REMARK  13 active torsions:
REMARK  status: ('A' for Active; 'I' for Inactive)
REMARK    1  A    between atoms: C_1  and  C_2
REMARK    2  A    between atoms: C_2  and  C_3
REMARK    3  A    between atoms: C_2  and  C_4
REMARK    4  A    between atoms: C_2  and  C_34
REMARK    5  A    between atoms: C_4  and  N_5
REMARK    6  A    between atoms: C_6  and  C_8
REMARK    7  A    between atoms: C_14  and  C_16
REMARK    8  A    between atoms: C_16  and  C_18
REMARK    9  A    between atoms: C_16  and  N_26
REMARK   10  A    between atoms: C_18  and  C_20
REMARK   11  A    between atoms: C_34  and  N_35
REMARK   12  A    between atoms: N_35  and  C_36
REMARK   13  A    between atoms: N_35  and  C_37
REMARK                            x       y       z     vdW  Elec       q    Type
REMARK                         _______ _______ _______ _____ _____    ______ ____
ROOT
ATOM      1  C   UNL     1       0.638   1.131   1.978  0.00  0.00    +0.078 C 
ATOM      2  C   UNL     1      -0.725   0.461   1.792  0.00  0.00    +0.032 C 
ATOM      3  C   UNL     1      -0.605  -1.030   2.123  0.00  0.00    +0.108 C 
ATOM      4  N   UNL     1       0.469  -1.611   1.306  0.00  0.00    -0.299 N 
ATOM      5  C   UNL     1       1.799  -0.988   1.341  0.00  0.00    +0.108 C 
ATOM      6  C   UNL     1       1.653   0.503   1.019  0.00  0.00    +0.032 C 
ATOM      7  C   UNL     1       0.239  -2.696   0.540  0.00  0.00    +0.246 C 
ATOM      8  O   UNL     1      -0.841  -3.246   0.576  0.00  0.00    -0.273 OA
ENDROOT
BRANCH   1  10
ATOM      9  N   UNL     1       1.599   3.402   1.786  0.00  0.00    -0.315 N 
ATOM     10  C   UNL     1       0.517   2.604   1.686  0.00  0.00    +0.216 C 
ATOM     11  O   UNL     1      -0.554   3.072   1.361  0.00  0.00    -0.276 OA
ATOM     12  H   UNL     1       2.570   2.978   2.080  0.00  0.00    +0.149 HD
BRANCH   9  13
ATOM     13  C   UNL     1       1.481   4.835   1.502  0.00  0.00    +0.108 C 
BRANCH  13  15
ATOM     14  C   UNL     1       3.317   5.308   3.129  0.00  0.00    +0.010 C 
ATOM     15  C   UNL     1       2.844   5.505   1.688  0.00  0.00    -0.034 C 
ATOM     16  C   UNL     1       3.856   4.877   0.728  0.00  0.00    +0.010 C 
BRANCH  15  17
ATOM     17  C   UNL     1       2.721   7.001   1.391  0.00  0.00    -0.072 C 
BRANCH  17  18
ATOM     18  N   UNL     1       4.030   7.644   1.564  0.00  0.00    +0.376 N 
ATOM     19  C   UNL     1       4.817   7.577   0.325  0.00  0.00    -0.097 C 
ATOM     20  C   UNL     1       3.879   9.033   2.018  0.00  0.00    -0.097 C 
ATOM     21  H   UNL     1       4.578   7.092   2.342  0.00  0.00    -0.083 HD
ENDBRANCH  17  18
ENDBRANCH  15  17
ENDBRANCH  13  15
ENDBRANCH   9  13
ENDBRANCH   1  10
BRANCH   7  22
ATOM     22  C   UNL     1       1.325  -3.226  -0.361  0.00  0.00    +0.247 C 
BRANCH  22  23
ATOM     23  N   UNL     1       0.854  -3.222  -1.748  0.00  0.00    -0.295 N 
ATOM     24  C   UNL     1      -0.240  -3.952  -2.087  0.00  0.00    +0.110 A 
ATOM     25  C   UNL     1      -0.697  -3.961  -3.362  0.00  0.00    +0.057 A 
ATOM     26  C   UNL     1      -0.032  -3.217  -4.349  0.00  0.00    +0.027 A 
ATOM     27  C   UNL     1       1.069  -2.489  -4.006  0.00  0.00    +0.072 A 
ATOM     28  C   UNL     1       1.513  -2.499  -2.673  0.00  0.00    +0.252 A 
ATOM     29  O   UNL     1       2.497  -1.851  -2.353  0.00  0.00    -0.268 OA
ATOM     30 CL   UNL     1      -2.100  -4.895  -3.776  0.00  0.00    -0.082 Cl
ENDBRANCH  22  23
BRANCH  22  31
ATOM     31  C   UNL     1       1.674  -4.634   0.047  0.00  0.00    +0.195 C 
ATOM     32  O   UNL     1       1.265  -5.572  -0.603  0.00  0.00    -0.289 OA
BRANCH  31  33
ATOM     33  C   UNL     1       2.510  -4.870   1.235  0.00  0.00    +0.020 A 
ATOM     34  C   UNL     1       3.105  -3.794   1.901  0.00  0.00    +0.011 A 
ATOM     35  C   UNL     1       3.883  -4.023   3.017  0.00  0.00    +0.001 A 
ATOM     36  C   UNL     1       4.085  -5.314   3.470  0.00  0.00    +0.000 A 
ATOM     37  C   UNL     1       3.505  -6.386   2.813  0.00  0.00    +0.001 A 
ATOM     38  C   UNL     1       2.720  -6.173   1.699  0.00  0.00    +0.011 A 
ENDBRANCH  31  33
ENDBRANCH  22  31
ENDBRANCH   7  22
TORSDOF 9
