REMARK  Name = ZINC20357256
REMARK  14 active torsions:
REMARK  status: ('A' for Active; 'I' for Inactive)
REMARK    1  A    between atoms: C_1  and  C_2
REMARK    2  A    between atoms: C_6  and  O_8
REMARK    3  A    between atoms: O_8  and  C_9
REMARK    4  A    between atoms: C_9  and  C_11
REMARK    5  A    between atoms: C_9  and  C_12
REMARK    6  A    between atoms: N_14  and  N_15
REMARK    7  A    between atoms: N_15  and  C_16
REMARK    8  A    between atoms: C_16  and  N_18
REMARK    9  A    between atoms: N_18  and  C_19
REMARK   10  A    between atoms: C_20  and  C_31
REMARK   11  A    between atoms: C_21  and  C_25
REMARK   12  A    between atoms: C_22  and  C_24
REMARK   13  A    between atoms: C_31  and  O_33
REMARK   14  A    between atoms: O_33  and  C_34
REMARK                            x       y       z     vdW  Elec       q    Type
REMARK                         _______ _______ _______ _____ _____    ______ ____
ROOT
ATOM      1  C   UNL     1      -0.393   1.457  -0.431  0.00  0.00    +0.151 C 
ATOM      2  S   UNL     1      -0.483  -0.252  -0.380  0.00  0.00    -0.017 S 
ENDROOT
BRANCH   1   3
ATOM      3  N   UNL     1      -1.506   2.196  -0.252  0.00  0.00    -0.245 N 
ATOM      4  H   UNL     1      -2.472   1.701  -0.073  0.00  0.00    +0.172 HD
BRANCH   3   7
ATOM      5  C   UNL     1      -2.545   4.333  -0.116  0.00  0.00    +0.270 C 
ATOM      6  O   UNL     1      -3.610   3.787   0.082  0.00  0.00    -0.270 OA
ATOM      7  N   UNL     1      -1.432   3.594  -0.294  0.00  0.00    -0.232 N 
ATOM      8  H   UNL     1      -0.466   4.089  -0.473  0.00  0.00    +0.173 HD
BRANCH   5   9
ATOM      9  C   UNL     1      -2.466   5.837  -0.161  0.00  0.00    +0.257 C 
ATOM     10  C   UNL     1      -1.515   6.331   0.931  0.00  0.00    +0.062 C 
BRANCH   9  11
ATOM     11  O   UNL     1      -3.767   6.389   0.055  0.00  0.00    -0.478 OA
BRANCH  11  17
ATOM     12  C   UNL     1      -2.092  10.389  -2.186  0.00  0.00    +0.044 C 
ATOM     13  C   UNL     1      -3.212   9.608  -1.548  0.00  0.00    -0.047 A 
ATOM     14  C   UNL     1      -4.480  10.155  -1.475  0.00  0.00    +0.005 A 
ATOM     15  C   UNL     1      -5.510   9.441  -0.891  0.00  0.00    +0.024 A 
ATOM     16  C   UNL     1      -5.276   8.177  -0.383  0.00  0.00    +0.083 A 
ATOM     17  C   UNL     1      -4.002   7.630  -0.449  0.00  0.00    +0.140 A 
ATOM     18  C   UNL     1      -2.971   8.348  -1.036  0.00  0.00    +0.050 A 
ATOM     19 CL   UNL     1      -6.571   7.278   0.344  0.00  0.00    -0.080 Cl
ENDBRANCH  11  17
ENDBRANCH   9  11
ENDBRANCH   5   9
ENDBRANCH   3   7
ENDBRANCH   1   3
BRANCH   1  20
ATOM     20  N   UNL     1       0.789   2.063  -0.656  0.00  0.00    -0.290 N 
ATOM     21  H   UNL     1       0.847   3.161  -0.689  0.00  0.00    +0.154 HD
BRANCH  20  22
ATOM     22  C   UNL     1       1.932   1.304  -0.845  0.00  0.00    +0.086 A 
ATOM     23  C   UNL     1       3.226   1.744  -1.092  0.00  0.00    +0.095 A 
ATOM     24  C   UNL     1       4.244   0.721  -1.248  0.00  0.00    +0.008 A 
ATOM     25  C   UNL     1       3.834  -0.569  -1.148  0.00  0.00    -0.003 A 
ATOM     26  S   UNL     1       2.087  -0.420  -0.838  0.00  0.00    -0.077 S 
ATOM     27  C   UNL     1       4.658  -1.824  -1.270  0.00  0.00    +0.052 C 
BRANCH  24  28
ATOM     28  C   UNL     1       5.661   1.068  -1.509  0.00  0.00    -0.016 A 
ATOM     29  C   UNL     1       6.402   1.755  -0.548  0.00  0.00    +0.008 A 
ATOM     30  C   UNL     1       7.722   2.071  -0.794  0.00  0.00    +0.001 A 
ATOM     31  C   UNL     1       8.308   1.717  -1.996  0.00  0.00    +0.000 A 
ATOM     32  C   UNL     1       7.577   1.040  -2.956  0.00  0.00    +0.001 A 
ATOM     33  C   UNL     1       6.257   0.715  -2.719  0.00  0.00    +0.008 A 
ENDBRANCH  24  28
BRANCH  23  34
ATOM     34  C   UNL     1       3.548   3.167  -1.187  0.00  0.00    +0.342 C 
ATOM     35  O   UNL     1       3.871   3.785  -0.190  0.00  0.00    -0.245 OA
BRANCH  34  36
ATOM     36  O   UNL     1       3.486   3.795  -2.379  0.00  0.00    -0.464 OA
ATOM     37  C   UNL     1       3.813   5.186  -2.398  0.00  0.00    +0.280 C 
ENDBRANCH  34  36
ENDBRANCH  23  34
ENDBRANCH  20  22
ENDBRANCH   1  20
TORSDOF 10
