REMARK  Name = ZINC08977577
REMARK  8 active torsions:
REMARK  status: ('A' for Active; 'I' for Inactive)
REMARK    1  A    between atoms: C_1  and  C_2
REMARK    2  A    between atoms: C_2  and  O_3
REMARK    3  A    between atoms: O_3  and  C_4
REMARK    4  A    between atoms: C_12  and  N_16
REMARK    5  A    between atoms: C_13  and  C_14
REMARK    6  A    between atoms: C_17  and  C_19
REMARK    7  A    between atoms: N_24  and  S_25
REMARK    8  A    between atoms: S_25  and  C_28
REMARK                            x       y       z     vdW  Elec       q    Type
REMARK                         _______ _______ _______ _____ _____    ______ ____
ROOT
ATOM      1  N   UNL     1       0.002  -0.004   0.002  0.00  0.00    -0.278 N 
ATOM      2  C   UNL     1      -0.016   1.344   0.009  0.00  0.00    +0.236 C 
ATOM      3  O   UNL     1       1.026   1.964   0.003  0.00  0.00    -0.274 OA
ATOM      4  H   UNL     1      -0.831  -0.500   0.007  0.00  0.00    +0.155 HD
ENDROOT
BRANCH   1  13
ATOM      5  C   UNL     1       6.501  -3.538   0.977  0.00  0.00    +0.403 C 
ATOM      6  O   UNL     1       6.707  -4.723   1.145  0.00  0.00    -0.226 OA
ATOM      7  N   UNL     1       5.506  -3.136   0.161  0.00  0.00    -0.262 N 
ATOM      8  C   UNL     1       4.654  -4.108  -0.539  0.00  0.00    +0.116 C 
ATOM      9  C   UNL     1       3.213  -3.980  -0.041  0.00  0.00    +0.056 C 
ATOM     10  C   UNL     1       2.813  -2.510  -0.038  0.00  0.00    -0.015 A 
ATOM     11  C   UNL     1       3.743  -1.529  -0.043  0.00  0.00    +0.013 A 
ATOM     12  S   UNL     1       2.816  -0.022  -0.024  0.00  0.00    -0.075 S 
ATOM     13  C   UNL     1       1.213  -0.682  -0.013  0.00  0.00    +0.090 A 
ATOM     14  C   UNL     1       1.435  -2.050  -0.017  0.00  0.00    +0.084 A 
ATOM     15  C   UNL     1       5.232  -1.702  -0.064  0.00  0.00    +0.153 C 
BRANCH  14  16
ATOM     16  C   UNL     1       0.344  -2.978  -0.005  0.00  0.00    +0.102 C 
ATOM     17  N   UNL     1      -0.521  -3.714   0.004  0.00  0.00    -0.191 NA
ENDBRANCH  14  16
BRANCH   5  18
ATOM     18  O   UNL     1       7.266  -2.625   1.605  0.00  0.00    -0.451 OA
BRANCH  18  20
ATOM     19  C   UNL     1       9.076  -1.955   3.091  0.00  0.00    +0.048 C 
ATOM     20  C   UNL     1       8.319  -3.130   2.469  0.00  0.00    +0.230 C 
ENDBRANCH  18  20
ENDBRANCH   5  18
ENDBRANCH   1  13
BRANCH   2  21
ATOM     21  C   UNL     1      -1.331   2.079   0.020  0.00  0.00    +0.166 C 
ATOM     22  C   UNL     1      -2.119   1.728   1.300  0.00  0.00    +0.031 C 
ATOM     23  C   UNL     1      -1.786   2.918   2.245  0.00  0.00    +0.019 C 
ATOM     24  C   UNL     1      -1.712   4.099   1.245  0.00  0.00    +0.110 C 
ATOM     25  N   UNL     1      -1.093   3.530   0.034  0.00  0.00    -0.165 NA
BRANCH  25  26
ATOM     26  S   UNL     1      -0.264   4.383  -1.118  0.00  0.00    +0.062 S 
ATOM     27  O   UNL     1       0.210   5.564  -0.486  0.00  0.00    -0.153 OA
ATOM     28  O   UNL     1       0.606   3.461  -1.760  0.00  0.00    -0.153 OA
BRANCH  26  29
ATOM     29  C   UNL     1      -1.436   4.896  -2.330  0.00  0.00    +0.106 A 
ATOM     30  C   UNL     1      -1.701   4.088  -3.420  0.00  0.00    +0.030 A 
ATOM     31  C   UNL     1      -2.625   4.487  -4.368  0.00  0.00    +0.022 A 
ATOM     32  C   UNL     1      -3.276   5.700  -4.232  0.00  0.00    +0.041 A 
ATOM     33  C   UNL     1      -3.006   6.511  -3.143  0.00  0.00    +0.022 A 
ATOM     34  C   UNL     1      -2.086   6.108  -2.193  0.00  0.00    +0.030 A 
ATOM     35 CL   UNL     1      -4.431   6.205  -5.425  0.00  0.00    -0.084 Cl
ENDBRANCH  26  29
ENDBRANCH  25  26
ENDBRANCH   2  21
TORSDOF 7
