REMARK  Name = ZINC43144723
REMARK  8 active torsions:
REMARK  status: ('A' for Active; 'I' for Inactive)
REMARK    1  A    between atoms: C_1  and  C_2
REMARK    2  A    between atoms: C_2  and  N_3
REMARK    3  A    between atoms: N_3  and  C_4
REMARK    4  A    between atoms: C_4  and  C_5
REMARK    5  A    between atoms: N_13  and  C_14
REMARK    6  A    between atoms: C_14  and  C_15
REMARK    7  A    between atoms: C_15  and  C_17
REMARK    8  A    between atoms: C_15  and  N_24
REMARK                            x       y       z     vdW  Elec       q    Type
REMARK                         _______ _______ _______ _____ _____    ______ ____
ROOT
ATOM      1  C   UNL     1      -1.743   0.034  -4.232  0.00  0.00    +0.129 C 
ENDROOT
BRANCH   1   5
ATOM      2  N   UNL     1       0.716  -0.269  -1.516  0.00  0.00    -0.286 N 
ATOM      3  C   UNL     1       0.143  -0.333  -2.734  0.00  0.00    +0.302 C 
ATOM      4  O   UNL     1       0.765  -0.785  -3.675  0.00  0.00    -0.253 OA
ATOM      5  N   UNL     1      -1.120   0.104  -2.908  0.00  0.00    -0.297 N 
ATOM      6  H   UNL     1      -1.616   0.464  -2.157  0.00  0.00    +0.150 HD
BRANCH   2   8
ATOM      7  C   UNL     1       0.065   1.700  -0.220  0.00  0.00    +0.024 C 
ATOM      8  C   UNL     1      -0.065   0.182  -0.361  0.00  0.00    +0.106 C 
ENDBRANCH   2   8
BRANCH   2   9
ATOM      9  C   UNL     1       2.120  -0.651  -1.345  0.00  0.00    +0.115 C 
BRANCH   9  10
ATOM     10  C   UNL     1       2.199  -2.099  -0.859  0.00  0.00    +0.034 C 
ATOM     11  C   UNL     1       3.675  -2.523  -0.655  0.00  0.00    +0.035 C 
ATOM     12  C   UNL     1       3.676  -3.971  -1.209  0.00  0.00    +0.160 C 
ATOM     13  O   UNL     1       2.775  -3.901  -2.335  0.00  0.00    -0.379 OA
ATOM     14  C   UNL     1       1.673  -3.062  -1.940  0.00  0.00    +0.165 C 
ENDBRANCH   9  10
ENDBRANCH   2   9
ENDBRANCH   1   5
BRANCH   1  15
ATOM     15  C   UNL     1      -3.206   0.470  -4.131  0.00  0.00    +0.104 C 
BRANCH  15  16
ATOM     16  C   UNL     1      -3.949  -0.472  -3.219  0.00  0.00    -0.029 A 
ATOM     17  C   UNL     1      -4.378  -1.698  -3.694  0.00  0.00    +0.008 A 
ATOM     18  C   UNL     1      -5.059  -2.563  -2.858  0.00  0.00    +0.038 A 
ATOM     19  C   UNL     1      -5.312  -2.201  -1.546  0.00  0.00    +0.123 A 
ATOM     20  C   UNL     1      -4.883  -0.973  -1.072  0.00  0.00    +0.038 A 
ATOM     21  C   UNL     1      -4.197  -0.112  -1.908  0.00  0.00    +0.008 A 
ATOM     22  F   UNL     1      -5.979  -3.046  -0.729  0.00  0.00    -0.205 F 
ENDBRANCH  15  16
BRANCH  15  23
ATOM     23  N   UNL     1      -3.818   0.444  -5.466  0.00  0.00    -0.290 NA
ATOM     24  C   UNL     1      -3.007   1.199  -6.432  0.00  0.00    +0.113 C 
ATOM     25  C   UNL     1      -3.647   1.096  -7.819  0.00  0.00    +0.175 C 
ATOM     26  O   UNL     1      -4.994   1.574  -7.753  0.00  0.00    -0.377 OA
ATOM     27  C   UNL     1      -5.813   0.861  -6.822  0.00  0.00    +0.175 C 
ATOM     28  C   UNL     1      -5.194   0.961  -5.425  0.00  0.00    +0.113 C 
ENDBRANCH  15  23
ENDBRANCH   1  15
TORSDOF 7
