REMARK  Name = ZINC38975650
REMARK  4 active torsions:
REMARK  status: ('A' for Active; 'I' for Inactive)
REMARK    1  A    between atoms: C_4  and  S_7
REMARK    2  A    between atoms: S_7  and  N_10
REMARK    3  A    between atoms: C_12  and  N_22
REMARK    4  A    between atoms: N_22  and  C_23
REMARK                            x       y       z     vdW  Elec       q    Type
REMARK                         _______ _______ _______ _____ _____    ______ ____
ROOT
ATOM      1  N   UNL     1       4.598  -0.921   1.377  0.00  0.00    -0.110 NA
ATOM      2  C   UNL     1       5.616  -1.637   1.753  0.00  0.00    +0.192 C 
ATOM      3  C   UNL     1       5.857  -1.919   3.219  0.00  0.00    +0.237 C 
ATOM      4  N   UNL     1       7.026  -2.737   3.578  0.00  0.00    -0.359 N 
ATOM      5  C   UNL     1       7.795  -3.178   2.621  0.00  0.00    +0.063 A 
ATOM      6  C   UNL     1       8.976  -3.999   2.927  0.00  0.00    +0.027 A 
ATOM      7  C   UNL     1       9.748  -4.437   1.909  0.00  0.00    +0.002 A 
ATOM      8  C   UNL     1       9.451  -4.129   0.571  0.00  0.00    +0.002 A 
ATOM      9  C   UNL     1       8.385  -3.381   0.213  0.00  0.00    +0.030 A 
ATOM     10  C   UNL     1       7.505  -2.867   1.200  0.00  0.00    +0.089 A 
ATOM     11  N   UNL     1       6.465  -2.143   0.844  0.00  0.00    -0.226 NA
ATOM     12  H   UNL     1       7.221  -2.943   4.505  0.00  0.00    +0.162 HD
ENDROOT
BRANCH   1  13
ATOM     13  S   UNL     1       4.341  -0.626  -0.232  0.00  0.00    +0.100 S 
ATOM     14  O   UNL     1       4.031  -1.877  -0.830  0.00  0.00    -0.146 OA
ATOM     15  O   UNL     1       5.423   0.183  -0.674  0.00  0.00    -0.146 OA
BRANCH  13  19
ATOM     16  C   UNL     1       0.611   1.919  -0.550  0.00  0.00    +0.000 A 
ATOM     17  C   UNL     1       1.850   2.521  -0.425  0.00  0.00    +0.002 A 
ATOM     18  C   UNL     1       2.989   1.744  -0.328  0.00  0.00    +0.029 A 
ATOM     19  C   UNL     1       2.889   0.365  -0.355  0.00  0.00    +0.113 A 
ATOM     20  C   UNL     1       1.651  -0.236  -0.478  0.00  0.00    +0.029 A 
ATOM     21  C   UNL     1       0.512   0.541  -0.577  0.00  0.00    +0.002 A 
ENDBRANCH  13  19
ENDBRANCH   1  13
BRANCH   3  22
ATOM     22  N   UNL     1       5.984  -0.632   3.906  0.00  0.00    -0.318 N 
ATOM     23  H   UNL     1       6.515   0.078   3.512  0.00  0.00    +0.148 HD
BRANCH  22  24
ATOM     24  C   UNL     1       5.342  -0.427   5.130  0.00  0.00    +0.030 A 
ATOM     25  C   UNL     1       4.716  -1.487   5.773  0.00  0.00    +0.023 A 
ATOM     26  C   UNL     1       4.081  -1.282   6.982  0.00  0.00    +0.003 A 
ATOM     27  C   UNL     1       4.069  -0.022   7.553  0.00  0.00    +0.015 A 
ATOM     28  C   UNL     1       4.691   1.036   6.916  0.00  0.00    +0.020 A 
ATOM     29  C   UNL     1       5.333   0.836   5.708  0.00  0.00    +0.038 A 
ATOM     30 BR   UNL     1       4.671   2.756   7.700  0.00  0.00    -0.050 Br
ENDBRANCH  22  24
ENDBRANCH   3  22
TORSDOF 4
