REMARK  Name = ZINC33793174
REMARK  17 active torsions:
REMARK  status: ('A' for Active; 'I' for Inactive)
REMARK    1  A    between atoms: C_1  and  C_2
REMARK    2  A    between atoms: C_2  and  C_3
REMARK    3  A    between atoms: C_3  and  C_4
REMARK    4  A    between atoms: C_4  and  C_5
REMARK    5  A    between atoms: C_5  and  C_7
REMARK    6  A    between atoms: C_5  and  C_9
REMARK    7  A    between atoms: C_7  and  C_8
REMARK    8  A    between atoms: N_11  and  C_12
REMARK    9  A    between atoms: N_11  and  C_19
REMARK   10  A    between atoms: C_12  and  C_13
REMARK   11  A    between atoms: C_13  and  N_14
REMARK   12  A    between atoms: C_19  and  C_20
REMARK   13  A    between atoms: N_22  and  C_23
REMARK   14  A    between atoms: N_22  and  C_31
REMARK   15  A    between atoms: C_23  and  C_24
REMARK   16  A    between atoms: C_31  and  C_32
REMARK   17  A    between atoms: C_33  and  C_37
REMARK                            x       y       z     vdW  Elec       q    Type
REMARK                         _______ _______ _______ _____ _____    ______ ____
ROOT
ATOM      1  C   UNL     1       0.011   1.151   4.743  0.00  0.00    +0.203 C 
ENDROOT
BRANCH   1   4
ATOM      2  C   UNL     1      -0.257   1.000   2.326  0.00  0.00    +0.219 C 
ATOM      3  O   UNL     1       0.798   0.403   2.275  0.00  0.00    -0.275 OA
ATOM      4  N   UNL     1      -0.755   1.387   3.516  0.00  0.00    -0.294 N 
BRANCH   2   5
ATOM      5  C   UNL     1      -1.010   1.308   1.057  0.00  0.00    +0.075 C 
BRANCH   5   6
ATOM      6  C   UNL     1      -0.830   2.786   0.704  0.00  0.00    +0.009 C 
ATOM      7  C   UNL     1       0.661   3.098   0.561  0.00  0.00    +0.004 C 
ENDBRANCH   5   6
BRANCH   5   8
ATOM      8  C   UNL     1      -0.467   0.442  -0.081  0.00  0.00    +0.013 C 
BRANCH   8   9
ATOM      9  C   UNL     1      -1.321   0.652  -1.333  0.00  0.00    +0.000 C 
BRANCH   9  11
ATOM     10  C   UNL     1      -1.577   0.069  -3.749  0.00  0.00    +0.004 C 
ATOM     11  C   UNL     1      -0.724  -0.142  -2.497  0.00  0.00    -0.003 C 
ENDBRANCH   9  11
ENDBRANCH   8   9
ENDBRANCH   5   8
ENDBRANCH   2   5
BRANCH   4  12
ATOM     12  C   UNL     1      -2.063   2.045   3.584  0.00  0.00    +0.090 C 
BRANCH  12  13
ATOM     13  C   UNL     1      -3.155   0.990   3.775  0.00  0.00    -0.060 C 
BRANCH  13  14
ATOM     14  N   UNL     1      -4.465   1.649   3.843  0.00  0.00    +0.381 N 
ATOM     15  C   UNL     1      -4.671   2.546   2.677  0.00  0.00    -0.079 C 
ATOM     16  C   UNL     1      -6.211   2.717   2.628  0.00  0.00    -0.020 C 
ATOM     17  C   UNL     1      -6.726   1.314   3.024  0.00  0.00    -0.020 C 
ATOM     18  C   UNL     1      -5.561   0.657   3.787  0.00  0.00    -0.079 C 
ATOM     19  H   UNL     1      -4.473   2.205   4.792  0.00  0.00    -0.082 HD
ENDBRANCH  13  14
ENDBRANCH  12  13
ENDBRANCH   4  12
ENDBRANCH   1   4
BRANCH   1  20
ATOM     20  C   UNL     1       0.902   2.336   5.014  0.00  0.00    +0.234 C 
ATOM     21  O   UNL     1       0.898   3.284   4.258  0.00  0.00    -0.274 OA
ATOM     22  N   UNL     1       1.703   2.342   6.098  0.00  0.00    -0.291 N 
BRANCH  22  23
ATOM     23  C   UNL     1       2.570   3.494   6.362  0.00  0.00    +0.143 C 
BRANCH  23  24
ATOM     24  C   UNL     1       1.875   4.438   7.308  0.00  0.00    -0.030 A 
ATOM     25  C   UNL     1       1.078   5.452   6.811  0.00  0.00    +0.008 A 
ATOM     26  C   UNL     1       0.436   6.316   7.678  0.00  0.00    +0.038 A 
ATOM     27  C   UNL     1       0.601   6.173   9.045  0.00  0.00    +0.123 A 
ATOM     28  C   UNL     1       1.404   5.160   9.542  0.00  0.00    +0.038 A 
ATOM     29  C   UNL     1       2.040   4.294   8.673  0.00  0.00    +0.008 A 
ATOM     30  F   UNL     1      -0.022   7.020   9.894  0.00  0.00    -0.205 F 
ENDBRANCH  23  24
ENDBRANCH  22  23
BRANCH  22  31
ATOM     31  C   UNL     1       1.708   1.197   7.011  0.00  0.00    +0.150 C 
BRANCH  31  32
ATOM     32  C   UNL     1       2.827   0.259   6.636  0.00  0.00    +0.010 A 
ATOM     33  C   UNL     1       4.080   0.178   7.146  0.00  0.00    -0.039 A 
ATOM     34  C   UNL     1       4.947  -0.774   6.644  0.00  0.00    +0.011 A 
ATOM     35  C   UNL     1       4.523  -1.591   5.649  0.00  0.00    +0.046 A 
ATOM     36  S   UNL     1       2.848  -1.027   5.398  0.00  0.00    -0.100 S 
ATOM     37  C   UNL     1       4.519   1.109   8.247  0.00  0.00    +0.044 C 
ENDBRANCH  31  32
ENDBRANCH  22  31
ENDBRANCH   1  20
TORSDOF 14
