REMARK  Name = ZINC06456130
REMARK  9 active torsions:
REMARK  status: ('A' for Active; 'I' for Inactive)
REMARK    1  A    between atoms: C_1  and  C_2
REMARK    2  A    between atoms: C_8  and  C_13
REMARK    3  A    between atoms: C_9  and  O_12
REMARK    4  A    between atoms: C_13  and  C_15
REMARK    5  A    between atoms: C_13  and  N_29
REMARK    6  A    between atoms: C_19  and  O_21
REMARK    7  A    between atoms: O_21  and  C_22
REMARK    8  A    between atoms: C_22  and  C_23
REMARK    9  A    between atoms: N_29  and  C_30
REMARK                            x       y       z     vdW  Elec       q    Type
REMARK                         _______ _______ _______ _____ _____    ______ ____
ROOT
ATOM      1  C   UNL     1       4.931   4.013  -0.002  0.00  0.00    +0.136 C 
ENDROOT
BRANCH   1   9
ATOM      2  C   UNL     1      -2.088   2.688  -1.512  0.00  0.00    +0.065 C 
ATOM      3  C   UNL     1      -0.710   2.156  -1.214  0.00  0.00    +0.039 A 
ATOM      4  C   UNL     1      -0.508   0.778  -1.172  0.00  0.00    +0.023 A 
ATOM      5  C   UNL     1       0.733   0.280  -0.898  0.00  0.00    +0.012 A 
ATOM      6  C   UNL     1       1.781   1.192  -0.674  0.00  0.00    +0.004 A 
ATOM      7  C   UNL     1       3.086   0.753  -0.393  0.00  0.00    +0.010 A 
ATOM      8  C   UNL     1       4.074   1.665  -0.182  0.00  0.00    +0.010 A 
ATOM      9  C   UNL     1       3.812   3.032  -0.241  0.00  0.00    +0.021 A 
ATOM     10  C   UNL     1       2.557   3.496  -0.512  0.00  0.00    +0.148 A 
ATOM     11  C   UNL     1       1.508   2.580  -0.736  0.00  0.00    +0.113 A 
ATOM     12  N   UNL     1       0.269   3.003  -1.004  0.00  0.00    -0.248 NA
BRANCH  10  13
ATOM     13  O   UNL     1       2.320   4.833  -0.565  0.00  0.00    -0.504 OA
ATOM     14  H   UNL     1       2.438   5.219  -1.444  0.00  0.00    +0.292 HD
ENDBRANCH  10  13
ENDBRANCH   1   9
BRANCH   1  15
ATOM     15  C   UNL     1       4.957   4.399   1.455  0.00  0.00    -0.019 A 
ATOM     16  C   UNL     1       5.465   3.520   2.394  0.00  0.00    +0.006 A 
ATOM     17  C   UNL     1       5.496   3.874   3.730  0.00  0.00    +0.004 A 
ATOM     18  C   UNL     1       5.009   5.103   4.131  0.00  0.00    +0.045 A 
ATOM     19  C   UNL     1       4.495   5.984   3.192  0.00  0.00    +0.121 A 
ATOM     20  C   UNL     1       4.470   5.629   1.851  0.00  0.00    +0.051 A 
BRANCH  19  21
ATOM     21  O   UNL     1       4.015   7.194   3.585  0.00  0.00    -0.487 OA
BRANCH  21  22
ATOM     22  C   UNL     1       4.072   7.492   4.981  0.00  0.00    +0.264 C 
BRANCH  22  23
ATOM     23  C   UNL     1       3.501   8.865   5.225  0.00  0.00    -0.010 A 
ATOM     24  C   UNL     1       4.327   9.973   5.196  0.00  0.00    +0.007 A 
ATOM     25  C   UNL     1       3.801  11.233   5.415  0.00  0.00    +0.000 A 
ATOM     26  C   UNL     1       2.452  11.384   5.674  0.00  0.00    +0.000 A 
ATOM     27  C   UNL     1       1.627  10.275   5.708  0.00  0.00    +0.000 A 
ATOM     28  C   UNL     1       2.151   9.016   5.484  0.00  0.00    +0.007 A 
ENDBRANCH  22  23
ENDBRANCH  21  22
ENDBRANCH  19  21
ENDBRANCH   1  15
BRANCH   1  29
ATOM     29  N   UNL     1       6.208   3.395  -0.366  0.00  0.00    -0.320 N 
ATOM     30  H   UNL     1       6.745   2.954   0.311  0.00  0.00    +0.148 HD
BRANCH  29  31
ATOM     31  C   UNL     1       6.652   3.441  -1.683  0.00  0.00    +0.097 A 
ATOM     32  C   UNL     1       5.827   3.970  -2.670  0.00  0.00    +0.041 A 
ATOM     33  C   UNL     1       6.280   4.009  -3.976  0.00  0.00    +0.005 A 
ATOM     34  C   UNL     1       7.549   3.516  -4.252  0.00  0.00    +0.018 A 
ATOM     35  C   UNL     1       8.314   3.005  -3.223  0.00  0.00    +0.084 A 
ATOM     36  N   UNL     1       7.903   2.956  -1.928  0.00  0.00    -0.350 N 
ATOM     37  H   UNL     1       8.498   2.578  -1.181  0.00  0.00    +0.166 HD
ENDBRANCH  29  31
ENDBRANCH   1  29
TORSDOF 8
