REMARK  Name = ZINC02677486
REMARK  11 active torsions:
REMARK  status: ('A' for Active; 'I' for Inactive)
REMARK    1  A    between atoms: C_1  and  N_2
REMARK    2  A    between atoms: N_2  and  C_3
REMARK    3  A    between atoms: N_2  and  C_4
REMARK    4  A    between atoms: C_4  and  C_5
REMARK    5  A    between atoms: C_5  and  N_6
REMARK    6  A    between atoms: C_7  and  C_9
REMARK    7  A    between atoms: C_9  and  N_25
REMARK    8  A    between atoms: C_10  and  C_11
REMARK    9  A    between atoms: C_14  and  C_16
REMARK   10  A    between atoms: C_20  and  N_22
REMARK   11  A    between atoms: C_26  and  C_28
REMARK                            x       y       z     vdW  Elec       q    Type
REMARK                         _______ _______ _______ _____ _____    ______ ____
ROOT
ATOM      1  C   UNL     1       4.977  -0.728  -3.824  0.00  0.00    +0.100 C 
ATOM      2  C   UNL     1       6.321  -0.362  -3.975  0.00  0.00    +0.074 C 
ENDROOT
BRANCH   2   3
ATOM      3  C   UNL     1       7.042  -0.805  -5.074  0.00  0.00    +0.131 A 
ATOM      4  C   UNL     1       6.516  -1.585  -6.205  0.00  0.00    +0.050 A 
ATOM      5  C   UNL     1       7.562  -1.796  -7.043  0.00  0.00    +0.050 A 
ATOM      6  C   UNL     1       8.701  -1.177  -6.468  0.00  0.00    +0.136 A 
ATOM      7  O   UNL     1       8.357  -0.596  -5.306  0.00  0.00    -0.455 OA
BRANCH   6   8
ATOM      8  C   UNL     1      10.001  -1.169  -7.034  0.00  0.00    +0.019 A 
ATOM      9  C   UNL     1      10.267  -1.897  -8.210  0.00  0.00    +0.012 A 
ATOM     10  C   UNL     1      11.523  -1.881  -8.746  0.00  0.00    +0.003 A 
ATOM     11  C   UNL     1      12.535  -1.152  -8.136  0.00  0.00    +0.033 A 
ATOM     12  C   UNL     1      12.284  -0.432  -6.978  0.00  0.00    +0.127 A 
ATOM     13  C   UNL     1      11.033  -0.429  -6.427  0.00  0.00    +0.044 A 
BRANCH  12  14
ATOM     14  N   UNL     1      13.373   0.340  -6.339  0.00  0.00    +0.056 N 
ATOM     15  O   UNL     1      14.549   0.427  -6.925  0.00  0.00    -0.126 OA
ATOM     16  O   UNL     1      13.165   0.940  -5.185  0.00  0.00    -0.126 OA
ENDBRANCH  12  14
ENDBRANCH   6   8
ENDBRANCH   2   3
BRANCH   1  18
ATOM     17  N   UNL     1       2.871  -0.492  -2.580  0.00  0.00    -0.312 N 
ATOM     18  C   UNL     1       4.164  -0.140  -2.725  0.00  0.00    +0.258 C 
ATOM     19  O   UNL     1       4.665   0.658  -1.959  0.00  0.00    -0.269 OA
ATOM     20  H   UNL     1       2.470  -1.129  -3.192  0.00  0.00    +0.149 HD
BRANCH  17  21
ATOM     21  C   UNL     1       2.070   0.087  -1.499  0.00  0.00    +0.086 C 
BRANCH  21  22
ATOM     22  C   UNL     1       0.649  -0.476  -1.558  0.00  0.00    -0.061 C 
BRANCH  22  24
ATOM     23  C   UNL     1      -0.299   1.550  -0.692  0.00  0.00    -0.097 C 
ATOM     24  N   UNL     1      -0.153   0.105  -0.474  0.00  0.00    +0.377 N 
ATOM     25  C   UNL     1      -1.481  -0.524  -0.456  0.00  0.00    -0.097 C 
ATOM     26  H   UNL     1       0.307  -0.058   0.409  0.00  0.00    -0.083 HD
ENDBRANCH  22  24
ENDBRANCH  21  22
ENDBRANCH  17  21
ENDBRANCH   1  18
BRANCH   1  27
ATOM     27  N   UNL     1       4.419  -1.616  -4.677  0.00  0.00    -0.277 N 
ATOM     28  C   UNL     1       3.363  -1.253  -5.432  0.00  0.00    +0.248 C 
ATOM     29  O   UNL     1       2.976  -0.101  -5.421  0.00  0.00    -0.270 OA
ATOM     30  H   UNL     1       4.779  -2.514  -4.746  0.00  0.00    +0.155 HD
BRANCH  28  31
ATOM     31  C   UNL     1       2.676  -2.256  -6.272  0.00  0.00    +0.037 A 
ATOM     32  C   UNL     1       3.040  -3.602  -6.195  0.00  0.00    +0.013 A 
ATOM     33  C   UNL     1       2.394  -4.533  -6.982  0.00  0.00    +0.001 A 
ATOM     34  C   UNL     1       1.389  -4.135  -7.846  0.00  0.00    +0.000 A 
ATOM     35  C   UNL     1       1.024  -2.803  -7.927  0.00  0.00    +0.001 A 
ATOM     36  C   UNL     1       1.657  -1.862  -7.142  0.00  0.00    +0.013 A 
ENDBRANCH  28  31
ENDBRANCH   1  27
TORSDOF 9
