REMARK  Name = ZINC18198777
REMARK  6 active torsions:
REMARK  status: ('A' for Active; 'I' for Inactive)
REMARK    1  A    between atoms: C_4  and  O_7
REMARK    2  A    between atoms: O_7  and  C_8
REMARK    3  A    between atoms: C_12  and  C_14
REMARK    4  A    between atoms: C_27  and  S_29
REMARK    5  A    between atoms: S_29  and  C_30
REMARK    6  A    between atoms: C_30  and  C_31
REMARK                            x       y       z     vdW  Elec       q    Type
REMARK                         _______ _______ _______ _____ _____    ______ ____
ROOT
ATOM      1  C   UNL     1       7.236   0.944  -0.281  0.00  0.00    +0.176 C 
ATOM      2  C   UNL     1       7.968   1.335  -1.546  0.00  0.00    +0.041 C 
ATOM      3  C   UNL     1       9.076   2.106  -1.525  0.00  0.00    +0.020 C 
ATOM      4  C   UNL     1       9.786   2.481  -2.804  0.00  0.00    +0.052 C 
ATOM      5  C   UNL     1       8.774   2.568  -3.948  0.00  0.00    +0.014 C 
ATOM      6  C   UNL     1       8.076   1.210  -4.079  0.00  0.00    +0.080 C 
ATOM      7  C   UNL     1       7.444   0.859  -2.761  0.00  0.00    +0.163 C 
ATOM      8  O   UNL     1       6.458   0.148  -2.746  0.00  0.00    -0.292 OA
ATOM      9  N   UNL     1       9.608   2.576  -0.348  0.00  0.00    -0.287 N 
ATOM     10  C   UNL     1       9.175   2.005   0.837  0.00  0.00    +0.219 A 
ATOM     11  N   UNL     1       8.063   1.230   0.884  0.00  0.00    -0.220 N 
ATOM     12  N   UNL     1       7.920   0.817   2.208  0.00  0.00    -0.141 NA
ATOM     13  C   UNL     1       8.918   1.348   2.880  0.00  0.00    +0.211 A 
ATOM     14  N   UNL     1       9.675   2.070   2.041  0.00  0.00    -0.187 NA
ATOM     15  H   UNL     1      10.269   3.287  -0.347  0.00  0.00    +0.155 HD
ENDROOT
BRANCH   1  20
ATOM     16  C   UNL     1       3.557   1.777  -0.057  0.00  0.00    +0.129 A 
ATOM     17  C   UNL     1       3.593   3.164  -0.012  0.00  0.00    +0.046 A 
ATOM     18  C   UNL     1       4.805   3.824  -0.054  0.00  0.00    +0.004 A 
ATOM     19  C   UNL     1       5.983   3.105  -0.142  0.00  0.00    +0.006 A 
ATOM     20  C   UNL     1       5.950   1.724  -0.186  0.00  0.00    -0.015 A 
ATOM     21  C   UNL     1       4.741   1.058  -0.138  0.00  0.00    +0.052 A 
BRANCH  16  22
ATOM     22  O   UNL     1       2.366   1.125  -0.015  0.00  0.00    -0.456 OA
BRANCH  22  26
ATOM     23  C   UNL     1       0.472   0.321  -3.591  0.00  0.00    +0.000 A 
ATOM     24  C   UNL     1      -0.111  -0.067  -2.398  0.00  0.00    +0.004 A 
ATOM     25  C   UNL     1       0.518   0.206  -1.199  0.00  0.00    +0.046 A 
ATOM     26  C   UNL     1       1.742   0.860  -1.193  0.00  0.00    +0.128 A 
ATOM     27  C   UNL     1       2.328   1.243  -2.391  0.00  0.00    +0.046 A 
ATOM     28  C   UNL     1       1.692   0.972  -3.587  0.00  0.00    +0.004 A 
ENDBRANCH  22  26
ENDBRANCH  16  22
ENDBRANCH   1  20
BRANCH  13  29
ATOM     29  S   UNL     1       9.213   1.145   4.606  0.00  0.00    -0.078 S 
BRANCH  29  30
ATOM     30  C   UNL     1      10.716   2.113   4.911  0.00  0.00    +0.132 C 
BRANCH  30  31
ATOM     31  C   UNL     1      11.084   2.023   6.370  0.00  0.00    +0.051 A 
ATOM     32  C   UNL     1      11.921   1.012   6.802  0.00  0.00    +0.024 A 
ATOM     33  C   UNL     1      12.254   0.938   8.146  0.00  0.00    +0.003 A 
ATOM     34  C   UNL     1      11.728   1.888   9.009  0.00  0.00    +0.020 A 
ATOM     35  C   UNL     1      10.897   2.870   8.504  0.00  0.00    +0.111 A 
ATOM     36  N   UNL     1      10.607   2.912   7.218  0.00  0.00    -0.259 NA
ENDBRANCH  30  31
ENDBRANCH  29  30
ENDBRANCH  13  29
TORSDOF 6
