REMARK  Name = ZINC10196555
REMARK  9 active torsions:
REMARK  status: ('A' for Active; 'I' for Inactive)
REMARK    1  A    between atoms: C_1  and  C_2
REMARK    2  A    between atoms: C_2  and  C_3
REMARK    3  A    between atoms: C_2  and  N_4
REMARK    4  A    between atoms: N_4  and  C_5
REMARK    5  A    between atoms: C_8  and  N_11
REMARK    6  A    between atoms: N_11  and  C_12
REMARK    7  A    between atoms: C_18  and  C_20
REMARK    8  A    between atoms: C_20  and  N_21
REMARK    9  A    between atoms: N_24  and  C_27
REMARK                            x       y       z     vdW  Elec       q    Type
REMARK                         _______ _______ _______ _____ _____    ______ ____
ROOT
ATOM      1  N   UNL     1       7.049   3.927  -0.340  0.00  0.00    -0.267 N 
ATOM      2  C   UNL     1       8.180   3.257  -0.637  0.00  0.00    +0.242 C 
ATOM      3  O   UNL     1       8.159   2.049  -0.742  0.00  0.00    -0.273 OA
ENDROOT
BRANCH   1   4
ATOM      4  C   UNL     1       5.873   3.223  -0.050  0.00  0.00    +0.037 A 
ATOM      5  C   UNL     1       5.659   2.724   1.228  0.00  0.00    +0.025 A 
ATOM      6  C   UNL     1       4.501   2.030   1.514  0.00  0.00    +0.025 A 
ATOM      7  C   UNL     1       3.548   1.831   0.522  0.00  0.00    +0.031 A 
ATOM      8  C   UNL     1       3.764   2.326  -0.757  0.00  0.00    +0.025 A 
ATOM      9  C   UNL     1       4.921   3.024  -1.041  0.00  0.00    +0.025 A 
BRANCH   7  10
ATOM     10  N   UNL     1       2.374   1.128   0.812  0.00  0.00    -0.314 N 
ATOM     11  H   UNL     1       2.394   0.385   1.436  0.00  0.00    +0.152 HD
BRANCH  10  12
ATOM     12  C   UNL     1       1.172   1.495   0.202  0.00  0.00    +0.031 A 
ATOM     13  C   UNL     1       0.167   0.553   0.021  0.00  0.00    +0.023 A 
ATOM     14  C   UNL     1      -1.018   0.917  -0.587  0.00  0.00    +0.002 A 
ATOM     15  C   UNL     1      -1.209   2.221  -1.007  0.00  0.00    +0.000 A 
ATOM     16  C   UNL     1      -0.211   3.161  -0.829  0.00  0.00    +0.002 A 
ATOM     17  C   UNL     1       0.979   2.802  -0.226  0.00  0.00    +0.023 A 
ENDBRANCH  10  12
ENDBRANCH   7  10
ENDBRANCH   1   4
BRANCH   1  19
ATOM     18  C   UNL     1       6.153   5.918  -1.443  0.00  0.00    +0.028 C 
ATOM     19  C   UNL     1       7.050   5.392  -0.320  0.00  0.00    +0.075 C 
ATOM     20  C   UNL     1       6.519   5.884   1.028  0.00  0.00    +0.028 C 
ENDBRANCH   1  19
BRANCH   2  21
ATOM     21  C   UNL     1       9.470   4.009  -0.838  0.00  0.00    +0.246 C 
BRANCH  21  22
ATOM     22  N   UNL     1      10.544   3.061  -1.148  0.00  0.00    -0.184 N 
ATOM     23  C   UNL     1      10.904   2.637  -2.379  0.00  0.00    +0.370 A 
ATOM     24  O   UNL     1      10.403   2.965  -3.439  0.00  0.00    -0.243 OA
ATOM     25  N   UNL     1      11.932   1.779  -2.201  0.00  0.00    -0.154 N 
ATOM     26  N   UNL     1      12.174   1.692  -0.824  0.00  0.00    -0.037 NA
ATOM     27  N   UNL     1      11.380   2.425  -0.222  0.00  0.00    -0.042 NA
BRANCH  25  28
ATOM     28  C   UNL     1      12.624   1.097  -3.207  0.00  0.00    +0.110 A 
ATOM     29  C   UNL     1      13.660   0.220  -3.092  0.00  0.00    +0.036 A 
ATOM     30  C   UNL     1      14.192  -0.337  -4.240  0.00  0.00    +0.010 A 
ATOM     31  C   UNL     1      13.668   0.006  -5.442  0.00  0.00    +0.047 A 
ATOM     32  S   UNL     1      12.375   1.145  -4.974  0.00  0.00    -0.077 S 
ENDBRANCH  25  28
ENDBRANCH  21  22
ENDBRANCH   2  21
TORSDOF 7
