REMARK  Name = ZINC13271768
REMARK  12 active torsions:
REMARK  status: ('A' for Active; 'I' for Inactive)
REMARK    1  A    between atoms: C_1  and  C_2
REMARK    2  A    between atoms: C_2  and  C_4
REMARK    3  A    between atoms: C_2  and  S_16
REMARK    4  A    between atoms: N_6  and  C_7
REMARK    5  A    between atoms: C_10  and  C_13
REMARK    6  A    between atoms: S_16  and  C_17
REMARK    7  A    between atoms: C_20  and  C_30
REMARK    8  A    between atoms: N_21  and  C_22
REMARK    9  A    between atoms: C_22  and  C_24
REMARK   10  A    between atoms: C_22  and  C_27
REMARK   11  A    between atoms: C_24  and  C_25
REMARK   12  A    between atoms: C_24  and  C_26
REMARK                            x       y       z     vdW  Elec       q    Type
REMARK                         _______ _______ _______ _____ _____    ______ ____
ROOT
ATOM      1  S   UNL     1       0.883  -0.601   1.467  0.00  0.00    -0.073 S 
ENDROOT
BRANCH   1   2
ATOM      2  C   UNL     1       2.533  -0.027   1.237  0.00  0.00    +0.193 A 
ATOM      3  N   UNL     1       2.977   0.680   0.223  0.00  0.00    -0.122 NA
ATOM      4  N   UNL     1       4.229   0.928   0.371  0.00  0.00    -0.128 NA
ATOM      5  C   UNL     1       4.663   0.393   1.491  0.00  0.00    +0.172 A 
ATOM      6  N   UNL     1       3.588  -0.230   2.083  0.00  0.00    -0.287 N 
BRANCH   5   7
ATOM      7  C   UNL     1       6.037   0.455   2.016  0.00  0.00    +0.056 A 
ATOM      8  C   UNL     1       7.068   1.280   1.644  0.00  0.00    +0.019 A 
ATOM      9  C   UNL     1       8.280   1.154   2.286  0.00  0.00    +0.008 A 
ATOM     10  C   UNL     1       8.417   0.221   3.264  0.00  0.00    +0.046 A 
ATOM     11  S   UNL     1       6.793  -0.519   3.308  0.00  0.00    -0.094 S 
ENDBRANCH   5   7
BRANCH   6  12
ATOM     12  C   UNL     1       3.576  -0.961   3.353  0.00  0.00    +0.206 C 
BRANCH  12  13
ATOM     13  C   UNL     1       2.587  -0.298   4.314  0.00  0.00    +0.017 C 
ATOM     14  C   UNL     1       2.575  -1.061   5.640  0.00  0.00    +0.010 C 
ATOM     15  C   UNL     1       3.011   1.151   4.563  0.00  0.00    +0.010 C 
ENDBRANCH  12  13
BRANCH  12  16
ATOM     16  C   UNL     1       3.159  -2.388   3.108  0.00  0.00    +0.379 C 
ATOM     17  O   UNL     1       3.817  -3.097   2.367  0.00  0.00    -0.244 OA
ATOM     18  O   UNL     1       2.162  -2.833   3.651  0.00  0.00    -0.244 OA
ENDBRANCH  12  16
ENDBRANCH   6  12
ENDBRANCH   1   2
BRANCH   1  20
ATOM     19  C   UNL     1      -0.030   1.532   0.019  0.00  0.00    +0.029 C 
ATOM     20  C   UNL     1      -0.000   0.002   0.002  0.00  0.00    +0.137 C 
BRANCH  20  21
ATOM     21  C   UNL     1      -1.411  -0.528   0.012  0.00  0.00    +0.230 C 
ATOM     22  O   UNL     1      -1.935  -0.838   1.061  0.00  0.00    -0.274 OA
ATOM     23  N   UNL     1      -2.090  -0.657  -1.144  0.00  0.00    -0.285 N 
ATOM     24  H   UNL     1      -1.697  -0.347  -1.975  0.00  0.00    +0.155 HD
BRANCH  23  25
ATOM     25  C   UNL     1      -3.359  -1.237  -1.147  0.00  0.00    +0.033 A 
ATOM     26  C   UNL     1      -4.221  -1.023  -0.076  0.00  0.00    +0.024 A 
ATOM     27  C   UNL     1      -5.474  -1.594  -0.076  0.00  0.00    +0.015 A 
ATOM     28  C   UNL     1      -5.879  -2.388  -1.152  0.00  0.00    +0.037 A 
ATOM     29  C   UNL     1      -5.010  -2.600  -2.226  0.00  0.00    +0.015 A 
ATOM     30  C   UNL     1      -3.761  -2.022  -2.222  0.00  0.00    +0.024 A 
BRANCH  28  31
ATOM     31  C   UNL     1      -7.222  -3.001  -1.154  0.00  0.00    +0.242 C 
ATOM     32  O   UNL     1      -7.976  -2.816  -0.219  0.00  0.00    -0.270 OA
ATOM     33  N   UNL     1      -7.611  -3.767  -2.193  0.00  0.00    -0.325 N 
ATOM     34  H   UNL     1      -7.009  -3.915  -2.939  0.00  0.00    +0.145 HD
ATOM     35  H   UNL     1      -8.493  -4.170  -2.195  0.00  0.00    +0.145 HD
ENDBRANCH  28  31
ENDBRANCH  23  25
ENDBRANCH  20  21
ENDBRANCH   1  20
TORSDOF 9
