REMARK  Name = ZINC33254076
REMARK  14 active torsions:
REMARK  status: ('A' for Active; 'I' for Inactive)
REMARK    1  A    between atoms: C_1  and  C_2
REMARK    2  A    between atoms: C_7  and  S_8
REMARK    3  A    between atoms: S_8  and  N_11
REMARK    4  A    between atoms: N_11  and  C_12
REMARK    5  A    between atoms: C_14  and  C_31
REMARK    6  A    between atoms: C_17  and  N_18
REMARK    7  A    between atoms: N_18  and  C_19
REMARK    8  A    between atoms: N_18  and  C_20
REMARK    9  A    between atoms: C_20  and  C_21
REMARK   10  A    between atoms: C_21  and  C_22
REMARK   11  A    between atoms: C_22  and  C_23
REMARK   12  A    between atoms: C_24  and  C_30
REMARK   13  A    between atoms: N_26  and  C_29
REMARK   14  A    between atoms: C_27  and  C_28
REMARK                            x       y       z     vdW  Elec       q    Type
REMARK                         _______ _______ _______ _____ _____    ______ ____
ROOT
ATOM      1  C   UNL     1       1.215   2.192   2.133  0.00  0.00    +0.070 A 
ATOM      2  C   UNL     1       0.041   2.825   1.778  0.00  0.00    +0.041 A 
ATOM      3  C   UNL     1       0.084   3.985   0.995  0.00  0.00    +0.065 A 
ATOM      4  C   UNL     1       1.317   4.498   0.577  0.00  0.00    +0.017 A 
ATOM      5  C   UNL     1       2.484   3.862   0.933  0.00  0.00    +0.026 A 
ATOM      6  C   UNL     1       2.444   2.713   1.715  0.00  0.00    +0.052 A 
ENDROOT
BRANCH   3   7
ATOM      7  C   UNL     1      -1.165   4.664   0.614  0.00  0.00    +0.387 C 
ATOM      8  O   UNL     1      -2.242   4.215   0.980  0.00  0.00    -0.241 OA
ATOM      9  O   UNL     1      -1.125   5.678  -0.070  0.00  0.00    -0.241 OA
ENDBRANCH   3   7
BRANCH   1  10
ATOM     10  N   UNL     1       1.176   1.031   2.915  0.00  0.00    -0.214 N 
ATOM     11  H   UNL     1       1.871   0.865   3.572  0.00  0.00    +0.174 HD
BRANCH  10  12
ATOM     12  S   UNL     1      -0.055  -0.059   2.720  0.00  0.00    +0.073 S 
ATOM     13  O   UNL     1      -1.268   0.670   2.854  0.00  0.00    -0.150 OA
ATOM     14  O   UNL     1       0.257  -1.175   3.541  0.00  0.00    -0.150 OA
BRANCH  12  21
ATOM     15  C   UNL     1       2.221  -1.680   1.565  0.00  0.00    +0.046 C 
ATOM     16  C   UNL     1       1.095  -1.362   0.616  0.00  0.00    -0.024 A 
ATOM     17  C   UNL     1       1.145  -1.812  -0.691  0.00  0.00    +0.008 A 
ATOM     18  C   UNL     1       0.112  -1.522  -1.562  0.00  0.00    +0.039 A 
ATOM     19  C   UNL     1      -0.973  -0.780  -1.126  0.00  0.00    +0.125 A 
ATOM     20  C   UNL     1      -1.021  -0.329   0.182  0.00  0.00    +0.067 A 
ATOM     21  C   UNL     1       0.010  -0.625   1.053  0.00  0.00    +0.114 A 
ATOM     22  F   UNL     1      -1.982  -0.495  -1.978  0.00  0.00    -0.205 F 
ENDBRANCH  12  21
ENDBRANCH  10  12
ENDBRANCH   1  10
BRANCH   6  23
ATOM     23  N   UNL     1       3.628   2.077   2.078  0.00  0.00    -0.331 N 
ATOM     24  C   UNL     1       4.308   2.450   3.320  0.00  0.00    +0.129 C 
BRANCH  23  25
ATOM     25  C   UNL     1       4.193   1.035   1.217  0.00  0.00    +0.105 C 
BRANCH  25  26
ATOM     26  C   UNL     1       5.146   1.673   0.204  0.00  0.00    +0.024 C 
BRANCH  26  27
ATOM     27  C   UNL     1       5.736   0.584  -0.695  0.00  0.00    +0.040 C 
BRANCH  27  28
ATOM     28  C   UNL     1       6.675   1.212  -1.694  0.00  0.00    -0.004 A 
ATOM     29  C   UNL     1       6.327   1.692  -2.960  0.00  0.00    +0.063 A 
ATOM     30  N   UNL     1       7.407   2.163  -3.530  0.00  0.00    -0.176 NA
ATOM     31  N   UNL     1       8.478   1.996  -2.642  0.00  0.00    -0.271 N 
ATOM     32  C   UNL     1       8.001   1.416  -1.520  0.00  0.00    +0.039 A 
ATOM     33  C   UNL     1       8.803   1.056  -0.296  0.00  0.00    +0.065 C 
ATOM     34  C   UNL     1       9.868   2.389  -2.885  0.00  0.00    +0.172 C 
ATOM     35  C   UNL     1       4.947   1.671  -3.565  0.00  0.00    +0.068 C 
ENDBRANCH  27  28
ENDBRANCH  26  27
ENDBRANCH  25  26
ENDBRANCH  23  25
ENDBRANCH   6  23
TORSDOF 9
