REMARK  Name = ZINC07574241
REMARK  6 active torsions:
REMARK  status: ('A' for Active; 'I' for Inactive)
REMARK    1  A    between atoms: C_1  and  C_2
REMARK    2  A    between atoms: C_5  and  C_29
REMARK    3  A    between atoms: C_6  and  C_8
REMARK    4  A    between atoms: C_8  and  N_9
REMARK    5  A    between atoms: C_11  and  C_16
REMARK    6  A    between atoms: N_18  and  C_19
REMARK                            x       y       z     vdW  Elec       q    Type
REMARK                         _______ _______ _______ _____ _____    ______ ____
ROOT
ATOM      1  N   UNL     1      -7.304   3.717  -0.318  0.00  0.00    -0.310 N 
ATOM      2  C   UNL     1      -6.116   3.088  -0.242  0.00  0.00    +0.102 A 
ATOM      3  C   UNL     1      -4.946   3.814  -0.140  0.00  0.00    +0.053 A 
ATOM      4  C   UNL     1      -5.004   5.228  -0.110  0.00  0.00    +0.020 A 
ATOM      5  C   UNL     1      -6.215   5.841  -0.194  0.00  0.00    +0.071 A 
ATOM      6  C   UNL     1      -7.381   5.060  -0.296  0.00  0.00    +0.252 A 
ATOM      7  O   UNL     1      -8.470   5.604  -0.366  0.00  0.00    -0.268 OA
ENDROOT
BRANCH   3   8
ATOM      8  C   UNL     1      -3.648   3.121  -0.057  0.00  0.00    +0.250 C 
ATOM      9  O   UNL     1      -3.604   1.906  -0.078  0.00  0.00    -0.270 OA
ATOM     10  N   UNL     1      -2.509   3.834   0.043  0.00  0.00    -0.281 N 
ATOM     11  H   UNL     1      -2.547   4.800   0.123  0.00  0.00    +0.155 HD
BRANCH  10  12
ATOM     12  C   UNL     1      -1.274   3.184   0.030  0.00  0.00    +0.041 A 
ATOM     13  C   UNL     1      -1.138   1.940   0.610  0.00  0.00    +0.024 A 
ATOM     14  C   UNL     1       0.090   1.285   0.607  0.00  0.00    +0.002 A 
ATOM     15  C   UNL     1       1.185   1.846   0.024  0.00  0.00    +0.008 A 
ATOM     16  C   UNL     1       1.087   3.110  -0.583  0.00  0.00    -0.016 A 
ATOM     17  C   UNL     1      -0.156   3.789  -0.582  0.00  0.00    +0.003 A 
ATOM     18  C   UNL     1      -0.253   5.051  -1.189  0.00  0.00    +0.010 A 
ATOM     19  C   UNL     1       0.847   5.605  -1.770  0.00  0.00    +0.001 A 
ATOM     20  C   UNL     1       2.070   4.938  -1.772  0.00  0.00    +0.001 A 
ATOM     21  C   UNL     1       2.200   3.713  -1.193  0.00  0.00    +0.008 A 
ENDBRANCH  10  12
ENDBRANCH   3   8
BRANCH   1  22
ATOM     22  C   UNL     1      -8.533   2.926  -0.425  0.00  0.00    +0.160 C 
BRANCH  22  28
ATOM     23  C   UNL     1     -11.890   4.258   3.038  0.00  0.00    +0.044 C 
ATOM     24  C   UNL     1     -10.743   3.385   2.600  0.00  0.00    -0.050 A 
ATOM     25  C   UNL     1     -10.244   2.419   3.455  0.00  0.00    +0.003 A 
ATOM     26  C   UNL     1      -9.192   1.618   3.054  0.00  0.00    +0.004 A 
ATOM     27  C   UNL     1      -8.638   1.782   1.798  0.00  0.00    -0.046 A 
ATOM     28  C   UNL     1      -9.137   2.747   0.944  0.00  0.00    -0.025 A 
ATOM     29  C   UNL     1     -10.186   3.552   1.347  0.00  0.00    +0.009 A 
ATOM     30  C   UNL     1      -7.490   0.908   1.361  0.00  0.00    +0.044 C 
ENDBRANCH  22  28
ENDBRANCH   1  22
TORSDOF 4
