REMARK  Name = ZINC13216425
REMARK  10 active torsions:
REMARK  status: ('A' for Active; 'I' for Inactive)
REMARK    1  A    between atoms: C_1  and  C_2
REMARK    2  A    between atoms: C_5  and  C_37
REMARK    3  A    between atoms: C_6  and  C_8
REMARK    4  A    between atoms: C_10  and  C_26
REMARK    5  A    between atoms: N_14  and  C_15
REMARK    6  A    between atoms: C_17  and  C_22
REMARK    7  A    between atoms: C_20  and  C_21
REMARK    8  A    between atoms: C_26  and  C_28
REMARK    9  A    between atoms: C_31  and  O_35
REMARK   10  A    between atoms: O_35  and  C_36
REMARK                            x       y       z     vdW  Elec       q    Type
REMARK                         _______ _______ _______ _____ _____    ______ ____
ROOT
ATOM      1  C   UNL     1       0.330  -3.214   2.339  0.00  0.00    +0.150 C 
ATOM      2  C   UNL     1       1.783  -3.392   2.710  0.00  0.00    +0.077 C 
ATOM      3  C   UNL     1       2.005  -2.622   3.801  0.00  0.00    +0.250 C 
ATOM      4  C   UNL     1       0.751  -1.934   4.173  0.00  0.00    +0.292 C 
ATOM      5  O   UNL     1       0.625  -1.171   5.110  0.00  0.00    -0.266 OA
ATOM      6  N   UNL     1      -0.233  -2.278   3.320  0.00  0.00    -0.253 N 
ATOM      7  O   UNL     1       3.187  -2.501   4.449  0.00  0.00    -0.282 OA
ENDROOT
BRANCH   1  13
ATOM      8  C   UNL     1       1.811   0.087  -1.119  0.00  0.00    +0.044 C 
ATOM      9  C   UNL     1       0.925  -1.059  -0.704  0.00  0.00    -0.050 A 
ATOM     10  C   UNL     1       0.008  -1.582  -1.596  0.00  0.00    +0.003 A 
ATOM     11  C   UNL     1      -0.805  -2.633  -1.215  0.00  0.00    +0.004 A 
ATOM     12  C   UNL     1      -0.701  -3.161   0.058  0.00  0.00    -0.045 A 
ATOM     13  C   UNL     1       0.217  -2.639   0.950  0.00  0.00    -0.019 A 
ATOM     14  C   UNL     1       1.033  -1.590   0.568  0.00  0.00    +0.009 A 
ATOM     15  C   UNL     1      -1.587  -4.307   0.474  0.00  0.00    +0.044 C 
ENDBRANCH   1  13
BRANCH   6  16
ATOM     16  C   UNL     1      -1.554  -1.825   3.360  0.00  0.00    +0.041 A 
ATOM     17  C   UNL     1      -2.535  -2.599   3.962  0.00  0.00    +0.039 A 
ATOM     18  C   UNL     1      -3.853  -2.141   4.000  0.00  0.00    +0.065 A 
ATOM     19  C   UNL     1      -4.175  -0.906   3.431  0.00  0.00    +0.015 A 
ATOM     20  C   UNL     1      -3.191  -0.144   2.834  0.00  0.00    +0.006 A 
ATOM     21  C   UNL     1      -1.885  -0.596   2.802  0.00  0.00    -0.029 A 
ATOM     22  C   UNL     1      -0.816   0.246   2.153  0.00  0.00    +0.045 C 
BRANCH  18  23
ATOM     23  C   UNL     1      -4.903  -2.958   4.639  0.00  0.00    +0.387 C 
ATOM     24  O   UNL     1      -4.619  -4.039   5.136  0.00  0.00    -0.241 OA
ATOM     25  O   UNL     1      -6.057  -2.555   4.671  0.00  0.00    -0.241 OA
ENDBRANCH  18  23
ENDBRANCH   6  16
BRANCH   2  26
ATOM     26  C   UNL     1       2.765  -4.237   2.022  0.00  0.00    +0.198 C 
ATOM     27  O   UNL     1       3.699  -3.727   1.431  0.00  0.00    -0.287 OA
BRANCH  26  28
ATOM     28  C   UNL     1       2.621  -5.704   2.047  0.00  0.00    +0.057 A 
ATOM     29  C   UNL     1       1.520  -6.291   2.681  0.00  0.00    +0.018 A 
ATOM     30  C   UNL     1       1.389  -7.660   2.702  0.00  0.00    +0.046 A 
ATOM     31  C   UNL     1       2.349  -8.463   2.094  0.00  0.00    +0.123 A 
ATOM     32  C   UNL     1       3.445  -7.888   1.464  0.00  0.00    +0.084 A 
ATOM     33  C   UNL     1       3.583  -6.515   1.432  0.00  0.00    +0.138 A 
ATOM     34  F   UNL     1       4.646  -5.955   0.814  0.00  0.00    -0.205 F 
BRANCH  31  35
ATOM     35  O   UNL     1       2.214  -9.813   2.118  0.00  0.00    -0.495 OA
ATOM     36  C   UNL     1       3.236 -10.579   1.475  0.00  0.00    +0.277 C 
ENDBRANCH  31  35
ENDBRANCH  26  28
ENDBRANCH   2  26
TORSDOF 6
