REMARK  Name = ZINC03146783
REMARK  8 active torsions:
REMARK  status: ('A' for Active; 'I' for Inactive)
REMARK    1  A    between atoms: C_1  and  C_2
REMARK    2  A    between atoms: C_2  and  C_3
REMARK    3  A    between atoms: C_2  and  C_4
REMARK    4  A    between atoms: C_2  and  C_5
REMARK    5  A    between atoms: C_5  and  C_7
REMARK    6  A    between atoms: C_5  and  N_17
REMARK    7  A    between atoms: C_8  and  C_9
REMARK    8  A    between atoms: N_22  and  C_29
REMARK                            x       y       z     vdW  Elec       q    Type
REMARK                         _______ _______ _______ _____ _____    ______ ____
ROOT
ATOM      1  N   UNL     1      -0.050   0.036  -2.387  0.00  0.00    -0.327 N 
ATOM      2  C   UNL     1      -1.078  -0.684  -2.906  0.00  0.00    +0.090 C 
ATOM      3  N   UNL     1      -1.522  -1.842  -2.486  0.00  0.00    -0.287 N 
ATOM      4  C   UNL     1      -2.551  -2.290  -3.213  0.00  0.00    +0.143 C 
ATOM      5  S   UNL     1      -3.356  -3.772  -2.919  0.00  0.00    -0.018 S 
ATOM      6  N   UNL     1      -2.881  -1.438  -4.205  0.00  0.00    -0.270 N 
ATOM      7  C   UNL     1      -1.948  -0.309  -4.084  0.00  0.00    +0.092 C 
ATOM      8  C   UNL     1      -1.105  -0.177  -5.348  0.00  0.00    +0.034 C 
ATOM      9  C   UNL     1      -2.010   0.171  -6.533  0.00  0.00    +0.003 C 
ATOM     10  C   UNL     1      -2.740   1.485  -6.247  0.00  0.00    +0.000 C 
ATOM     11  C   UNL     1      -3.600   1.328  -4.990  0.00  0.00    +0.003 C 
ATOM     12  C   UNL     1      -2.702   0.984  -3.799  0.00  0.00    +0.034 C 
ATOM     13  H   UNL     1       0.191   0.889  -2.779  0.00  0.00    +0.148 HD
ATOM     14  H   UNL     1      -1.147  -2.322  -1.731  0.00  0.00    +0.155 HD
ENDROOT
BRANCH   6  15
ATOM     15  C   UNL     1      -3.901  -1.593  -5.147  0.00  0.00    +0.036 A 
ATOM     16  C   UNL     1      -4.702  -2.728  -5.126  0.00  0.00    +0.023 A 
ATOM     17  C   UNL     1      -5.710  -2.878  -6.058  0.00  0.00    +0.002 A 
ATOM     18  C   UNL     1      -5.922  -1.900  -7.012  0.00  0.00    +0.000 A 
ATOM     19  C   UNL     1      -5.127  -0.768  -7.037  0.00  0.00    +0.002 A 
ATOM     20  C   UNL     1      -4.121  -0.610  -6.104  0.00  0.00    +0.023 A 
ENDBRANCH   6  15
BRANCH   1  21
ATOM     21  C   UNL     1       0.694  -0.478  -1.234  0.00  0.00    +0.100 C 
BRANCH  21  23
ATOM     22  C   UNL     1      -0.133   1.431   0.150  0.00  0.00    +0.013 C 
ATOM     23  C   UNL     1      -0.034  -0.093   0.056  0.00  0.00    -0.016 C 
ATOM     24  C   UNL     1       0.744  -0.629   1.259  0.00  0.00    +0.013 C 
ATOM     25  C   UNL     1      -1.440  -0.697   0.047  0.00  0.00    +0.013 C 
ENDBRANCH  21  23
BRANCH  21  26
ATOM     26  C   UNL     1       2.079   0.117  -1.225  0.00  0.00    -0.004 C 
ATOM     27  C   UNL     1       3.137  -0.665  -1.394  0.00  0.00    +0.007 C 
BRANCH  27  28
ATOM     28  C   UNL     1       4.495  -0.082  -1.386  0.00  0.00    -0.007 A 
ATOM     29  C   UNL     1       4.668   1.289  -1.194  0.00  0.00    +0.011 A 
ATOM     30  C   UNL     1       5.938   1.828  -1.188  0.00  0.00    +0.020 A 
ATOM     31  C   UNL     1       7.041   1.010  -1.370  0.00  0.00    +0.042 A 
ATOM     32  C   UNL     1       6.877  -0.351  -1.560  0.00  0.00    +0.040 A 
ATOM     33  C   UNL     1       5.611  -0.903  -1.563  0.00  0.00    +0.049 A 
ATOM     34 CL   UNL     1       5.407  -2.611  -1.794  0.00  0.00    -0.083 Cl
ATOM     35 CL   UNL     1       8.636   1.696  -1.360  0.00  0.00    -0.083 Cl
ENDBRANCH  27  28
ENDBRANCH  21  26
ENDBRANCH   1  21
TORSDOF 5
