REMARK  Name = ZINC39609342
REMARK  10 active torsions:
REMARK  status: ('A' for Active; 'I' for Inactive)
REMARK    1  A    between atoms: C_1  and  C_2
REMARK    2  A    between atoms: C_5  and  C_9
REMARK    3  A    between atoms: C_7  and  C_8
REMARK    4  A    between atoms: C_9  and  C_10
REMARK    5  A    between atoms: C_10  and  N_11
REMARK    6  A    between atoms: C_12  and  C_14
REMARK    7  A    between atoms: C_25  and  C_27
REMARK    8  A    between atoms: C_27  and  O_28
REMARK    9  A    between atoms: O_28  and  C_29
REMARK   10  A    between atoms: C_39  and  C_40
REMARK                            x       y       z     vdW  Elec       q    Type
REMARK                         _______ _______ _______ _____ _____    ______ ____
ROOT
ATOM      1  C   UNL     1       2.723  -8.397  -0.059  0.00  0.00    +0.100 C 
ATOM      2  C   UNL     1       2.193  -8.949   1.284  0.00  0.00    +0.121 C 
ATOM      3  N   UNL     1       3.034 -10.138   1.557  0.00  0.00    -0.297 N 
ATOM      4  C   UNL     1       4.395  -9.734   1.129  0.00  0.00    +0.115 C 
ATOM      5  C   UNL     1       4.168  -8.913  -0.156  0.00  0.00    -0.004 C 
ATOM      6  C   UNL     1       5.144  -7.743  -0.213  0.00  0.00    -0.010 C 
ATOM      7  C   UNL     1       6.570  -8.280  -0.369  0.00  0.00    -0.082 C 
ATOM      8  N   UNL     1       6.662  -9.081  -1.596  0.00  0.00    +0.379 N 
ATOM      9  C   UNL     1       5.788 -10.256  -1.493  0.00  0.00    -0.082 C 
ATOM     10  C   UNL     1       4.330  -9.802  -1.385  0.00  0.00    -0.010 C 
ATOM     11  C   UNL     1       2.649 -11.321   2.077  0.00  0.00    +0.253 C 
ATOM     12  O   UNL     1       3.463 -12.205   2.242  0.00  0.00    -0.272 OA
ATOM     13  H   UNL     1       6.377  -8.520  -2.384  0.00  0.00    -0.086 HD
ATOM     14  H   UNL     1       7.616  -9.383  -1.728  0.00  0.00    -0.086 HD
ENDROOT
BRANCH   1  16
ATOM     15  N   UNL     1       2.556  -6.212  -1.206  0.00  0.00    -0.315 N 
ATOM     16  C   UNL     1       2.703  -6.890  -0.050  0.00  0.00    +0.218 C 
ATOM     17  O   UNL     1       2.819  -6.288   0.996  0.00  0.00    -0.275 OA
ATOM     18  H   UNL     1       2.463  -6.693  -2.042  0.00  0.00    +0.149 HD
BRANCH  15  19
ATOM     19  C   UNL     1       2.538  -4.747  -1.198  0.00  0.00    +0.109 C 
BRANCH  19  20
ATOM     20  C   UNL     1       2.360  -4.231  -2.627  0.00  0.00    +0.054 C 
BRANCH  20  25
ATOM     21  C   UNL     1       2.285   1.547  -2.599  0.00  0.00    +0.044 C 
ATOM     22  C   UNL     1       2.305   0.040  -2.606  0.00  0.00    -0.048 A 
ATOM     23  C   UNL     1       3.503  -0.635  -2.750  0.00  0.00    +0.004 A 
ATOM     24  C   UNL     1       3.521  -2.017  -2.756  0.00  0.00    +0.004 A 
ATOM     25  C   UNL     1       2.341  -2.724  -2.619  0.00  0.00    -0.046 A 
ATOM     26  C   UNL     1       1.143  -2.050  -2.474  0.00  0.00    +0.007 A 
ATOM     27  C   UNL     1       1.126  -0.667  -2.463  0.00  0.00    -0.047 A 
ATOM     28  C   UNL     1      -0.179   0.069  -2.300  0.00  0.00    +0.044 C 
ENDBRANCH  20  25
ENDBRANCH  19  20
ENDBRANCH  15  19
ENDBRANCH   1  16
BRANCH  11  29
ATOM     29  C   UNL     1       1.207 -11.545   2.453  0.00  0.00    +0.324 C 
BRANCH  29  30
ATOM     30  O   UNL     1       1.051 -12.865   2.977  0.00  0.00    -0.479 OA
BRANCH  30  31
ATOM     31  C   UNL     1      -0.199 -13.231   3.367  0.00  0.00    +0.164 A 
ATOM     32  C   UNL     1      -1.252 -12.342   3.242  0.00  0.00    +0.049 A 
ATOM     33  C   UNL     1      -2.531 -12.703   3.636  0.00  0.00    +0.004 A 
ATOM     34  C   UNL     1      -2.773 -13.954   4.158  0.00  0.00    +0.012 A 
ATOM     35  C   UNL     1      -1.720 -14.865   4.291  0.00  0.00    +0.024 A 
ATOM     36  C   UNL     1      -0.424 -14.503   3.888  0.00  0.00    +0.181 A 
ATOM     37  O   UNL     1       0.590 -15.387   4.013  0.00  0.00    -0.418 OA
ATOM     38  C   UNL     1       0.391 -16.616   4.512  0.00  0.00    +0.338 A 
ATOM     39  O   UNL     1       1.336 -17.378   4.606  0.00  0.00    -0.245 OA
ATOM     40  C   UNL     1      -0.886 -17.048   4.931  0.00  0.00    +0.096 A 
ATOM     41  C   UNL     1      -1.945 -16.204   4.843  0.00  0.00    -0.033 A 
ATOM     42  C   UNL     1      -3.319 -16.638   5.285  0.00  0.00    +0.045 C 
ENDBRANCH  30  31
ENDBRANCH  29  30
ENDBRANCH  11  29
TORSDOF 7
