REMARK  Name = ZINC63528841
REMARK  4 active torsions:
REMARK  status: ('A' for Active; 'I' for Inactive)
REMARK    1  A    between atoms: C_6  and  C_7
REMARK    2  A    between atoms: C_10  and  C_23
REMARK    3  A    between atoms: C_14  and  N_16
REMARK    4  A    between atoms: N_16  and  C_17
REMARK                            x       y       z     vdW  Elec       q    Type
REMARK                         _______ _______ _______ _____ _____    ______ ____
ROOT
ATOM      1  C   UNL     1      -1.259  -0.760   0.011  0.00  0.00    +0.090 C 
ATOM      2  N   UNL     1      -2.465  -0.265   0.019  0.00  0.00    -0.228 NA
ATOM      3  C   UNL     1      -3.418  -1.215   0.025  0.00  0.00    +0.171 A 
ATOM      4  C   UNL     1      -4.810  -1.396   0.035  0.00  0.00    +0.115 A 
ATOM      5  C   UNL     1      -5.048  -2.785   0.035  0.00  0.00    +0.155 A 
ATOM      6  N   UNL     1      -3.899  -3.404   0.026  0.00  0.00    -0.175 NA
ATOM      7  N   UNL     1      -2.870  -2.461   0.020  0.00  0.00    -0.222 N 
ATOM      8  C   UNL     1      -1.413  -2.267   0.004  0.00  0.00    +0.226 C 
ENDROOT
BRANCH   1  14
ATOM      9  C   UNL     1      -0.017   1.395   0.010  0.00  0.00    +0.012 A 
ATOM     10  C   UNL     1       1.169   2.097   0.002  0.00  0.00    +0.039 A 
ATOM     11  C   UNL     1       2.379   1.420  -0.013  0.00  0.00    +0.123 A 
ATOM     12  C   UNL     1       2.405   0.033  -0.021  0.00  0.00    +0.039 A 
ATOM     13  C   UNL     1       1.227  -0.681  -0.014  0.00  0.00    +0.012 A 
ATOM     14  C   UNL     1       0.002  -0.004   0.002  0.00  0.00    -0.000 A 
ATOM     15  F   UNL     1       3.538   2.114  -0.021  0.00  0.00    -0.205 F 
ENDBRANCH   1  14
BRANCH   8  16
ATOM     16  N   UNL     1      -0.802  -2.855   1.203  0.00  0.00    -0.287 NA
ATOM     17  H   UNL     1      -0.015  -2.306   1.514  0.00  0.00    +0.125 HD
BRANCH  16  18
ATOM     18  C   UNL     1      -0.408  -4.250   0.964  0.00  0.00    +0.056 C 
ATOM     19  C   UNL     1      -1.609  -5.167   1.206  0.00  0.00    +0.019 C 
ATOM     20  C   UNL     1      -1.199  -6.620   0.957  0.00  0.00    +0.002 C 
ATOM     21  C   UNL     1      -0.065  -7.001   1.911  0.00  0.00    +0.000 C 
ATOM     22  C   UNL     1       1.135  -6.084   1.669  0.00  0.00    +0.002 C 
ATOM     23  C   UNL     1       0.725  -4.631   1.918  0.00  0.00    +0.019 C 
ENDBRANCH  16  18
ENDBRANCH   8  16
BRANCH   4  24
ATOM     24  C   UNL     1      -5.802  -0.363   0.043  0.00  0.00    +0.104 C 
ATOM     25  N   UNL     1      -6.589   0.457   0.050  0.00  0.00    -0.191 NA
ENDBRANCH   4  24
TORSDOF 4
