REMARK  Name = ZINC35554878
REMARK  7 active torsions:
REMARK  status: ('A' for Active; 'I' for Inactive)
REMARK    1  A    between atoms: C_1  and  C_2
REMARK    2  A    between atoms: C_2  and  O_3
REMARK    3  A    between atoms: O_3  and  C_4
REMARK    4  A    between atoms: C_4  and  C_6
REMARK    5  A    between atoms: C_12  and  C_14
REMARK    6  A    between atoms: N_27  and  C_30
REMARK    7  A    between atoms: C_30  and  C_31
REMARK                            x       y       z     vdW  Elec       q    Type
REMARK                         _______ _______ _______ _____ _____    ______ ____
ROOT
ATOM      1  C   UNL     1       1.273  -6.250   5.638  0.00  0.00    +0.098 C 
ATOM      2  C   UNL     1       2.707  -6.689   5.427  0.00  0.00    +0.051 C 
ATOM      3  C   UNL     1       3.478  -6.735   6.714  0.00  0.00    -0.026 A 
ATOM      4  C   UNL     1       4.844  -6.512   6.704  0.00  0.00    +0.005 A 
ATOM      5  C   UNL     1       5.563  -6.556   7.883  0.00  0.00    +0.000 A 
ATOM      6  C   UNL     1       4.920  -6.824   9.079  0.00  0.00    +0.002 A 
ATOM      7  C   UNL     1       3.558  -7.045   9.096  0.00  0.00    +0.023 A 
ATOM      8  C   UNL     1       2.831  -7.000   7.911  0.00  0.00    +0.033 A 
ATOM      9  N   UNL     1       1.459  -7.214   7.932  0.00  0.00    -0.329 N 
ATOM     10  C   UNL     1       0.590  -6.897   6.811  0.00  0.00    +0.069 C 
ATOM     11  C   UNL     1      -0.178  -8.157   6.412  0.00  0.00    -0.055 C 
ATOM     12  N   UNL     1      -0.886  -8.680   7.590  0.00  0.00    +0.385 N 
ATOM     13  C   UNL     1       0.070  -9.068   8.634  0.00  0.00    -0.059 C 
ATOM     14  C   UNL     1       0.831  -7.832   9.117  0.00  0.00    +0.087 C 
ATOM     15  H   UNL     1      -1.502  -7.967   7.951  0.00  0.00    -0.081 HD
ENDROOT
BRANCH   1  22
ATOM     16  C   UNL     1       0.258  -2.414   2.618  0.00  0.00    +0.101 C 
ATOM     17  C   UNL     1       0.007  -1.975   4.063  0.00  0.00    +0.033 C 
ATOM     18  C   UNL     1       1.149  -2.478   4.951  0.00  0.00    +0.108 C 
ATOM     19  N   UNL     1       1.279  -3.931   4.776  0.00  0.00    -0.301 N 
ATOM     20  C   UNL     1       1.433  -4.468   3.417  0.00  0.00    +0.108 C 
ATOM     21  C   UNL     1       0.288  -3.942   2.546  0.00  0.00    +0.033 C 
ATOM     22  C   UNL     1       1.257  -4.756   5.841  0.00  0.00    +0.221 C 
ATOM     23  O   UNL     1       1.224  -4.297   6.963  0.00  0.00    -0.275 OA
BRANCH  16  24
ATOM     24  C   UNL     1      -0.846  -1.891   1.736  0.00  0.00    +0.310 C 
ATOM     25  O   UNL     1      -1.538  -2.661   1.113  0.00  0.00    -0.251 OA
BRANCH  24  26
ATOM     26  O   UNL     1      -1.061  -0.569   1.642  0.00  0.00    -0.465 OA
BRANCH  26  28
ATOM     27  C   UNL     1      -2.217   1.383   0.808  0.00  0.00    +0.048 C 
ATOM     28  C   UNL     1      -2.124  -0.144   0.787  0.00  0.00    +0.229 C 
ENDBRANCH  26  28
ENDBRANCH  24  26
ENDBRANCH  16  24
ENDBRANCH   1  22
BRANCH  12  29
ATOM     29  C   UNL     1      -1.679  -9.852   7.199  0.00  0.00    -0.043 C 
BRANCH  29  30
ATOM     30  C   UNL     1      -2.501 -10.317   8.373  0.00  0.00    -0.064 A 
ATOM     31  C   UNL     1      -1.981 -11.245   9.256  0.00  0.00    +0.004 A 
ATOM     32  C   UNL     1      -2.734 -11.672  10.334  0.00  0.00    +0.038 A 
ATOM     33  C   UNL     1      -4.009 -11.169  10.530  0.00  0.00    +0.123 A 
ATOM     34  C   UNL     1      -4.529 -10.240   9.645  0.00  0.00    +0.038 A 
ATOM     35  C   UNL     1      -3.772  -9.811   8.571  0.00  0.00    +0.004 A 
ATOM     36  F   UNL     1      -4.746 -11.586  11.582  0.00  0.00    -0.205 F 
ENDBRANCH  29  30
ENDBRANCH  12  29
TORSDOF 6
