REMARK  Name = ZINC66981392
REMARK  7 active torsions:
REMARK  status: ('A' for Active; 'I' for Inactive)
REMARK    1  A    between atoms: C_1  and  C_2
REMARK    2  A    between atoms: N_4  and  C_5
REMARK    3  A    between atoms: C_7  and  N_13
REMARK    4  A    between atoms: N_16  and  C_17
REMARK    5  A    between atoms: C_24  and  C_28
REMARK    6  A    between atoms: C_25  and  C_26
REMARK    7  A    between atoms: C_25  and  C_27
REMARK                            x       y       z     vdW  Elec       q    Type
REMARK                         _______ _______ _______ _____ _____    ______ ____
ROOT
ATOM      1  N   UNL     1       1.169  -5.694   1.399  0.00  0.00    -0.267 N 
ATOM      2  C   UNL     1       1.053  -4.881   2.467  0.00  0.00    +0.304 C 
ATOM      3  O   UNL     1       1.988  -4.180   2.802  0.00  0.00    -0.252 OA
ATOM      4  N   UNL     1      -0.099  -4.846   3.165  0.00  0.00    -0.296 N 
ATOM      5  H   UNL     1       0.444  -6.295   1.165  0.00  0.00    +0.156 HD
ATOM      6  H   UNL     1      -0.845  -5.406   2.898  0.00  0.00    +0.151 HD
ENDROOT
BRANCH   4   7
ATOM      7  C   UNL     1      -0.226  -3.962   4.327  0.00  0.00    +0.081 C 
ATOM      8  C   UNL     1      -1.715  -3.751   4.684  0.00  0.00    +0.027 C 
ATOM      9  C   UNL     1      -1.858  -4.316   6.130  0.00  0.00    -0.003 C 
ATOM     10  C   UNL     1      -1.729  -5.860   5.960  0.00  0.00    +0.005 C 
ATOM     11  C   UNL     1      -0.244  -6.091   5.596  0.00  0.00    +0.009 C 
ATOM     12  C   UNL     1       0.394  -4.634   5.590  0.00  0.00    -0.008 C 
ATOM     13  C   UNL     1      -0.452  -3.950   6.724  0.00  0.00    -0.025 C 
ATOM     14  C   UNL     1      -0.218  -4.603   8.088  0.00  0.00    +0.012 C 
ATOM     15  C   UNL     1      -0.225  -2.438   6.773  0.00  0.00    +0.012 C 
ATOM     16  C   UNL     1       1.917  -4.550   5.714  0.00  0.00    +0.013 C 
ENDBRANCH   4   7
BRANCH   1  19
ATOM     17  C   UNL     1       4.720  -5.419   0.460  0.00  0.00    +0.071 A 
ATOM     18  C   UNL     1       3.565  -5.440   1.228  0.00  0.00    +0.052 A 
ATOM     19  C   UNL     1       2.338  -5.672   0.625  0.00  0.00    +0.072 A 
ATOM     20  C   UNL     1       2.268  -5.883  -0.748  0.00  0.00    +0.147 A 
ATOM     21  C   UNL     1       3.420  -5.862  -1.512  0.00  0.00    +0.080 A 
ATOM     22  C   UNL     1       4.645  -5.625  -0.913  0.00  0.00    +0.147 A 
ATOM     23  F   UNL     1       5.769  -5.599  -1.662  0.00  0.00    -0.203 F 
ATOM     24  F   UNL     1       1.072  -6.110  -1.335  0.00  0.00    -0.203 F 
BRANCH  17  28
ATOM     25  C   UNL     1       7.563  -5.465   2.931  0.00  0.00    +0.109 C 
ATOM     26  C   UNL     1       6.200  -5.641   2.312  0.00  0.00    +0.214 C 
ATOM     27  O   UNL     1       5.318  -6.194   2.934  0.00  0.00    -0.276 OA
ATOM     28  N   UNL     1       5.962  -5.184   1.066  0.00  0.00    -0.283 N 
ATOM     29  H   UNL     1       6.649  -4.693   0.590  0.00  0.00    +0.155 HD
ENDBRANCH  17  28
ENDBRANCH   1  19
TORSDOF 3
