REMARK  Name = ZINC20550148
REMARK  15 active torsions:
REMARK  status: ('A' for Active; 'I' for Inactive)
REMARK    1  A    between atoms: C_1  and  C_2
REMARK    2  A    between atoms: C_2  and  C_3
REMARK    3  A    between atoms: C_2  and  C_4
REMARK    4  A    between atoms: C_6  and  C_9
REMARK    5  A    between atoms: C_12  and  S_15
REMARK    6  A    between atoms: N_13  and  C_14
REMARK    7  A    between atoms: S_15  and  C_16
REMARK    8  A    between atoms: C_16  and  C_17
REMARK    9  A    between atoms: N_19  and  C_20
REMARK   10  A    between atoms: C_22  and  C_30
REMARK   11  A    between atoms: C_24  and  C_26
REMARK   12  A    between atoms: C_26  and  O_28
REMARK   13  A    between atoms: O_28  and  C_29
REMARK   14  A    between atoms: C_30  and  O_32
REMARK   15  A    between atoms: O_32  and  C_33
REMARK                            x       y       z     vdW  Elec       q    Type
REMARK                         _______ _______ _______ _____ _____    ______ ____
ROOT
ATOM      1  C   UNL     1       2.672  -3.999   4.208  0.00  0.00    +0.227 C 
ATOM      2  O   UNL     1       2.623  -2.788   4.162  0.00  0.00    -0.275 OA
ATOM      3  N   UNL     1       2.021  -4.735   3.285  0.00  0.00    -0.285 N 
ATOM      4  H   UNL     1       1.993  -5.831   3.376  0.00  0.00    +0.155 HD
ENDROOT
BRANCH   3   5
ATOM      5  C   UNL     1       1.382  -4.105   2.211  0.00  0.00    +0.035 A 
ATOM      6  C   UNL     1       0.217  -4.645   1.686  0.00  0.00    +0.038 A 
ATOM      7  C   UNL     1      -0.423  -4.019   0.614  0.00  0.00    +0.062 A 
ATOM      8  C   UNL     1       0.110  -2.852   0.071  0.00  0.00    +0.030 A 
ATOM      9  C   UNL     1       1.282  -2.313   0.600  0.00  0.00    +0.062 A 
ATOM     10  C   UNL     1       1.919  -2.947   1.669  0.00  0.00    +0.038 A 
BRANCH   9  11
ATOM     11  C   UNL     1       1.852  -1.076   0.027  0.00  0.00    +0.339 C 
ATOM     12  O   UNL     1       2.873  -0.607   0.489  0.00  0.00    -0.245 OA
BRANCH  11  13
ATOM     13  O   UNL     1       1.239  -0.469  -1.007  0.00  0.00    -0.464 OA
ATOM     14  C   UNL     1       1.855   0.742  -1.519  0.00  0.00    +0.280 C 
ENDBRANCH  11  13
ENDBRANCH   9  11
BRANCH   7  15
ATOM     15  C   UNL     1      -1.665  -4.595   0.056  0.00  0.00    +0.339 C 
ATOM     16  O   UNL     1      -2.129  -5.612   0.530  0.00  0.00    -0.245 OA
BRANCH  15  17
ATOM     17  O   UNL     1      -2.281  -3.991  -0.978  0.00  0.00    -0.464 OA
ATOM     18  C   UNL     1      -3.496  -4.612  -1.475  0.00  0.00    +0.280 C 
ENDBRANCH  15  17
ENDBRANCH   7  15
ENDBRANCH   3   5
BRANCH   1  19
ATOM     19  C   UNL     1       3.459  -4.680   5.297  0.00  0.00    +0.173 C 
BRANCH  19  20
ATOM     20  S   UNL     1       4.210  -3.431   6.370  0.00  0.00    -0.077 S 
BRANCH  20  24
ATOM     21  C   UNL     1       6.244  -5.225   9.184  0.00  0.00    +0.165 A 
ATOM     22  N   UNL     1       5.761  -6.229   8.490  0.00  0.00    -0.128 NA
ATOM     23  N   UNL     1       5.056  -5.788   7.511  0.00  0.00    -0.122 NA
ATOM     24  C   UNL     1       5.044  -4.476   7.519  0.00  0.00    +0.192 A 
ATOM     25  N   UNL     1       5.805  -4.070   8.580  0.00  0.00    -0.305 N 
ATOM     26  C   UNL     1       6.089  -2.692   8.991  0.00  0.00    +0.153 C 
BRANCH  21  29
ATOM     27  C   UNL     1       8.512  -6.557  11.823  0.00  0.00    -0.007 A 
ATOM     28  C   UNL     1       7.736  -6.513  10.718  0.00  0.00    +0.023 A 
ATOM     29  C   UNL     1       7.102  -5.317  10.385  0.00  0.00    +0.027 A 
ATOM     30  C   UNL     1       7.297  -4.230  11.193  0.00  0.00    +0.057 A 
ATOM     31  S   UNL     1       8.379  -4.891  12.449  0.00  0.00    -0.101 S 
BRANCH  27  33
ATOM     32  C   UNL     1      10.778  -7.358  12.433  0.00  0.00    +0.013 C 
ATOM     33  C   UNL     1       9.292  -7.718  12.384  0.00  0.00    +0.020 C 
ATOM     34  C   UNL     1       8.796  -8.030  13.798  0.00  0.00    +0.013 C 
ENDBRANCH  27  33
ENDBRANCH  21  29
ENDBRANCH  20  24
ENDBRANCH  19  20
ENDBRANCH   1  19
TORSDOF 10
