REMARK  Name = ZINC39478599
REMARK  9 active torsions:
REMARK  status: ('A' for Active; 'I' for Inactive)
REMARK    1  A    between atoms: C_1  and  C_2
REMARK    2  A    between atoms: C_6  and  C_12
REMARK    3  A    between atoms: C_10  and  C_11
REMARK    4  A    between atoms: C_12  and  N_13
REMARK    5  A    between atoms: N_13  and  C_14
REMARK    6  A    between atoms: N_13  and  C_15
REMARK    7  A    between atoms: C_15  and  C_16
REMARK    8  A    between atoms: C_18  and  C_32
REMARK    9  A    between atoms: C_21  and  C_24
REMARK                            x       y       z     vdW  Elec       q    Type
REMARK                         _______ _______ _______ _____ _____    ______ ____
ROOT
ATOM      1  N   UNL     1      -0.951   4.993  -6.913  0.00  0.00    +0.384 N 
ATOM      2  C   UNL     1       0.441   5.074  -6.450  0.00  0.00    -0.096 C 
ATOM      3  H   UNL     1      -1.517   5.647  -6.394  0.00  0.00    -0.082 HD
ENDROOT
BRANCH   1   4
ATOM      4  C   UNL     1      -1.459   3.631  -6.701  0.00  0.00    -0.004 C 
BRANCH   4  10
ATOM      5  C   UNL     1      -0.225   1.806   0.368  0.00  0.00    +0.044 C 
ATOM      6  C   UNL     1      -0.933   2.268  -0.879  0.00  0.00    -0.045 A 
ATOM      7  C   UNL     1      -0.253   2.319  -2.064  0.00  0.00    +0.033 A 
ATOM      8  C   UNL     1      -0.904   2.747  -3.223  0.00  0.00    +0.089 A 
ATOM      9  N   UNL     1      -0.513   2.903  -4.514  0.00  0.00    -0.234 NA
ATOM     10  C   UNL     1      -1.513   3.338  -5.224  0.00  0.00    +0.091 A 
ATOM     11  N   UNL     1      -2.613   3.491  -4.439  0.00  0.00    -0.343 N 
ATOM     12  C   UNL     1      -2.257   3.122  -3.157  0.00  0.00    +0.066 A 
ATOM     13  C   UNL     1      -2.932   3.063  -1.946  0.00  0.00    +0.031 A 
ATOM     14  C   UNL     1      -2.269   2.634  -0.815  0.00  0.00    -0.045 A 
ATOM     15  C   UNL     1      -3.002   2.565   0.500  0.00  0.00    +0.044 C 
ATOM     16  H   UNL     1      -3.486   3.801  -4.726  0.00  0.00    +0.167 HD
ENDBRANCH   4  10
ENDBRANCH   1   4
BRANCH   1  17
ATOM     17  C   UNL     1      -1.011   5.321  -8.344  0.00  0.00    -0.057 C 
BRANCH  17  18
ATOM     18  C   UNL     1      -2.472   5.360  -8.797  0.00  0.00    +0.068 C 
ATOM     19  C   UNL     1      -2.573   5.895 -10.239  0.00  0.00    +0.133 C 
ATOM     20  O   UNL     1      -3.348   7.107 -10.157  0.00  0.00    -0.353 OA
ATOM     21  C   UNL     1      -4.152   6.971  -8.966  0.00  0.00    +0.221 C 
ATOM     22  N   UNL     1      -3.242   6.331  -7.979  0.00  0.00    -0.284 NA
ATOM     23  C   UNL     1      -1.177   6.196 -10.789  0.00  0.00    +0.039 C 
ATOM     24  H   UNL     1      -3.764   5.860  -7.255  0.00  0.00    +0.125 HD
BRANCH  21  25
ATOM     25  C   UNL     1      -4.600   8.324  -8.475  0.00  0.00    +0.034 A 
ATOM     26  C   UNL     1      -3.978   8.904  -7.384  0.00  0.00    +0.010 A 
ATOM     27  C   UNL     1      -4.387  10.145  -6.933  0.00  0.00    +0.003 A 
ATOM     28  C   UNL     1      -5.418  10.809  -7.571  0.00  0.00    +0.041 A 
ATOM     29  C   UNL     1      -6.042  10.231  -8.663  0.00  0.00    +0.159 A 
ATOM     30  C   UNL     1      -5.628   8.989  -9.119  0.00  0.00    +0.165 A 
ATOM     31  F   UNL     1      -6.232   8.425 -10.188  0.00  0.00    -0.202 F 
ATOM     32  F   UNL     1      -7.050  10.879  -9.287  0.00  0.00    -0.202 F 
ENDBRANCH  21  25
ENDBRANCH  17  18
ENDBRANCH   1  17
TORSDOF 5
