REMARK  Name = ZINC06194737
REMARK  12 active torsions:
REMARK  status: ('A' for Active; 'I' for Inactive)
REMARK    1  A    between atoms: C_1  and  C_2
REMARK    2  A    between atoms: C_2  and  O_3
REMARK    3  A    between atoms: O_3  and  C_4
REMARK    4  A    between atoms: C_4  and  C_6
REMARK    5  A    between atoms: C_11  and  C_13
REMARK    6  A    between atoms: C_11  and  C_29
REMARK    7  A    between atoms: C_11  and  N_74
REMARK    8  A    between atoms: C_17  and  O_27
REMARK    9  A    between atoms: C_18  and  O_25
REMARK   10  A    between atoms: O_25  and  C_26
REMARK   11  A    between atoms: O_27  and  C_28
REMARK   12  A    between atoms: N_33  and  C_34
REMARK                            x       y       z     vdW  Elec       q    Type
REMARK                         _______ _______ _______ _____ _____    ______ ____
ROOT
ATOM      1  C   UNL     1       3.643   2.285  -0.020  0.00  0.00    +0.039 C 
ENDROOT
BRANCH   1   2
ATOM      2  C   UNL     1       2.387   1.452  -0.013  0.00  0.00    +0.011 A 
ATOM      3  C   UNL     1       2.473   0.098  -0.021  0.00  0.00    +0.017 A 
ATOM      4  C   UNL     1       1.236  -0.682  -0.013  0.00  0.00    +0.002 A 
ATOM      5  C   UNL     1       1.266  -2.083  -0.022  0.00  0.00    +0.059 A 
ATOM      6  C   UNL     1       0.083  -2.789  -0.015  0.00  0.00    +0.162 A 
ATOM      7  C   UNL     1      -1.141  -2.114   0.001  0.00  0.00    +0.163 A 
ATOM      8  C   UNL     1      -1.181  -0.732   0.009  0.00  0.00    +0.075 A 
ATOM      9  C   UNL     1       0.002  -0.004   0.002  0.00  0.00    +0.053 A 
ATOM     10  N   UNL     1      -0.017   1.376   0.010  0.00  0.00    -0.322 N 
ATOM     11  H   UNL     1      -0.893   1.857   0.021  0.00  0.00    +0.169 HD
ATOM     12  C   UNL     1       1.127   2.083   0.003  0.00  0.00    +0.251 A 
ATOM     13  O   UNL     1       1.072   3.301   0.009  0.00  0.00    -0.268 OA
BRANCH   7  14
ATOM     14  O   UNL     1      -2.301  -2.821   0.007  0.00  0.00    -0.491 OA
ATOM     15  C   UNL     1      -3.518  -2.072   0.022  0.00  0.00    +0.277 C 
ENDBRANCH   7  14
BRANCH   6  16
ATOM     16  O   UNL     1       0.107  -4.149  -0.022  0.00  0.00    -0.491 OA
ATOM     17  C   UNL     1       1.391  -4.776  -0.038  0.00  0.00    +0.277 C 
ENDBRANCH   6  16
ENDBRANCH   1   2
BRANCH   1  23
ATOM     18  C   UNL     1       4.462   4.420  -3.632  0.00  0.00    +0.094 C 
ATOM     19  C   UNL     1       4.672   5.113  -2.283  0.00  0.00    -0.004 C 
ATOM     20  C   UNL     1       4.813   4.053  -1.188  0.00  0.00    -0.077 C 
ATOM     21  C   UNL     1       3.405   2.512  -2.418  0.00  0.00    -0.077 C 
ATOM     22  C   UNL     1       3.222   3.525  -3.550  0.00  0.00    -0.004 C 
ATOM     23  N   UNL     1       3.578   3.241  -1.144  0.00  0.00    +0.389 N 
ATOM     24  H   UNL     1       2.774   3.865  -1.006  0.00  0.00    -0.080 HD
BRANCH  18  25
ATOM     25  C   UNL     1       4.264   5.459  -4.706  0.00  0.00    +0.310 C 
ATOM     26  O   UNL     1       4.289   6.634  -4.422  0.00  0.00    -0.251 OA
BRANCH  25  27
ATOM     27  O   UNL     1       4.061   5.080  -5.977  0.00  0.00    -0.465 OA
BRANCH  27  29
ATOM     28  C   UNL     1       3.661   5.514  -8.340  0.00  0.00    +0.048 C 
ATOM     29  C   UNL     1       3.878   6.135  -6.959  0.00  0.00    +0.229 C 
ENDBRANCH  27  29
ENDBRANCH  25  27
ENDBRANCH  18  25
ENDBRANCH   1  23
BRANCH   1  30
ATOM     30  C   UNL     1       3.742   3.056   1.271  0.00  0.00    +0.143 A 
ATOM     31  N   UNL     1       3.046   4.115   1.605  0.00  0.00    -0.115 NA
ATOM     32  N   UNL     1       3.419   4.481   2.783  0.00  0.00    -0.023 NA
ATOM     33  N   UNL     1       4.335   3.682   3.209  0.00  0.00    -0.044 NA
ATOM     34  N   UNL     1       4.558   2.787   2.307  0.00  0.00    -0.227 N 
BRANCH  34  35
ATOM     35  C   UNL     1       5.520   1.686   2.394  0.00  0.00    +0.111 C 
ATOM     36  C   UNL     1       5.169   0.793   3.586  0.00  0.00    +0.027 C 
ATOM     37  C   UNL     1       6.174  -0.356   3.676  0.00  0.00    +0.002 C 
ATOM     38  C   UNL     1       7.583   0.211   3.862  0.00  0.00    +0.000 C 
ATOM     39  C   UNL     1       7.934   1.104   2.670  0.00  0.00    +0.002 C 
ATOM     40  C   UNL     1       6.929   2.253   2.580  0.00  0.00    +0.027 C 
ENDBRANCH  34  35
ENDBRANCH   1  30
TORSDOF 9
