REMARK  Name = ZINC07425871
REMARK  4 active torsions:
REMARK  status: ('A' for Active; 'I' for Inactive)
REMARK    1  A    between atoms: N_13  and  C_17
REMARK    2  A    between atoms: C_17  and  C_18
REMARK    3  A    between atoms: N_20  and  C_21
REMARK    4  A    between atoms: N_20  and  C_24
REMARK                            x       y       z     vdW  Elec       q    Type
REMARK                         _______ _______ _______ _____ _____    ______ ____
ROOT
ATOM      1  C   UNL     1      -8.981   6.207   0.179  0.00  0.00    +0.000 A 
ATOM      2  C   UNL     1      -8.418   4.968  -0.068  0.00  0.00    +0.000 A 
ATOM      3  C   UNL     1      -7.916   4.681  -1.320  0.00  0.00    +0.006 A 
ATOM      4  C   UNL     1      -7.972   5.625  -2.337  0.00  0.00    -0.012 A 
ATOM      5  C   UNL     1      -8.536   6.858  -2.092  0.00  0.00    -0.042 A 
ATOM      6  C   UNL     1      -9.039   7.146  -0.830  0.00  0.00    +0.004 A 
ATOM      7  C   UNL     1      -8.636   7.925  -3.150  0.00  0.00    +0.035 C 
ATOM      8  C   UNL     1      -7.667   7.641  -4.295  0.00  0.00    +0.008 C 
ATOM      9  C   UNL     1      -7.886   6.199  -4.770  0.00  0.00    +0.040 C 
ATOM     10  C   UNL     1      -7.405   5.253  -3.678  0.00  0.00    +0.138 C 
ATOM     11  C   UNL     1      -5.893   5.242  -3.621  0.00  0.00    +0.251 C 
ATOM     12  O   UNL     1      -5.162   6.177  -3.377  0.00  0.00    -0.272 OA
ATOM     13  N   UNL     1      -5.531   3.973  -3.898  0.00  0.00    -0.215 N 
ATOM     14  C   UNL     1      -6.595   3.194  -4.126  0.00  0.00    +0.310 C 
ATOM     15  O   UNL     1      -6.522   2.013  -4.402  0.00  0.00    -0.252 OA
ATOM     16  N   UNL     1      -7.757   3.866  -4.012  0.00  0.00    -0.281 N 
ATOM     17  H   UNL     1      -8.650   3.506  -4.130  0.00  0.00    +0.152 HD
ENDROOT
BRANCH  13  18
ATOM     18  C   UNL     1      -4.143   3.506  -3.951  0.00  0.00    +0.214 C 
BRANCH  18  19
ATOM     19  C   UNL     1      -3.722   3.027  -2.585  0.00  0.00    +0.238 C 
ATOM     20  O   UNL     1      -4.471   3.156  -1.640  0.00  0.00    -0.274 OA
ATOM     21  N   UNL     1      -2.514   2.455  -2.414  0.00  0.00    -0.271 N 
BRANCH  21  22
ATOM     22  C   UNL     1      -2.171   1.908  -1.181  0.00  0.00    +0.010 C 
ATOM     23  C   UNL     1      -1.043   1.260  -1.090  0.00  0.00    -0.008 C 
ATOM     24  C   UNL     1      -0.548   0.610   0.169  0.00  0.00    +0.029 C 
ATOM     25  C   UNL     1      -1.306   1.164   1.377  0.00  0.00    +0.004 C 
ATOM     26  C   UNL     1      -2.807   1.104   1.083  0.00  0.00    +0.006 C 
ATOM     27  C   UNL     1      -3.121   2.100  -0.035  0.00  0.00    +0.051 C 
ENDBRANCH  21  22
BRANCH  21  28
ATOM     28  C   UNL     1      -1.561   2.409  -3.526  0.00  0.00    +0.081 C 
ATOM     29  C   UNL     1      -0.128   2.865  -3.248  0.00  0.00    +0.025 C 
ATOM     30  C   UNL     1      -1.062   3.743  -4.084  0.00  0.00    +0.025 C 
ENDBRANCH  21  28
ENDBRANCH  18  19
ENDBRANCH  13  18
TORSDOF 4
