REMARK  Name = ZINC40168495
REMARK  8 active torsions:
REMARK  status: ('A' for Active; 'I' for Inactive)
REMARK    1  A    between atoms: C_1  and  C_2
REMARK    2  A    between atoms: C_2  and  C_3
REMARK    3  A    between atoms: C_3  and  C_5
REMARK    4  A    between atoms: C_3  and  O_19
REMARK    5  A    between atoms: N_7  and  C_8
REMARK    6  A    between atoms: C_9  and  C_17
REMARK    7  A    between atoms: O_19  and  C_20
REMARK    8  A    between atoms: C_30  and  C_31
REMARK                            x       y       z     vdW  Elec       q    Type
REMARK                         _______ _______ _______ _____ _____    ______ ____
ROOT
ATOM      1  O   UNL     1      -0.319  -0.161  -2.070  0.00  0.00    -0.472 OA
ENDROOT
BRANCH   1   2
ATOM      2  C   UNL     1      -0.019   0.931  -2.826  0.00  0.00    +0.212 A 
ATOM      3  C   UNL     1       1.261   1.058  -3.423  0.00  0.00    +0.235 A 
ATOM      4  O   UNL     1       2.117   0.201  -3.276  0.00  0.00    -0.283 OA
ATOM      5  C   UNL     1       1.517   2.267  -4.228  0.00  0.00    +0.068 A 
ATOM      6  C   UNL     1       2.746   2.475  -4.852  0.00  0.00    +0.015 A 
ATOM      7  C   UNL     1       2.946   3.617  -5.597  0.00  0.00    +0.001 A 
ATOM      8  C   UNL     1       1.932   4.554  -5.726  0.00  0.00    +0.004 A 
ATOM      9  C   UNL     1       0.712   4.360  -5.114  0.00  0.00    +0.047 A 
ATOM     10  C   UNL     1       0.489   3.215  -4.359  0.00  0.00    +0.140 A 
ATOM     11  O   UNL     1      -0.698   3.007  -3.753  0.00  0.00    -0.451 OA
ATOM     12  C   UNL     1      -0.949   1.909  -3.020  0.00  0.00    +0.182 A 
BRANCH  12  13
ATOM     13  C   UNL     1      -2.278   1.759  -2.398  0.00  0.00    +0.039 A 
ATOM     14  C   UNL     1      -3.002   0.575  -2.565  0.00  0.00    +0.013 A 
ATOM     15  C   UNL     1      -4.243   0.442  -1.980  0.00  0.00    +0.001 A 
ATOM     16  C   UNL     1      -4.774   1.476  -1.230  0.00  0.00    +0.001 A 
ATOM     17  C   UNL     1      -4.065   2.652  -1.060  0.00  0.00    +0.021 A 
ATOM     18  C   UNL     1      -2.817   2.798  -1.634  0.00  0.00    +0.052 A 
ATOM     19 CL   UNL     1      -1.925   4.270  -1.414  0.00  0.00    -0.083 Cl
ENDBRANCH  12  13
ENDBRANCH   1   2
BRANCH   1  20
ATOM     20  C   UNL     1       0.481  -0.385  -0.908  0.00  0.00    +0.259 C 
BRANCH  20  21
ATOM     21  C   UNL     1       0.620  -1.867  -0.671  0.00  0.00    +0.258 C 
ATOM     22  O   UNL     1       0.006  -2.651  -1.363  0.00  0.00    -0.271 OA
ATOM     23  N   UNL     1       1.425  -2.320   0.310  0.00  0.00    -0.276 N 
ATOM     24  H   UNL     1       1.853  -1.694   0.914  0.00  0.00    +0.155 HD
BRANCH  23  25
ATOM     25  C   UNL     1       1.642  -3.683   0.455  0.00  0.00    +0.090 A 
ATOM     26  C   UNL     1       2.426  -4.325   1.399  0.00  0.00    +0.084 A 
ATOM     27  C   UNL     1       2.489  -5.774   1.337  0.00  0.00    -0.018 A 
ATOM     28  C   UNL     1       1.755  -6.317   0.341  0.00  0.00    -0.004 A 
ATOM     29  S   UNL     1       1.009  -4.934  -0.471  0.00  0.00    -0.077 S 
ATOM     30  C   UNL     1       1.616  -7.772   0.016  0.00  0.00    +0.043 C 
ATOM     31  C   UNL     1       2.728  -8.538   0.748  0.00  0.00    +0.005 C 
ATOM     32  C   UNL     1       2.768  -8.079   2.208  0.00  0.00    +0.005 C 
ATOM     33  C   UNL     1       3.295  -6.645   2.290  0.00  0.00    +0.037 C 
BRANCH  26  34
ATOM     34  C   UNL     1       3.145  -3.589   2.395  0.00  0.00    +0.102 C 
ATOM     35  N   UNL     1       3.716  -3.006   3.185  0.00  0.00    -0.191 NA
ENDBRANCH  26  34
ENDBRANCH  23  25
ENDBRANCH  20  21
BRANCH  20  37
ATOM     36  C   UNL     1      -0.171   1.787   0.142  0.00  0.00    +0.008 C 
ATOM     37  C   UNL     1      -0.187   0.266   0.305  0.00  0.00    +0.051 C 
ENDBRANCH  20  37
ENDBRANCH   1  20
TORSDOF 7
