REMARK  Name = ZINC40467650
REMARK  4 active torsions:
REMARK  status: ('A' for Active; 'I' for Inactive)
REMARK    1  A    between atoms: C_4  and  C_7
REMARK    2  A    between atoms: C_10  and  N_12
REMARK    3  A    between atoms: N_14  and  C_30
REMARK    4  A    between atoms: C_18  and  C_19
REMARK                            x       y       z     vdW  Elec       q    Type
REMARK                         _______ _______ _______ _____ _____    ______ ____
ROOT
ATOM      1  N   UNL     1       7.256  -0.106  -0.089  0.00  0.00    -0.199 NA
ATOM      2  C   UNL     1       8.299  -0.909  -0.011  0.00  0.00    +0.171 C 
ATOM      3  N   UNL     1       8.332  -2.287  -0.026  0.00  0.00    -0.243 N 
ATOM      4  C   UNL     1       9.486  -2.924   0.063  0.00  0.00    +0.259 C 
ATOM      5  O   UNL     1       9.530  -4.142   0.051  0.00  0.00    -0.269 OA
ATOM      6  C   UNL     1      10.680  -2.151   0.172  0.00  0.00    +0.078 C 
ATOM      7  C   UNL     1      11.972  -2.569   0.274  0.00  0.00    +0.030 C 
ATOM      8  S   UNL     1      10.029  -0.488   0.131  0.00  0.00    -0.049 S 
ENDROOT
BRANCH   7   9
ATOM      9  C   UNL     1      13.060  -1.591   0.261  0.00  0.00    +0.001 A 
ATOM     10  C   UNL     1      12.938  -0.230   0.265  0.00  0.00    +0.091 A 
ATOM     11  N   UNL     1      14.170   0.340   0.250  0.00  0.00    -0.360 N 
ATOM     12  H   UNL     1      14.338   1.295   0.250  0.00  0.00    +0.165 HD
ATOM     13  C   UNL     1      15.150  -0.632   0.235  0.00  0.00    +0.047 A 
ATOM     14  C   UNL     1      14.507  -1.880   0.247  0.00  0.00    +0.007 A 
ATOM     15  C   UNL     1      15.258  -3.052   0.241  0.00  0.00    +0.010 A 
ATOM     16  C   UNL     1      16.634  -2.981   0.227  0.00  0.00    +0.001 A 
ATOM     17  C   UNL     1      17.271  -1.749   0.219  0.00  0.00    +0.002 A 
ATOM     18  C   UNL     1      16.539  -0.581   0.217  0.00  0.00    +0.026 A 
ENDBRANCH   7   9
BRANCH   3  19
ATOM     19  C   UNL     1       7.085  -3.047  -0.139  0.00  0.00    +0.084 C 
ATOM     20  C   UNL     1       6.843  -3.826   1.155  0.00  0.00    +0.023 C 
ATOM     21  C   UNL     1       5.540  -4.620   1.036  0.00  0.00    +0.002 C 
ATOM     22  C   UNL     1       5.643  -5.598  -0.136  0.00  0.00    +0.000 C 
ATOM     23  C   UNL     1       5.885  -4.818  -1.430  0.00  0.00    +0.002 C 
ATOM     24  C   UNL     1       7.188  -4.024  -1.312  0.00  0.00    +0.023 C 
ENDBRANCH   3  19
BRANCH   1  28
ATOM     25  C   UNL     1       4.058  -1.446   0.904  0.00  0.00    +0.080 A 
ATOM     26  C   UNL     1       3.527  -1.606  -0.346  0.00  0.00    +0.077 A 
ATOM     27  S   UNL     1       4.875  -1.015  -1.360  0.00  0.00    -0.056 S 
ATOM     28  C   UNL     1       6.000  -0.617  -0.029  0.00  0.00    +0.195 A 
ATOM     29  N   UNL     1       5.278  -0.950   1.035  0.00  0.00    -0.221 NA
BRANCH  25  33
ATOM     30  C   UNL     1       1.798  -2.511   4.345  0.00  0.00    +0.000 A 
ATOM     31  C   UNL     1       3.074  -1.996   4.491  0.00  0.00    +0.001 A 
ATOM     32  C   UNL     1       3.812  -1.648   3.377  0.00  0.00    +0.010 A 
ATOM     33  C   UNL     1       3.270  -1.818   2.104  0.00  0.00    +0.001 A 
ATOM     34  C   UNL     1       1.984  -2.338   1.964  0.00  0.00    +0.010 A 
ATOM     35  C   UNL     1       1.255  -2.682   3.084  0.00  0.00    +0.001 A 
ENDBRANCH  25  33
ENDBRANCH   1  28
TORSDOF 4
