REMARK  Name = ZINC44940459
REMARK  8 active torsions:
REMARK  status: ('A' for Active; 'I' for Inactive)
REMARK    1  A    between atoms: C_1  and  C_2
REMARK    2  A    between atoms: C_2  and  C_38
REMARK    3  A    between atoms: C_4  and  N_11
REMARK    4  A    between atoms: C_6  and  C_9
REMARK    5  A    between atoms: C_6  and  C_10
REMARK    6  A    between atoms: N_7  and  C_8
REMARK    7  A    between atoms: C_12  and  C_14
REMARK    8  A    between atoms: C_20  and  C_22
REMARK                            x       y       z     vdW  Elec       q    Type
REMARK                         _______ _______ _______ _____ _____    ______ ____
ROOT
ATOM      1  C   UNL     1       4.302  -0.871  -4.434  0.00  0.00    +0.091 C 
ATOM      2  C   UNL     1       4.573  -2.372  -4.300  0.00  0.00    +0.040 C 
ATOM      3  C   UNL     1       5.350  -2.864  -5.486  0.00  0.00    -0.030 C 
ATOM      4  C   UNL     1       5.998  -2.094  -6.299  0.00  0.00    -0.030 C 
ATOM      5  C   UNL     1       6.054  -0.599  -6.176  0.00  0.00    +0.040 C 
ATOM      6  C   UNL     1       5.620  -0.165  -4.775  0.00  0.00    +0.091 C 
ENDROOT
BRANCH   6   7
ATOM      7  C   UNL     1       5.418   1.328  -4.743  0.00  0.00    +0.220 C 
ATOM      8  O   UNL     1       4.328   1.787  -4.474  0.00  0.00    -0.275 OA
ATOM      9  N   UNL     1       6.449   2.154  -5.014  0.00  0.00    -0.295 N 
ATOM     10  C   UNL     1       6.274   3.614  -4.981  0.00  0.00    +0.113 C 
ATOM     11  C   UNL     1       7.141   4.194  -3.858  0.00  0.00    +0.056 C 
ATOM     12  C   UNL     1       8.509   3.564  -3.919  0.00  0.00    -0.016 A 
ATOM     13  C   UNL     1       9.740   4.031  -3.315  0.00  0.00    +0.003 A 
ATOM     14  C   UNL     1      10.047   5.146  -2.530  0.00  0.00    +0.010 A 
ATOM     15  C   UNL     1      11.351   5.277  -2.120  0.00  0.00    +0.001 A 
ATOM     16  C   UNL     1      12.326   4.355  -2.462  0.00  0.00    +0.002 A 
ATOM     17  C   UNL     1      12.051   3.242  -3.238  0.00  0.00    +0.026 A 
ATOM     18  C   UNL     1      10.735   3.083  -3.668  0.00  0.00    +0.047 A 
ATOM     19  N   UNL     1      10.130   2.123  -4.427  0.00  0.00    -0.356 N 
ATOM     20  H   UNL     1      10.574   1.348  -4.805  0.00  0.00    +0.166 HD
ATOM     21  C   UNL     1       8.801   2.419  -4.574  0.00  0.00    +0.038 A 
ATOM     22  C   UNL     1       7.780   1.617  -5.343  0.00  0.00    +0.161 C 
ENDBRANCH   6   7
BRANCH   1  24
ATOM     23  N   UNL     1       2.611  -0.821  -2.630  0.00  0.00    -0.312 N 
ATOM     24  C   UNL     1       3.763  -0.336  -3.132  0.00  0.00    +0.217 C 
ATOM     25  O   UNL     1       4.367   0.531  -2.537  0.00  0.00    -0.275 OA
ATOM     26  H   UNL     1       2.128  -1.515  -3.106  0.00  0.00    +0.149 HD
BRANCH  23  30
ATOM     27  C   UNL     1      -0.019   1.528   0.010  0.00  0.00    -0.010 C 
ATOM     28  C   UNL     1       0.002  -0.004   0.002  0.00  0.00    -0.069 C 
ATOM     29  C   UNL     1       0.571  -0.507  -1.320  0.00  0.00    +0.010 C 
ATOM     30  C   UNL     1       2.085  -0.300  -1.362  0.00  0.00    +0.070 C 
ATOM     31  C   UNL     1       2.704  -1.079  -0.201  0.00  0.00    +0.010 C 
ATOM     32  C   UNL     1       2.150  -0.581   1.129  0.00  0.00    -0.069 C 
ATOM     33  N   UNL     1       0.697  -0.531   1.165  0.00  0.00    +0.385 N 
ATOM     34  C   UNL     1       0.278   0.238   2.357  0.00  0.00    -0.095 C 
ATOM     35  C   UNL     1       2.764   0.779   1.472  0.00  0.00    -0.010 C 
ATOM     36  C   UNL     1       2.610  -1.575   2.221  0.00  0.00    -0.010 C 
ATOM     37  C   UNL     1      -1.468  -0.478   0.081  0.00  0.00    -0.010 C 
ATOM     38  H   UNL     1       0.360  -1.492   1.315  0.00  0.00    -0.081 HD
ENDBRANCH  23  30
ENDBRANCH   1  24
TORSDOF 3
