REMARK  Name = ZINC17073634
REMARK  4 active torsions:
REMARK  status: ('A' for Active; 'I' for Inactive)
REMARK    1  A    between atoms: C_1  and  C_2
REMARK    2  A    between atoms: C_5  and  C_7
REMARK    3  A    between atoms: C_23  and  C_25
REMARK    4  A    between atoms: C_23  and  C_26
REMARK                            x       y       z     vdW  Elec       q    Type
REMARK                         _______ _______ _______ _____ _____    ______ ____
ROOT
ATOM      1  C   UNL     1       2.374   0.076   0.811  0.00  0.00    +0.099 C 
ATOM      2  C   UNL     1       1.151  -0.676   0.381  0.00  0.00    +0.069 A 
ATOM      3  C   UNL     1       1.151  -2.076   0.361  0.00  0.00    +0.259 A 
ATOM      4  O   UNL     1       2.147  -2.702   0.686  0.00  0.00    -0.267 OA
ATOM      5  N   UNL     1       0.029  -2.720  -0.025  0.00  0.00    -0.295 N 
ATOM      6  H   UNL     1       0.011  -3.690  -0.046  0.00  0.00    +0.172 HD
ATOM      7  C   UNL     1      -1.076  -2.012  -0.383  0.00  0.00    +0.195 A 
ATOM      8  N   UNL     1      -1.082  -0.695  -0.368  0.00  0.00    -0.201 NA
ATOM      9  C   UNL     1       0.002  -0.004   0.002  0.00  0.00    +0.136 A 
ATOM     10  N   UNL     1      -0.017   1.377   0.010  0.00  0.00    -0.302 N 
ATOM     11  C   UNL     1       1.151   2.090   0.002  0.00  0.00    +0.017 C 
ATOM     12  C   UNL     1       2.317   1.516   0.367  0.00  0.00    +0.025 C 
ATOM     13  C   UNL     1       3.520   2.244   0.344  0.00  0.00    +0.162 C 
ATOM     14  O   UNL     1       4.551   1.700   0.686  0.00  0.00    -0.292 OA
ATOM     15  C   UNL     1       3.555   3.682  -0.094  0.00  0.00    +0.086 C 
ATOM     16  C   UNL     1       2.417   3.928  -1.089  0.00  0.00    -0.023 C 
ATOM     17  C   UNL     1       1.097   3.538  -0.421  0.00  0.00    +0.058 C 
ATOM     18  C   UNL     1       2.632   3.073  -2.339  0.00  0.00    +0.011 C 
ATOM     19  C   UNL     1       2.378   5.407  -1.479  0.00  0.00    +0.011 C 
ATOM     20  N   UNL     1      -2.206  -2.683  -0.768  0.00  0.00    -0.329 N 
ATOM     21  H   UNL     1      -0.866   1.845   0.016  0.00  0.00    +0.153 HD
ATOM     22  H   UNL     1      -3.000  -2.188  -1.025  0.00  0.00    +0.145 HD
ATOM     23  H   UNL     1      -2.213  -3.653  -0.783  0.00  0.00    +0.145 HD
ENDROOT
BRANCH   1  28
ATOM     24  C   UNL     1       1.889   0.349   6.449  0.00  0.00    +0.051 C 
ATOM     25  C   UNL     1       2.248   0.158   4.998  0.00  0.00    -0.013 A 
ATOM     26  C   UNL     1       3.354  -0.412   4.460  0.00  0.00    +0.011 A 
ATOM     27  C   UNL     1       3.470  -0.483   3.084  0.00  0.00    +0.012 A 
ATOM     28  C   UNL     1       2.479   0.029   2.314  0.00  0.00    +0.002 A 
ATOM     29  S   UNL     1       1.328   0.625   3.541  0.00  0.00    -0.097 S 
ENDBRANCH   1  28
TORSDOF 1
