REMARK  Name = ZINC08992102
REMARK  2 active torsions:
REMARK  status: ('A' for Active; 'I' for Inactive)
REMARK    1  A    between atoms: C_12  and  C_16
REMARK    2  A    between atoms: N_18  and  C_19
REMARK                            x       y       z     vdW  Elec       q    Type
REMARK                         _______ _______ _______ _____ _____    ______ ____
ROOT
ATOM      1  C   UNL     1       1.173  -0.661  -0.114  0.00  0.00    +0.239 C 
ATOM      2  O   UNL     1       2.217  -0.044  -0.121  0.00  0.00    -0.273 OA
ATOM      3  N   UNL     1       0.002  -0.004   0.002  0.00  0.00    -0.284 N 
ATOM      4  H   UNL     1      -0.828  -0.501   0.075  0.00  0.00    +0.155 HD
ENDROOT
BRANCH   1  15
ATOM      5  C   UNL     1       6.006  -5.607   0.755  0.00  0.00    +0.000 A 
ATOM      6  C   UNL     1       6.752  -4.459   0.550  0.00  0.00    +0.001 A 
ATOM      7  C   UNL     1       6.141  -3.302   0.112  0.00  0.00    +0.013 A 
ATOM      8  C   UNL     1       4.766  -3.286  -0.118  0.00  0.00    +0.043 A 
ATOM      9  C   UNL     1       4.024  -4.458   0.071  0.00  0.00    -0.005 A 
ATOM     10  C   UNL     1       4.643  -5.604   0.514  0.00  0.00    +0.007 A 
ATOM     11  C   UNL     1       2.607  -4.119  -0.294  0.00  0.00    +0.166 C 
ATOM     12  N   UNL     1       2.570  -2.630  -0.394  0.00  0.00    -0.269 N 
ATOM     13  C   UNL     1       3.841  -2.230  -0.578  0.00  0.00    +0.249 C 
ATOM     14  O   UNL     1       4.178  -1.162  -1.049  0.00  0.00    -0.270 OA
ATOM     15  C   UNL     1       1.185  -2.163  -0.236  0.00  0.00    +0.174 C 
ATOM     16  C   UNL     1       0.559  -2.790   1.041  0.00  0.00    +0.103 C 
ATOM     17  S   UNL     1       1.495  -4.375   1.150  0.00  0.00    -0.131 S 
ENDBRANCH   1  15
BRANCH   3  18
ATOM     18  C   UNL     1      -0.016   1.396   0.018  0.00  0.00    +0.034 A 
ATOM     19  C   UNL     1      -1.074   2.084  -0.574  0.00  0.00    +0.027 A 
ATOM     20  C   UNL     1      -1.107   3.461  -0.567  0.00  0.00    +0.049 A 
ATOM     21  C   UNL     1      -0.079   4.179   0.033  0.00  0.00    +0.139 A 
ATOM     22  C   UNL     1       0.990   3.490   0.631  0.00  0.00    +0.019 A 
ATOM     23  C   UNL     1       1.013   2.092   0.625  0.00  0.00    +0.035 A 
ATOM     24  C   UNL     1       2.069   4.259   1.261  0.00  0.00    +0.018 A 
ATOM     25  C   UNL     1       1.987   5.613   1.238  0.00  0.00    +0.092 A 
ATOM     26  C   UNL     1       0.884   6.240   0.620  0.00  0.00    +0.337 A 
ATOM     27  O   UNL     1       0.823   7.456   0.606  0.00  0.00    -0.245 OA
ATOM     28  O   UNL     1      -0.099   5.530   0.045  0.00  0.00    -0.422 OA
ENDBRANCH   3  18
TORSDOF 2
