REMARK  Name = ZINC43620217
REMARK  5 active torsions:
REMARK  status: ('A' for Active; 'I' for Inactive)
REMARK    1  A    between atoms: C_1  and  C_2
REMARK    2  A    between atoms: C_10  and  C_11
REMARK    3  A    between atoms: C_16  and  C_19
REMARK    4  A    between atoms: N_22  and  C_23
REMARK    5  A    between atoms: C_23  and  C_24
REMARK                            x       y       z     vdW  Elec       q    Type
REMARK                         _______ _______ _______ _____ _____    ______ ____
ROOT
ATOM      1  C   UNL     1       2.202   0.983  -0.446  0.00  0.00    +0.046 C 
ATOM      2  C   UNL     1       1.188  -0.119  -0.272  0.00  0.00    -0.019 A 
ATOM      3  C   UNL     1       0.756  -0.857  -1.382  0.00  0.00    +0.051 A 
ATOM      4  C   UNL     1       1.138  -0.735  -2.752  0.00  0.00    +0.130 A 
ATOM      5  N   UNL     1       0.598  -1.546  -3.647  0.00  0.00    -0.220 NA
ATOM      6  C   UNL     1      -0.288  -2.469  -3.318  0.00  0.00    +0.224 A 
ATOM      7  N   UNL     1      -0.682  -2.632  -2.070  0.00  0.00    -0.228 NA
ATOM      8  C   UNL     1      -0.197  -1.869  -1.111  0.00  0.00    +0.114 A 
ATOM      9  S   UNL     1      -0.437  -1.745   0.642  0.00  0.00    -0.064 S 
ATOM     10  C   UNL     1       0.696  -0.404   0.964  0.00  0.00    +0.080 A 
ATOM     11  N   UNL     1       2.060   0.217  -3.138  0.00  0.00    -0.328 N 
ATOM     12  H   UNL     1       2.433   0.826  -2.481  0.00  0.00    +0.147 HD
ENDROOT
BRANCH  10  13
ATOM     13  C   UNL     1       1.015   0.236   2.246  0.00  0.00    +0.254 C 
ATOM     14  O   UNL     1       0.940   1.445   2.358  0.00  0.00    -0.269 OA
ATOM     15  N   UNL     1       1.392  -0.516   3.299  0.00  0.00    -0.297 N 
ATOM     16  C   UNL     1       1.370  -1.983   3.217  0.00  0.00    +0.109 C 
ATOM     17  C   UNL     1       2.750  -2.520   3.610  0.00  0.00    +0.032 C 
ATOM     18  C   UNL     1       3.133  -1.973   4.987  0.00  0.00    +0.078 C 
ATOM     19  C   UNL     1       3.208  -0.445   4.928  0.00  0.00    +0.032 C 
ATOM     20  C   UNL     1       1.838   0.115   4.549  0.00  0.00    +0.109 C 
BRANCH  18  21
ATOM     21  C   UNL     1       4.476  -2.526   5.391  0.00  0.00    +0.214 C 
ATOM     22  O   UNL     1       5.068  -3.282   4.651  0.00  0.00    -0.276 OA
ATOM     23  N   UNL     1       5.019  -2.179   6.575  0.00  0.00    -0.329 N 
ATOM     24  H   UNL     1       4.545  -1.574   7.167  0.00  0.00    +0.145 HD
ATOM     25  H   UNL     1       5.883  -2.535   6.835  0.00  0.00    +0.145 HD
ENDBRANCH  18  21
ENDBRANCH  10  13
BRANCH  11  26
ATOM     26  C   UNL     1       2.475   0.308  -4.540  0.00  0.00    +0.107 C 
BRANCH  26  27
ATOM     27  C   UNL     1       3.496   1.436  -4.697  0.00  0.00    +0.013 C 
ATOM     28  C   UNL     1       4.826   1.070  -3.993  0.00  0.00    +0.013 C 
ATOM     29  C   UNL     1       5.869   1.061  -5.155  0.00  0.00    +0.012 C 
ATOM     30  C   UNL     1       5.329   2.250  -6.031  0.00  0.00    +0.015 C 
ATOM     31  C   UNL     1       3.902   1.605  -6.196  0.00  0.00    +0.017 C 
ATOM     32  C   UNL     1       4.306   0.192  -6.634  0.00  0.00    -0.027 C 
ATOM     33  C   UNL     1       5.455  -0.137  -6.019  0.00  0.00    -0.027 C 
ENDBRANCH  26  27
ENDBRANCH  11  26
TORSDOF 4
