REMARK  Name = ZINC39969974
REMARK  2 active torsions:
REMARK  status: ('A' for Active; 'I' for Inactive)
REMARK    1  A    between atoms: C_4  and  C_22
REMARK    2  A    between atoms: C_5  and  C_7
REMARK                            x       y       z     vdW  Elec       q    Type
REMARK                         _______ _______ _______ _____ _____    ______ ____
ROOT
ATOM      1  C   UNL     1       1.229  -2.186  -0.020  0.00  0.00    +0.047 C 
ATOM      2  C   UNL     1       0.516  -2.719   1.226  0.00  0.00    +0.105 C 
ATOM      3  C   UNL     1       0.249  -4.190   1.104  0.00  0.00    +0.219 C 
ATOM      4  O   UNL     1       0.033  -4.819   2.117  0.00  0.00    -0.275 OA
ATOM      5  N   UNL     1       0.235  -4.847  -0.064  0.00  0.00    -0.273 N 
ATOM      6  C   UNL     1       0.547  -4.211  -1.232  0.00  0.00    +0.117 C 
ATOM      7  N   UNL     1       0.893  -4.889  -2.288  0.00  0.00    -0.205 NA
ATOM      8  C   UNL     1       1.315  -4.296  -3.411  0.00  0.00    +0.206 C 
ATOM      9  N   UNL     1       1.449  -2.982  -3.506  0.00  0.00    -0.147 NA
ATOM     10  C   UNL     1       1.100  -2.172  -2.516  0.00  0.00    +0.250 C 
ATOM     11  O   UNL     1       1.279  -0.975  -2.633  0.00  0.00    -0.273 OA
ATOM     12  C   UNL     1       0.490  -2.705  -1.257  0.00  0.00    +0.148 C 
ATOM     13  N   UNL     1       1.618  -5.072  -4.496  0.00  0.00    -0.329 N 
ATOM     14  H   UNL     1       0.000  -5.788  -0.081  0.00  0.00    +0.156 HD
ATOM     15  H   UNL     1       1.525  -6.036  -4.443  0.00  0.00    +0.145 HD
ATOM     16  H   UNL     1       1.925  -4.659  -5.317  0.00  0.00    +0.145 HD
ENDROOT
BRANCH   1  21
ATOM     17  C   UNL     1      -0.017   1.378   0.010  0.00  0.00    +0.000 A 
ATOM     18  C   UNL     1       1.171   2.085   0.002  0.00  0.00    +0.001 A 
ATOM     19  C   UNL     1       2.377   1.411  -0.013  0.00  0.00    +0.012 A 
ATOM     20  C   UNL     1       2.396   0.028  -0.020  0.00  0.00    +0.058 A 
ATOM     21  C   UNL     1       1.209  -0.679  -0.012  0.00  0.00    -0.031 A 
ATOM     22  C   UNL     1       0.002  -0.004   0.002  0.00  0.00    +0.004 A 
BRANCH  20  23
ATOM     23  C   UNL     1       3.711  -0.707  -0.038  0.00  0.00    +0.418 C 
ATOM     24  F   UNL     1       4.762   0.216  -0.044  0.00  0.00    -0.166 F 
ATOM     25  F   UNL     1       3.808  -1.516   1.100  0.00  0.00    -0.166 F 
ATOM     26  F   UNL     1       3.784  -1.505  -1.185  0.00  0.00    -0.166 F 
ENDBRANCH  20  23
ENDBRANCH   1  21
TORSDOF 2
