REMARK  Name = ZINC26690141
REMARK  5 active torsions:
REMARK  status: ('A' for Active; 'I' for Inactive)
REMARK    1  A    between atoms: C_1  and  N_2
REMARK    2  A    between atoms: N_2  and  C_3
REMARK    3  A    between atoms: N_2  and  C_14
REMARK    4  A    between atoms: C_3  and  C_4
REMARK    5  A    between atoms: C_14  and  N_15
REMARK                            x       y       z     vdW  Elec       q    Type
REMARK                         _______ _______ _______ _____ _____    ______ ____
ROOT
ATOM      1  C   UNL     1      -0.003   1.324   2.397  0.00  0.00    +0.042 C 
ENDROOT
BRANCH   1   2
ATOM      2  N   UNL     1      -0.538   2.199   3.443  0.00  0.00    -0.241 N 
ATOM      3  C   UNL     1      -1.480   1.828   4.331  0.00  0.00    +0.245 C 
ATOM      4  O   UNL     1      -2.026   0.748   4.409  0.00  0.00    -0.273 OA
ATOM      5  C   UNL     1      -1.719   3.041   5.214  0.00  0.00    +0.112 C 
ATOM      6  C   UNL     1      -1.236   2.692   6.640  0.00  0.00    +0.035 C 
ATOM      7  C   UNL     1      -0.905   3.967   7.364  0.00  0.00    +0.003 C 
ATOM      8  C   UNL     1      -2.084   4.499   8.202  0.00  0.00    +0.000 C 
ATOM      9  C   UNL     1      -3.436   4.387   7.471  0.00  0.00    +0.000 C 
ATOM     10  C   UNL     1      -3.332   4.766   6.018  0.00  0.00    +0.003 C 
ATOM     11  C   UNL     1      -3.107   3.485   5.194  0.00  0.00    +0.035 C 
ATOM     12  N   UNL     1      -0.793   4.050   4.659  0.00  0.00    -0.285 N 
ATOM     13  C   UNL     1      -0.146   3.463   3.638  0.00  0.00    +0.308 C 
ATOM     14  O   UNL     1       0.697   4.020   2.963  0.00  0.00    -0.252 OA
ATOM     15  H   UNL     1      -0.747   5.056   5.101  0.00  0.00    +0.151 HD
ENDBRANCH   1   2
BRANCH   1  17
ATOM     16  C   UNL     1      -2.037   0.657   1.265  0.00  0.00    -0.094 C 
ATOM     17  N   UNL     1      -0.812   1.464   1.180  0.00  0.00    +0.389 N 
ATOM     18  H   UNL     1      -1.109   2.520   1.091  0.00  0.00    -0.080 HD
BRANCH  17  19
ATOM     19  C   UNL     1      -0.032   1.113  -0.015  0.00  0.00    -0.070 C 
BRANCH  19  20
ATOM     20  C   UNL     1      -0.432   2.030  -1.173  0.00  0.00    -0.043 C 
ATOM     21  C   UNL     1       0.359   1.644  -2.425  0.00  0.00    +0.008 C 
ATOM     22  C   UNL     1      -0.041   2.561  -3.583  0.00  0.00    -0.010 C 
ATOM     23  C   UNL     1       0.266   4.013  -3.212  0.00  0.00    +0.007 C 
ATOM     24  C   UNL     1      -0.525   4.399  -1.961  0.00  0.00    -0.010 C 
ATOM     25  C   UNL     1      -0.125   3.482  -0.803  0.00  0.00    +0.008 C 
ATOM     26  C   UNL     1      -2.022   4.248  -2.237  0.00  0.00    +0.007 C 
ATOM     27  C   UNL     1      -2.329   2.796  -2.607  0.00  0.00    -0.010 C 
ATOM     28  C   UNL     1      -1.538   2.410  -3.859  0.00  0.00    +0.007 C 
ATOM     29  C   UNL     1      -1.929   1.879  -1.449  0.00  0.00    +0.008 C 
ENDBRANCH  19  20
ENDBRANCH  17  19
ENDBRANCH   1  17
TORSDOF 4
