REMARK  Name = ZINC23451211
REMARK  9 active torsions:
REMARK  status: ('A' for Active; 'I' for Inactive)
REMARK    1  A    between atoms: C_1  and  C_2
REMARK    2  A    between atoms: C_6  and  C_8
REMARK    3  A    between atoms: C_8  and  O_9
REMARK    4  A    between atoms: O_9  and  C_10
REMARK    5  A    between atoms: C_10  and  C_12
REMARK    6  A    between atoms: C_10  and  C_30
REMARK    7  A    between atoms: C_12  and  N_13
REMARK    8  A    between atoms: N_16  and  S_19
REMARK    9  A    between atoms: S_19  and  C_22
REMARK                            x       y       z     vdW  Elec       q    Type
REMARK                         _______ _______ _______ _____ _____    ______ ____
ROOT
ATOM      1  C   UNL     1      -0.849   7.661  -2.698  0.00  0.00    -0.042 C 
ENDROOT
BRANCH   1   2
ATOM      2  N   UNL     1      -2.227   7.154  -2.648  0.00  0.00    +0.383 N 
ATOM      3  C   UNL     1      -2.821   7.110  -3.991  0.00  0.00    -0.061 C 
ATOM      4  C   UNL     1      -4.182   6.410  -3.922  0.00  0.00    +0.091 C 
ATOM      5  N   UNL     1      -5.001   7.082  -2.902  0.00  0.00    -0.180 NA
ATOM      6  C   UNL     1      -4.420   7.286  -1.566  0.00  0.00    +0.091 C 
ATOM      7  C   UNL     1      -3.049   7.951  -1.728  0.00  0.00    -0.061 C 
ATOM      8  H   UNL     1      -2.197   6.124  -2.263  0.00  0.00    -0.082 HD
BRANCH   5   9
ATOM      9  S   UNL     1      -6.537   7.596  -3.248  0.00  0.00    +0.063 S 
ATOM     10  O   UNL     1      -6.996   6.803  -4.334  0.00  0.00    -0.153 OA
ATOM     11  O   UNL     1      -7.230   7.667  -2.010  0.00  0.00    -0.153 OA
BRANCH   9  12
ATOM     12  C   UNL     1      -6.410   9.248  -3.849  0.00  0.00    +0.141 A 
ATOM     13  C   UNL     1      -6.761   9.537  -5.155  0.00  0.00    +0.034 A 
ATOM     14  C   UNL     1      -6.663  10.831  -5.627  0.00  0.00    +0.040 A 
ATOM     15  C   UNL     1      -6.213  11.841  -4.793  0.00  0.00    +0.126 A 
ATOM     16  C   UNL     1      -5.861  11.553  -3.486  0.00  0.00    +0.078 A 
ATOM     17  C   UNL     1      -5.965  10.257  -3.012  0.00  0.00    +0.152 A 
ATOM     18  F   UNL     1      -5.627   9.975  -1.735  0.00  0.00    -0.203 F 
ATOM     19  F   UNL     1      -6.117  13.107  -5.256  0.00  0.00    -0.205 F 
ENDBRANCH   9  12
ENDBRANCH   5   9
ENDBRANCH   1   2
BRANCH   1  20
ATOM     20  C   UNL     1      -0.104   7.236  -1.431  0.00  0.00    +0.132 C 
BRANCH  20  21
ATOM     21  C   UNL     1       1.306   7.767  -1.476  0.00  0.00    -0.021 A 
ATOM     22  C   UNL     1       2.269   7.107  -2.216  0.00  0.00    +0.007 A 
ATOM     23  C   UNL     1       3.561   7.597  -2.262  0.00  0.00    +0.020 A 
ATOM     24  C   UNL     1       3.892   8.741  -1.558  0.00  0.00    +0.041 A 
ATOM     25  C   UNL     1       2.929   9.398  -0.813  0.00  0.00    +0.020 A 
ATOM     26  C   UNL     1       1.636   8.910  -0.772  0.00  0.00    +0.007 A 
ATOM     27 CL   UNL     1       5.516   9.353  -1.611  0.00  0.00    -0.084 Cl
ENDBRANCH  20  21
BRANCH  20  28
ATOM     28  O   UNL     1      -0.073   5.810  -1.352  0.00  0.00    -0.369 OA
BRANCH  28  29
ATOM     29  C   UNL     1      -0.047   5.302  -0.016  0.00  0.00    +0.195 C 
BRANCH  29  35
ATOM     30  C   UNL     1      -2.460   0.919  -0.101  0.00  0.00    +0.044 C 
ATOM     31  C   UNL     1      -1.171   1.699  -0.092  0.00  0.00    -0.050 A 
ATOM     32  C   UNL     1       0.041   1.033  -0.117  0.00  0.00    +0.003 A 
ATOM     33  C   UNL     1       1.223   1.748  -0.115  0.00  0.00    +0.001 A 
ATOM     34  C   UNL     1       1.195   3.130  -0.082  0.00  0.00    +0.006 A 
ATOM     35  C   UNL     1      -0.016   3.796  -0.051  0.00  0.00    -0.022 A 
ATOM     36  C   UNL     1      -1.199   3.080  -0.054  0.00  0.00    +0.009 A 
ENDBRANCH  29  35
ENDBRANCH  28  29
ENDBRANCH  20  28
ENDBRANCH   1  20
TORSDOF 8
