REMARK  Name = ZINC39530452
REMARK  8 active torsions:
REMARK  status: ('A' for Active; 'I' for Inactive)
REMARK    1  A    between atoms: C_1  and  S_2
REMARK    2  A    between atoms: S_2  and  C_3
REMARK    3  A    between atoms: C_6  and  N_19
REMARK    4  A    between atoms: C_7  and  S_9
REMARK    5  A    between atoms: S_9  and  O_12
REMARK    6  A    between atoms: O_12  and  C_13
REMARK    7  A    between atoms: C_23  and  C_26
REMARK    8  A    between atoms: C_26  and  C_27
REMARK                            x       y       z     vdW  Elec       q    Type
REMARK                         _______ _______ _______ _____ _____    ______ ____
ROOT
ATOM      1  C   UNL     1      -1.916  -0.468   0.407  0.00  0.00    +0.010 A 
ATOM      2  C   UNL     1      -2.804   0.344  -0.288  0.00  0.00    +0.016 A 
ATOM      3  C   UNL     1      -4.024  -0.158  -0.696  0.00  0.00    +0.026 A 
ATOM      4  C   UNL     1      -4.364  -1.474  -0.410  0.00  0.00    +0.058 A 
ATOM      5  C   UNL     1      -3.477  -2.285   0.285  0.00  0.00    +0.150 A 
ATOM      6  C   UNL     1      -2.254  -1.786   0.688  0.00  0.00    +0.047 A 
ENDROOT
BRANCH   4   7
ATOM      7  N   UNL     1      -5.601  -1.982  -0.822  0.00  0.00    -0.332 N 
ATOM      8  C   UNL     1      -6.704  -2.158   0.136  0.00  0.00    +0.086 C 
ATOM      9  C   UNL     1      -7.252  -3.581  -0.010  0.00  0.00    -0.063 C 
ATOM     10  N   UNL     1      -7.622  -3.821  -1.411  0.00  0.00    +0.383 N 
ATOM     11  C   UNL     1      -6.425  -3.770  -2.260  0.00  0.00    -0.050 C 
ATOM     12  C   UNL     1      -5.838  -2.351  -2.227  0.00  0.00    +0.089 C 
ATOM     13  H   UNL     1      -8.052  -4.730  -1.493  0.00  0.00    -0.085 HD
ATOM     14  H   UNL     1      -8.276  -3.114  -1.711  0.00  0.00    -0.085 HD
BRANCH  11  15
ATOM     15  C   UNL     1      -6.804  -4.130  -3.698  0.00  0.00    +0.021 C 
BRANCH  15  16
ATOM     16  C   UNL     1      -7.269  -5.562  -3.751  0.00  0.00    -0.049 A 
ATOM     17  C   UNL     1      -6.358  -6.577  -3.976  0.00  0.00    +0.003 A 
ATOM     18  C   UNL     1      -6.785  -7.891  -4.025  0.00  0.00    +0.000 A 
ATOM     19  C   UNL     1      -8.123  -8.190  -3.848  0.00  0.00    +0.000 A 
ATOM     20  C   UNL     1      -9.034  -7.176  -3.622  0.00  0.00    +0.000 A 
ATOM     21  C   UNL     1      -8.606  -5.862  -3.569  0.00  0.00    +0.003 A 
ENDBRANCH  15  16
ENDBRANCH  11  15
ENDBRANCH   4   7
BRANCH   5  22
ATOM     22  S   UNL     1      -3.909  -3.955   0.648  0.00  0.00    +0.153 S 
ATOM     23  O   UNL     1      -4.382  -4.524  -0.565  0.00  0.00    -0.131 OA
ATOM     24  O   UNL     1      -2.820  -4.507   1.375  0.00  0.00    -0.131 OA
BRANCH  22  25
ATOM     25  O   UNL     1      -5.094  -3.916   1.602  0.00  0.00    -0.342 OA
BRANCH  25  26
ATOM     26  C   UNL     1      -4.762  -3.608   2.884  0.00  0.00    +0.157 A 
ATOM     27  C   UNL     1      -4.420  -4.616   3.773  0.00  0.00    +0.048 A 
ATOM     28  C   UNL     1      -4.083  -4.301   5.075  0.00  0.00    +0.004 A 
ATOM     29  C   UNL     1      -4.086  -2.983   5.492  0.00  0.00    +0.000 A 
ATOM     30  C   UNL     1      -4.427  -1.977   4.607  0.00  0.00    +0.004 A 
ATOM     31  C   UNL     1      -4.759  -2.286   3.303  0.00  0.00    +0.048 A 
ENDBRANCH  25  26
ENDBRANCH  22  25
ENDBRANCH   5  22
BRANCH   1  33
ATOM     32  C   UNL     1      -0.375   1.891   0.347  0.00  0.00    +0.090 C 
ATOM     33  S   UNL     1      -0.359   0.172   0.927  0.00  0.00    -0.129 S 
ENDBRANCH   1  33
TORSDOF 7
