REMARK  Name = ZINC55564233
REMARK  8 active torsions:
REMARK  status: ('A' for Active; 'I' for Inactive)
REMARK    1  A    between atoms: C_1  and  C_2
REMARK    2  A    between atoms: C_5  and  C_8
REMARK    3  A    between atoms: C_9  and  S_10
REMARK    4  A    between atoms: S_10  and  N_13
REMARK    5  A    between atoms: N_13  and  C_14
REMARK    6  A    between atoms: C_17  and  C_20
REMARK    7  A    between atoms: N_22  and  C_23
REMARK    8  A    between atoms: C_23  and  C_24
REMARK                            x       y       z     vdW  Elec       q    Type
REMARK                         _______ _______ _______ _____ _____    ______ ____
ROOT
ATOM      1  C   UNL     1      -1.365  -4.106   4.800  0.00  0.00    +0.074 A 
ATOM      2  C   UNL     1      -0.541  -3.115   5.327  0.00  0.00    +0.027 A 
ATOM      3  C   UNL     1      -0.788  -2.608   6.582  0.00  0.00    +0.015 A 
ATOM      4  C   UNL     1      -1.868  -3.088   7.328  0.00  0.00    +0.037 A 
ATOM      5  C   UNL     1      -2.694  -4.083   6.796  0.00  0.00    +0.015 A 
ATOM      6  C   UNL     1      -2.445  -4.582   5.538  0.00  0.00    +0.027 A 
ENDROOT
BRANCH   4   7
ATOM      7  C   UNL     1      -2.135  -2.547   8.674  0.00  0.00    +0.245 C 
ATOM      8  O   UNL     1      -1.416  -1.682   9.136  0.00  0.00    -0.270 OA
ATOM      9  N   UNL     1      -3.177  -3.011   9.392  0.00  0.00    -0.301 N 
ATOM     10  H   UNL     1      -3.751  -3.701   9.024  0.00  0.00    +0.150 HD
BRANCH   9  11
ATOM     11  C   UNL     1      -3.442  -2.474  10.729  0.00  0.00    +0.229 C 
BRANCH  11  12
ATOM     12  C   UNL     1      -4.653  -3.156  11.313  0.00  0.00    +0.373 C 
ATOM     13  O   UNL     1      -5.239  -4.011  10.672  0.00  0.00    -0.245 OA
ATOM     14  O   UNL     1      -5.046  -2.852  12.427  0.00  0.00    -0.245 OA
ENDBRANCH  11  12
ENDBRANCH   9  11
ENDBRANCH   4   7
BRANCH   1  15
ATOM     15  N   UNL     1      -1.113  -4.617   3.531  0.00  0.00    -0.098 NA
BRANCH  15  16
ATOM     16  S   UNL     1       0.171  -4.051   2.652  0.00  0.00    +0.085 S 
ATOM     17  O   UNL     1       1.346  -4.449   3.346  0.00  0.00    -0.149 OA
ATOM     18  O   UNL     1      -0.111  -2.692   2.349  0.00  0.00    -0.149 OA
BRANCH  16  20
ATOM     19  C   UNL     1       0.017  -4.255  -0.019  0.00  0.00    +0.028 C 
ATOM     20  C   UNL     1       0.174  -4.918   1.118  0.00  0.00    +0.159 C 
BRANCH  19  25
ATOM     21  C   UNL     1       0.794   1.444  -0.156  0.00  0.00    +0.044 C 
ATOM     22  C   UNL     1       0.591  -0.048  -0.120  0.00  0.00    -0.050 A 
ATOM     23  C   UNL     1      -0.490  -0.612  -0.775  0.00  0.00    +0.004 A 
ATOM     24  C   UNL     1      -0.682  -1.978  -0.746  0.00  0.00    +0.008 A 
ATOM     25  C   UNL     1       0.217  -2.791  -0.054  0.00  0.00    -0.024 A 
ATOM     26  C   UNL     1       1.304  -2.216   0.604  0.00  0.00    +0.008 A 
ATOM     27  C   UNL     1       1.488  -0.850   0.563  0.00  0.00    +0.004 A 
ENDBRANCH  19  25
ENDBRANCH  16  20
ENDBRANCH  15  16
ENDBRANCH   1  15
TORSDOF 7
