REMARK  Name = ZINC08709600
REMARK  10 active torsions:
REMARK  status: ('A' for Active; 'I' for Inactive)
REMARK    1  A    between atoms: C_1  and  C_2
REMARK    2  A    between atoms: C_2  and  N_3
REMARK    3  A    between atoms: N_3  and  C_4
REMARK    4  A    between atoms: N_3  and  S_6
REMARK    5  A    between atoms: C_4  and  C_5
REMARK    6  A    between atoms: S_6  and  C_9
REMARK    7  A    between atoms: C_13  and  N_15
REMARK    8  A    between atoms: C_16  and  C_18
REMARK    9  A    between atoms: C_18  and  N_59
REMARK   10  A    between atoms: C_26  and  C_28
REMARK                            x       y       z     vdW  Elec       q    Type
REMARK                         _______ _______ _______ _____ _____    ______ ____
ROOT
ATOM      1  N   UNL     1       0.135   1.472   0.073  0.00  0.00    -0.287 N 
ATOM      2  C   UNL     1       0.193   0.126   0.049  0.00  0.00    +0.201 C 
ATOM      3  O   UNL     1      -0.823  -0.527   0.162  0.00  0.00    -0.278 OA
ATOM      4  H   UNL     1       0.953   1.993   0.051  0.00  0.00    +0.155 HD
ENDROOT
BRANCH   1   9
ATOM      5  C   UNL     1      -3.376   2.198   0.890  0.00  0.00    +0.107 A 
ATOM      6  C   UNL     1      -3.557   3.397   0.225  0.00  0.00    +0.028 A 
ATOM      7  C   UNL     1      -2.515   3.958  -0.490  0.00  0.00    +0.004 A 
ATOM      8  C   UNL     1      -1.288   3.325  -0.539  0.00  0.00    +0.023 A 
ATOM      9  C   UNL     1      -1.105   2.118   0.123  0.00  0.00    +0.035 A 
ATOM     10  C   UNL     1      -2.154   1.557   0.841  0.00  0.00    +0.051 A 
BRANCH   5  11
ATOM     11  S   UNL     1      -4.706   1.487   1.800  0.00  0.00    +0.061 S 
ATOM     12  O   UNL     1      -5.905   2.006   1.240  0.00  0.00    -0.153 OA
ATOM     13  O   UNL     1      -4.444   0.092   1.881  0.00  0.00    -0.153 OA
BRANCH  11  14
ATOM     14  N   UNL     1      -4.612   2.076   3.345  0.00  0.00    -0.177 NA
BRANCH  14  16
ATOM     15  C   UNL     1      -6.678   2.966   4.306  0.00  0.00    +0.022 C 
ATOM     16  C   UNL     1      -5.315   3.311   3.702  0.00  0.00    +0.106 C 
ENDBRANCH  14  16
BRANCH  14  17
ATOM     17  C   UNL     1      -3.827   1.362   4.355  0.00  0.00    +0.106 C 
ATOM     18  C   UNL     1      -2.423   1.966   4.429  0.00  0.00    +0.022 C 
ENDBRANCH  14  17
ENDBRANCH  11  14
ENDBRANCH   5  11
ENDBRANCH   1   9
BRANCH   2  19
ATOM     19  C   UNL     1       1.520  -0.569  -0.119  0.00  0.00    +0.020 C 
BRANCH  19  28
ATOM     20  C   UNL     1       0.545  -2.452  -1.289  0.00  0.00    -0.072 C 
ATOM     21  C   UNL     1       0.009  -3.872  -1.040  0.00  0.00    +0.024 C 
ATOM     22  C   UNL     1       1.133  -4.696  -0.504  0.00  0.00    -0.010 A 
ATOM     23  C   UNL     1       2.323  -4.236  -0.025  0.00  0.00    -0.051 A 
ATOM     24  C   UNL     1       3.226  -5.196   0.424  0.00  0.00    +0.010 A 
ATOM     25  C   UNL     1       2.901  -6.509   0.371  0.00  0.00    +0.045 A 
ATOM     26  S   UNL     1       1.260  -6.454  -0.334  0.00  0.00    -0.101 S 
ATOM     27  C   UNL     1       2.595  -2.734  -0.002  0.00  0.00    -0.033 C 
ATOM     28  N   UNL     1       1.295  -2.027  -0.083  0.00  0.00    +0.390 N 
ATOM     29  H   UNL     1       0.741  -2.259   0.750  0.00  0.00    -0.080 HD
BRANCH  27  30
ATOM     30  C   UNL     1       3.280  -2.357   1.313  0.00  0.00    -0.020 C 
ATOM     31  C   UNL     1       4.468  -1.394   1.240  0.00  0.00    +0.002 C 
ATOM     32  C   UNL     1       4.700  -2.876   1.544  0.00  0.00    +0.002 C 
ENDBRANCH  27  30
ENDBRANCH  19  28
ENDBRANCH   2  19
TORSDOF 8
