REMARK  Name = ZINC14791567
REMARK  10 active torsions:
REMARK  status: ('A' for Active; 'I' for Inactive)
REMARK    1  A    between atoms: C_1  and  O_2
REMARK    2  A    between atoms: O_2  and  C_3
REMARK    3  A    between atoms: C_6  and  O_32
REMARK    4  A    between atoms: C_7  and  C_9
REMARK    5  A    between atoms: C_15  and  C_17
REMARK    6  A    between atoms: C_17  and  S_18
REMARK    7  A    between atoms: S_18  and  C_19
REMARK    8  A    between atoms: C_22  and  C_28
REMARK    9  A    between atoms: C_24  and  N_25
REMARK   10  A    between atoms: O_32  and  C_33
REMARK                            x       y       z     vdW  Elec       q    Type
REMARK                         _______ _______ _______ _____ _____    ______ ____
ROOT
ATOM      1  C   UNL     1       1.330  -4.086  -2.296  0.00  0.00    +0.084 A 
ATOM      2  C   UNL     1       0.771  -4.853  -1.312  0.00  0.00    +0.077 A 
ATOM      3  S   UNL     1       1.131  -6.493  -1.927  0.00  0.00    -0.060 S 
ATOM      4  C   UNL     1       1.982  -5.991  -3.417  0.00  0.00    +0.165 A 
ATOM      5  N   UNL     1       1.918  -4.676  -3.326  0.00  0.00    -0.224 NA
ATOM      6  N   UNL     1       2.555  -6.777  -4.409  0.00  0.00    -0.264 N 
ATOM      7  C   UNL     1       2.508  -8.121  -4.316  0.00  0.00    +0.229 C 
ATOM      8  O   UNL     1       1.966  -8.644  -3.366  0.00  0.00    -0.275 OA
ATOM      9  H   UNL     1       2.989  -6.359  -5.169  0.00  0.00    +0.157 HD
ENDROOT
BRANCH   1  14
ATOM     10  C   UNL     1       0.606  -0.608  -1.056  0.00  0.00    +0.121 A 
ATOM     11  C   UNL     1       1.173   0.163  -2.062  0.00  0.00    +0.049 A 
ATOM     12  C   UNL     1       1.788  -0.444  -3.141  0.00  0.00    +0.050 A 
ATOM     13  C   UNL     1       1.843  -1.825  -3.223  0.00  0.00    +0.129 A 
ATOM     14  C   UNL     1       1.275  -2.606  -2.213  0.00  0.00    +0.046 A 
ATOM     15  C   UNL     1       0.660  -1.989  -1.126  0.00  0.00    +0.059 A 
BRANCH  10  17
ATOM     16  C   UNL     1      -0.017   1.425   0.010  0.00  0.00    +0.277 C 
ATOM     17  O   UNL     1       0.002  -0.004   0.002  0.00  0.00    -0.495 OA
ENDBRANCH  10  17
BRANCH  13  18
ATOM     18  O   UNL     1       2.449  -2.421  -4.285  0.00  0.00    -0.494 OA
ATOM     19  C   UNL     1       3.008  -1.560  -5.280  0.00  0.00    +0.277 C 
ENDBRANCH  13  18
ENDBRANCH   1  14
BRANCH   7  20
ATOM     20  C   UNL     1       3.129  -8.973  -5.393  0.00  0.00    +0.170 C 
BRANCH  20  21
ATOM     21  S   UNL     1       2.902 -10.726  -4.983  0.00  0.00    -0.114 S 
BRANCH  21  22
ATOM     22  C   UNL     1       3.672 -11.579  -6.319  0.00  0.00    +0.039 A 
ATOM     23  C   UNL     1       4.267 -10.864  -7.351  0.00  0.00    +0.017 A 
ATOM     24  C   UNL     1       4.870 -11.536  -8.396  0.00  0.00    +0.013 A 
ATOM     25  C   UNL     1       4.880 -12.919  -8.416  0.00  0.00    +0.057 A 
ATOM     26  C   UNL     1       4.289 -13.633  -7.391  0.00  0.00    +0.046 A 
ATOM     27  C   UNL     1       3.691 -12.968  -6.339  0.00  0.00    +0.140 A 
BRANCH  25  28
ATOM     28  C   UNL     1       5.538 -13.649  -9.559  0.00  0.00    +0.417 C 
ATOM     29  F   UNL     1       6.061 -12.720 -10.466  0.00  0.00    -0.166 F 
ATOM     30  F   UNL     1       6.572 -14.452  -9.066  0.00  0.00    -0.166 F 
ATOM     31  F   UNL     1       4.592 -14.451 -10.206  0.00  0.00    -0.166 F 
ENDBRANCH  25  28
BRANCH  27  32
ATOM     32  N   UNL     1       3.063 -13.734  -5.239  0.00  0.00    +0.058 N 
ATOM     33  O   UNL     1       3.080 -14.942  -5.258  0.00  0.00    -0.126 OA
ATOM     34  O   UNL     1       2.535 -13.150  -4.321  0.00  0.00    -0.126 OA
ENDBRANCH  27  32
ENDBRANCH  21  22
ENDBRANCH  20  21
ENDBRANCH   7  20
TORSDOF 8
