REMARK  Name = ZINC11789250
REMARK  11 active torsions:
REMARK  status: ('A' for Active; 'I' for Inactive)
REMARK    1  A    between atoms: C_1  and  C_2
REMARK    2  A    between atoms: C_2  and  C_3
REMARK    3  A    between atoms: C_3  and  C_4
REMARK    4  A    between atoms: C_4  and  C_18
REMARK    5  A    between atoms: N_7  and  C_11
REMARK    6  A    between atoms: C_11  and  C_12
REMARK    7  A    between atoms: C_23  and  C_24
REMARK    8  A    between atoms: C_23  and  N_73
REMARK    9  A    between atoms: C_29  and  C_30
REMARK   10  A    between atoms: C_33  and  O_36
REMARK   11  A    between atoms: O_36  and  C_37
REMARK                            x       y       z     vdW  Elec       q    Type
REMARK                         _______ _______ _______ _____ _____    ______ ____
ROOT
ATOM      1  C   UNL     1       4.268   1.801  -3.926  0.00  0.00    +0.018 C 
ATOM      2  C   UNL     1       4.730   0.784  -2.879  0.00  0.00    -0.013 C 
ATOM      3  C   UNL     1       4.385   1.304  -1.482  0.00  0.00    -0.078 C 
ATOM      4  C   UNL     1       2.475   2.521  -2.345  0.00  0.00    -0.078 C 
ATOM      5  C   UNL     1       2.763   2.037  -3.768  0.00  0.00    -0.013 C 
ATOM      6  N   UNL     1       2.921   1.488  -1.387  0.00  0.00    +0.382 N 
ATOM      7  H   UNL     1       2.458   0.600  -1.616  0.00  0.00    -0.081 HD
ENDROOT
BRANCH   1   8
ATOM      8  C   UNL     1       4.556   1.259  -5.327  0.00  0.00    +0.115 C 
ATOM      9  C   UNL     1       6.030   0.943  -5.485  0.00  0.00    +0.247 C 
ATOM     10  O   UNL     1       6.958   1.720  -5.405  0.00  0.00    -0.273 OA
ATOM     11  N   UNL     1       6.095  -0.380  -5.733  0.00  0.00    -0.222 N 
ATOM     12  C   UNL     1       4.879  -0.938  -5.754  0.00  0.00    +0.309 C 
ATOM     13  O   UNL     1       4.682  -2.120  -5.958  0.00  0.00    -0.252 OA
ATOM     14  N   UNL     1       3.896  -0.043  -5.525  0.00  0.00    -0.285 N 
ATOM     15  H   UNL     1       2.943  -0.221  -5.494  0.00  0.00    +0.151 HD
BRANCH   8  16
ATOM     16  C   UNL     1       4.103   2.259  -6.393  0.00  0.00    +0.035 C 
BRANCH  16  18
ATOM     17  C   UNL     1       3.833   2.642  -8.847  0.00  0.00    +0.004 C 
ATOM     18  C   UNL     1       4.286   1.643  -7.782  0.00  0.00    -0.001 C 
ENDBRANCH  16  18
ENDBRANCH   8  16
BRANCH  11  19
ATOM     19  C   UNL     1       7.343  -1.116  -5.952  0.00  0.00    +0.149 C 
BRANCH  19  20
ATOM     20  C   UNL     1       7.871  -1.633  -4.612  0.00  0.00    +0.136 C 
ATOM     21  C   UNL     1       9.188  -2.402  -4.831  0.00  0.00    +0.035 C 
ATOM     22  C   UNL     1      10.219  -1.646  -3.957  0.00  0.00    +0.031 C 
ATOM     23  C   UNL     1       9.307  -0.905  -2.947  0.00  0.00    +0.160 C 
ATOM     24  O   UNL     1       8.159  -0.526  -3.740  0.00  0.00    -0.375 OA
ENDBRANCH  19  20
ENDBRANCH  11  19
ENDBRANCH   1   8
BRANCH   6  25
ATOM     25  C   UNL     1       2.550   1.881  -0.011  0.00  0.00    -0.039 C 
BRANCH  25  26
ATOM     26  C   UNL     1       1.109   2.324   0.004  0.00  0.00    -0.019 A 
ATOM     27  C   UNL     1       0.670   3.601   0.014  0.00  0.00    +0.107 A 
ATOM     28  N   UNL     1      -0.680   3.578   0.026  0.00  0.00    -0.284 N 
ATOM     29  H   UNL     1      -1.280   4.378   0.039  0.00  0.00    +0.188 HD
ATOM     30  N   UNL     1      -1.093   2.240   0.019  0.00  0.00    -0.174 NA
ATOM     31  C   UNL     1      -0.018   1.480   0.010  0.00  0.00    +0.094 A 
BRANCH  31  32
ATOM     32  C   UNL     1       0.002  -0.004   0.002  0.00  0.00    +0.003 A 
ATOM     33  C   UNL     1       0.989  -0.685  -0.708  0.00  0.00    +0.013 A 
ATOM     34  C   UNL     1       1.008  -2.064  -0.710  0.00  0.00    +0.046 A 
ATOM     35  C   UNL     1       0.039  -2.774  -0.014  0.00  0.00    +0.120 A 
ATOM     36  C   UNL     1      -0.949  -2.098   0.690  0.00  0.00    +0.046 A 
ATOM     37  C   UNL     1      -0.970  -0.719   0.699  0.00  0.00    +0.013 A 
BRANCH  35  38
ATOM     38  O   UNL     1       0.057  -4.133  -0.023  0.00  0.00    -0.495 OA
ATOM     39  C   UNL     1       1.101  -4.763  -0.767  0.00  0.00    +0.277 C 
ENDBRANCH  35  38
ENDBRANCH  31  32
ENDBRANCH  25  26
ENDBRANCH   6  25
TORSDOF 9
