REMARK  Name = ZINC20911894
REMARK  14 active torsions:
REMARK  status: ('A' for Active; 'I' for Inactive)
REMARK    1  A    between atoms: C_1  and  C_2
REMARK    2  A    between atoms: C_3  and  C_11
REMARK    3  A    between atoms: C_4  and  C_10
REMARK    4  A    between atoms: N_5  and  C_7
REMARK    5  A    between atoms: C_7  and  C_8
REMARK    6  A    between atoms: C_7  and  C_9
REMARK    7  A    between atoms: N_12  and  N_13
REMARK    8  A    between atoms: C_17  and  S_20
REMARK    9  A    between atoms: N_18  and  N_19
REMARK   10  A    between atoms: S_20  and  C_21
REMARK   11  A    between atoms: C_21  and  C_22
REMARK   12  A    between atoms: C_22  and  C_23
REMARK   13  A    between atoms: N_25  and  C_26
REMARK   14  A    between atoms: C_30  and  N_32
REMARK                            x       y       z     vdW  Elec       q    Type
REMARK                         _______ _______ _______ _____ _____    ______ ____
ROOT
ATOM      1  N   UNL     1      -1.065   2.172   1.015  0.00  0.00    -0.204 N 
ATOM      2  C   UNL     1       0.058   1.368   0.880  0.00  0.00    +0.254 A 
ATOM      3  N   UNL     1       1.305   1.772   0.921  0.00  0.00    -0.109 NA
ATOM      4  N   UNL     1       2.128   0.654   0.738  0.00  0.00    -0.119 NA
ATOM      5  C   UNL     1       1.358  -0.397   0.592  0.00  0.00    +0.210 A 
ATOM      6  N   UNL     1       0.059   0.016   0.676  0.00  0.00    -0.211 N 
ATOM      7  H   UNL     1      -2.069   1.727   0.960  0.00  0.00    +0.177 HD
ENDROOT
BRANCH   6   8
ATOM      8  N   UNL     1      -1.046  -0.781   0.574  0.00  0.00    -0.294 N 
ATOM      9  H   UNL     1      -0.930  -1.863   0.409  0.00  0.00    +0.163 HD
ATOM     10  H   UNL     1      -2.051  -0.342   0.657  0.00  0.00    +0.163 HD
ENDBRANCH   6   8
BRANCH   1  12
ATOM     11  C   UNL     1      -1.969   4.301   1.347  0.00  0.00    +0.141 C 
ATOM     12  N   UNL     1      -0.919   3.550   1.221  0.00  0.00    -0.187 NA
BRANCH  11  15
ATOM     13  C   UNL     1       0.782   5.866   1.551  0.00  0.00    +0.068 C 
ATOM     14  C   UNL     1      -0.598   6.462   1.657  0.00  0.00    +0.069 A 
ATOM     15  C   UNL     1      -1.816   5.753   1.565  0.00  0.00    +0.038 A 
ATOM     16  C   UNL     1      -2.834   6.670   1.710  0.00  0.00    +0.045 A 
ATOM     17  N   UNL     1      -2.266   7.879   1.890  0.00  0.00    -0.265 N 
ATOM     18  N   UNL     1      -0.876   7.723   1.850  0.00  0.00    -0.175 NA
ATOM     19  C   UNL     1      -4.312   6.375   1.676  0.00  0.00    +0.066 C 
BRANCH  17  20
ATOM     20  C   UNL     1      -2.981   9.142   2.089  0.00  0.00    +0.101 C 
ATOM     21  C   UNL     1      -2.586   9.746   3.438  0.00  0.00    +0.032 C 
ATOM     22  C   UNL     1      -2.616  10.117   0.967  0.00  0.00    +0.032 C 
ENDBRANCH  17  20
ENDBRANCH  11  15
ENDBRANCH   1  12
BRANCH   5  23
ATOM     23  S   UNL     1       1.904  -2.053   0.333  0.00  0.00    -0.084 S 
BRANCH  23  24
ATOM     24  C   UNL     1       3.713  -1.922   0.323  0.00  0.00    +0.086 C 
BRANCH  24  25
ATOM     25  C   UNL     1       4.323  -3.308   0.103  0.00  0.00    +0.107 C 
BRANCH  25  26
ATOM     26  C   UNL     1       5.826  -3.200   0.095  0.00  0.00    +0.218 C 
ATOM     27  O   UNL     1       6.357  -2.120   0.249  0.00  0.00    -0.275 OA
ATOM     28  N   UNL     1       6.580  -4.302  -0.084  0.00  0.00    -0.285 N 
ATOM     29  H   UNL     1       6.104  -5.292  -0.137  0.00  0.00    +0.155 HD
BRANCH  28  30
ATOM     30  C   UNL     1       7.970  -4.188  -0.202  0.00  0.00    +0.036 A 
ATOM     31  C   UNL     1       8.527  -3.071  -0.813  0.00  0.00    +0.023 A 
ATOM     32  C   UNL     1       9.899  -2.959  -0.923  0.00  0.00    +0.004 A 
ATOM     33  C   UNL     1      10.717  -3.961  -0.436  0.00  0.00    +0.033 A 
ATOM     34  C   UNL     1      10.166  -5.076   0.167  0.00  0.00    +0.128 A 
ATOM     35  C   UNL     1       8.795  -5.192   0.285  0.00  0.00    +0.056 A 
BRANCH  34  36
ATOM     36  N   UNL     1      11.046  -6.147   0.686  0.00  0.00    +0.056 N 
ATOM     37  O   UNL     1      10.561  -7.130   1.217  0.00  0.00    -0.126 OA
ATOM     38  O   UNL     1      12.255  -6.046   0.582  0.00  0.00    -0.126 OA
ENDBRANCH  34  36
ENDBRANCH  28  30
ENDBRANCH  25  26
ENDBRANCH  24  25
ENDBRANCH  23  24
ENDBRANCH   5  23
TORSDOF 10
