REMARK  Name = ZINC38700539
REMARK  14 active torsions:
REMARK  status: ('A' for Active; 'I' for Inactive)
REMARK    1  A    between atoms: C_1  and  C_2
REMARK    2  A    between atoms: C_2  and  O_3
REMARK    3  A    between atoms: O_3  and  C_4
REMARK    4  A    between atoms: C_7  and  C_13
REMARK    5  A    between atoms: C_9  and  O_10
REMARK    6  A    between atoms: O_10  and  C_11
REMARK    7  A    between atoms: C_11  and  C_12
REMARK    8  A    between atoms: C_18  and  O_27
REMARK    9  A    between atoms: C_22  and  N_26
REMARK   10  A    between atoms: C_23  and  C_24
REMARK   11  A    between atoms: O_27  and  C_28
REMARK   12  A    between atoms: C_28  and  C_30
REMARK   13  A    between atoms: C_31  and  C_40
REMARK   14  A    between atoms: C_34  and  C_39
REMARK                            x       y       z     vdW  Elec       q    Type
REMARK                         _______ _______ _______ _____ _____    ______ ____
ROOT
ATOM      1  C   UNL     1       1.095  -6.106   1.750  0.00  0.00    +0.098 C 
ATOM      2  C   UNL     1       1.863  -6.663   0.580  0.00  0.00    +0.008 A 
ATOM      3  C   UNL     1       3.223  -6.427   0.484  0.00  0.00    +0.012 A 
ATOM      4  C   UNL     1       3.943  -6.931  -0.581  0.00  0.00    +0.047 A 
ATOM      5  C   UNL     1       3.302  -7.677  -1.561  0.00  0.00    +0.136 A 
ATOM      6  C   UNL     1       1.940  -7.915  -1.468  0.00  0.00    +0.093 A 
ATOM      7  C   UNL     1       1.218  -7.407  -0.396  0.00  0.00    +0.138 A 
ATOM      8  O   UNL     1      -0.115  -7.649  -0.319  0.00  0.00    -0.441 OA
ATOM      9  C   UNL     1      -0.752  -7.519   0.857  0.00  0.00    +0.199 C 
ATOM     10  C   UNL     1      -0.232  -6.801   1.875  0.00  0.00    +0.098 C 
ENDROOT
BRANCH   1  14
ATOM     11  C   UNL     1       0.448  -1.921   1.151  0.00  0.00    +0.162 A 
ATOM     12  C   UNL     1      -0.053  -2.840   0.242  0.00  0.00    +0.050 A 
ATOM     13  C   UNL     1       0.158  -4.192   0.439  0.00  0.00    +0.008 A 
ATOM     14  C   UNL     1       0.868  -4.631   1.540  0.00  0.00    -0.031 A 
ATOM     15  C   UNL     1       1.370  -3.720   2.451  0.00  0.00    +0.054 A 
ATOM     16  C   UNL     1       1.167  -2.363   2.257  0.00  0.00    +0.162 A 
BRANCH  11  17
ATOM     17  O   UNL     1       0.242  -0.591   0.960  0.00  0.00    -0.489 OA
BRANCH  17  19
ATOM     18  C   UNL     1      -0.634   1.314  -0.243  0.00  0.00    +0.048 C 
ATOM     19  C   UNL     1      -0.506  -0.210  -0.197  0.00  0.00    +0.226 C 
ENDBRANCH  17  19
ENDBRANCH  11  17
BRANCH  16  20
ATOM     20  O   UNL     1       1.666  -1.465   3.149  0.00  0.00    -0.489 OA
BRANCH  20  21
ATOM     21  C   UNL     1       2.394  -1.991   4.261  0.00  0.00    +0.226 C 
ATOM     22  C   UNL     1       2.872  -0.840   5.147  0.00  0.00    +0.048 C 
ENDBRANCH  20  21
ENDBRANCH  16  20
ENDBRANCH   1  14
BRANCH   9  23
ATOM     23  N   UNL     1      -1.968  -8.134   1.026  0.00  0.00    -0.328 N 
ATOM     24  H   UNL     1      -2.354  -8.652   0.303  0.00  0.00    +0.145 HD
ATOM     25  H   UNL     1      -2.441  -8.049   1.869  0.00  0.00    +0.145 HD
ENDBRANCH   9  23
BRANCH  10  26
ATOM     26  C   UNL     1      -0.963  -6.700   3.102  0.00  0.00    +0.101 C 
ATOM     27  N   UNL     1      -1.542  -6.621   4.076  0.00  0.00    -0.191 NA
ENDBRANCH  10  26
BRANCH   5  28
ATOM     28  O   UNL     1       4.009  -8.174  -2.610  0.00  0.00    -0.420 OA
BRANCH  28  29
ATOM     29  C   UNL     1       3.785  -7.646  -3.831  0.00  0.00    +0.380 C 
ATOM     30  O   UNL     1       3.050  -6.685  -3.952  0.00  0.00    -0.241 OA
BRANCH  29  31
ATOM     31  C   UNL     1       4.429  -8.232  -5.013  0.00  0.00    +0.216 A 
ATOM     32  C   UNL     1       4.282  -7.782  -6.287  0.00  0.00    +0.010 A 
ATOM     33  C   UNL     1       5.099  -8.661  -7.123  0.00  0.00    +0.024 A 
ATOM     34  C   UNL     1       5.369  -8.728  -8.492  0.00  0.00    +0.015 A 
ATOM     35  C   UNL     1       6.201  -9.700  -8.971  0.00  0.00    -0.050 A 
ATOM     36  C   UNL     1       6.780 -10.619  -8.107  0.00  0.00    +0.007 A 
ATOM     37  C   UNL     1       6.527 -10.570  -6.753  0.00  0.00    +0.047 A 
ATOM     38  C   UNL     1       5.683  -9.591  -6.242  0.00  0.00    +0.136 A 
ATOM     39  O   UNL     1       5.262  -9.294  -4.998  0.00  0.00    -0.448 OA
ATOM     40  C   UNL     1       6.493  -9.774 -10.448  0.00  0.00    +0.044 C 
ATOM     41  C   UNL     1       3.446  -6.615  -6.745  0.00  0.00    +0.048 C 
ENDBRANCH  29  31
ENDBRANCH  28  29
ENDBRANCH   5  28
TORSDOF 10
