REMARK  Name = ZINC24780022
REMARK  5 active torsions:
REMARK  status: ('A' for Active; 'I' for Inactive)
REMARK    1  A    between atoms: C_4  and  N_12
REMARK    2  A    between atoms: C_5  and  C_7
REMARK    3  A    between atoms: C_13  and  C_15
REMARK    4  A    between atoms: N_18  and  S_21
REMARK    5  A    between atoms: S_21  and  C_24
REMARK                            x       y       z     vdW  Elec       q    Type
REMARK                         _______ _______ _______ _____ _____    ______ ____
ROOT
ATOM      1  C   UNL     1       1.105   7.433   0.243  0.00  0.00    +0.078 C 
ATOM      2  C   UNL     1       0.418   8.036  -0.984  0.00  0.00    +0.030 C 
ATOM      3  C   UNL     1       0.373   9.560  -0.842  0.00  0.00    +0.110 C 
ATOM      4  N   UNL     1       1.738  10.054  -0.610  0.00  0.00    -0.177 NA
ATOM      5  C   UNL     1       2.521   9.475   0.490  0.00  0.00    +0.110 C 
ATOM      6  C   UNL     1       2.542   7.952   0.333  0.00  0.00    +0.030 C 
ENDROOT
BRANCH   1   8
ATOM      7  N   UNL     1      -0.040   5.250   0.029  0.00  0.00    -0.285 N 
ATOM      8  C   UNL     1       1.120   5.930   0.123  0.00  0.00    +0.220 C 
ATOM      9  O   UNL     1       2.176   5.334   0.110  0.00  0.00    -0.275 OA
ATOM     10  H   UNL     1      -0.993   5.795  -0.034  0.00  0.00    +0.155 HD
BRANCH   7  14
ATOM     11  C   UNL     1      -0.011   1.076  -0.024  0.00  0.00    +0.001 A 
ATOM     12  C   UNL     1       1.014   1.788  -0.623  0.00  0.00    +0.002 A 
ATOM     13  C   UNL     1       1.007   3.170  -0.606  0.00  0.00    +0.024 A 
ATOM     14  C   UNL     1      -0.030   3.852   0.012  0.00  0.00    +0.042 A 
ATOM     15  C   UNL     1      -1.070   3.134   0.619  0.00  0.00    +0.010 A 
ATOM     16  C   UNL     1      -1.053   1.740   0.590  0.00  0.00    +0.011 A 
BRANCH  15  17
ATOM     17  C   UNL     1      -2.180   3.850   1.280  0.00  0.00    +0.021 A 
ATOM     18  C   UNL     1      -3.530   3.677   1.130  0.00  0.00    +0.016 A 
ATOM     19  C   UNL     1      -4.386   4.471   1.862  0.00  0.00    +0.008 A 
ATOM     20  C   UNL     1      -3.867   5.398   2.708  0.00  0.00    +0.046 A 
ATOM     21  S   UNL     1      -2.111   5.162   2.490  0.00  0.00    -0.097 S 
ENDBRANCH  15  17
ENDBRANCH   7  14
ENDBRANCH   1   8
BRANCH   4  22
ATOM     22  S   UNL     1       2.381  11.240  -1.570  0.00  0.00    +0.061 S 
ATOM     23  O   UNL     1       1.284  11.957  -2.120  0.00  0.00    -0.153 OA
ATOM     24  O   UNL     1       3.399  11.873  -0.807  0.00  0.00    -0.153 OA
BRANCH  22  25
ATOM     25  C   UNL     1       3.186  10.440  -2.918  0.00  0.00    +0.106 A 
ATOM     26  C   UNL     1       2.485  10.166  -4.078  0.00  0.00    +0.029 A 
ATOM     27  C   UNL     1       3.118   9.539  -5.134  0.00  0.00    +0.006 A 
ATOM     28  C   UNL     1       4.453   9.183  -5.034  0.00  0.00    -0.044 A 
ATOM     29  C   UNL     1       5.153   9.457  -3.874  0.00  0.00    -0.042 A 
ATOM     30  C   UNL     1       4.518  10.091  -2.819  0.00  0.00    +0.032 A 
ATOM     31  C   UNL     1       6.581   8.975  -4.013  0.00  0.00    +0.036 C 
ATOM     32  C   UNL     1       6.795   8.776  -5.528  0.00  0.00    +0.009 C 
ATOM     33  C   UNL     1       5.363   8.499  -6.031  0.00  0.00    +0.036 C 
ENDBRANCH  22  25
ENDBRANCH   4  22
TORSDOF 5
