REMARK  Name = ZINC13942352
REMARK  4 active torsions:
REMARK  status: ('A' for Active; 'I' for Inactive)
REMARK    1  A    between atoms: C_1  and  C_2
REMARK    2  A    between atoms: C_5  and  C_8
REMARK    3  A    between atoms: C_9  and  C_18
REMARK    4  A    between atoms: N_28  and  C_29
REMARK                            x       y       z     vdW  Elec       q    Type
REMARK                         _______ _______ _______ _____ _____    ______ ____
ROOT
ATOM      1  C   UNL     1       0.002  -0.004   0.002  0.00  0.00    +0.053 A 
ATOM      2  C   UNL     1      -0.782  -0.793  -0.774  0.00  0.00    +0.010 A 
ATOM      3  C   UNL     1      -0.433  -2.178  -0.464  0.00  0.00    +0.006 A 
ATOM      4  C   UNL     1      -0.883  -3.417  -0.928  0.00  0.00    +0.010 A 
ATOM      5  C   UNL     1      -0.347  -4.567  -0.423  0.00  0.00    +0.001 A 
ATOM      6  C   UNL     1       0.643  -4.515   0.549  0.00  0.00    +0.002 A 
ATOM      7  C   UNL     1       1.103  -3.305   1.022  0.00  0.00    +0.026 A 
ATOM      8  C   UNL     1       0.571  -2.121   0.522  0.00  0.00    +0.047 A 
ATOM      9  N   UNL     1       0.815  -0.791   0.785  0.00  0.00    -0.354 N 
ATOM     10  H   UNL     1       1.463  -0.459   1.426  0.00  0.00    +0.166 HD
ENDROOT
BRANCH   2  11
ATOM     11  C   UNL     1      -1.814  -0.329  -1.770  0.00  0.00    +0.141 C 
ATOM     12  C   UNL     1      -3.201  -0.569  -1.228  0.00  0.00    -0.010 A 
ATOM     13  C   UNL     1      -3.871  -0.112  -0.116  0.00  0.00    +0.006 A 
ATOM     14  C   UNL     1      -5.173  -0.518   0.123  0.00  0.00    +0.000 A 
ATOM     15  C   UNL     1      -5.803  -1.383  -0.754  0.00  0.00    +0.001 A 
ATOM     16  C   UNL     1      -5.141  -1.848  -1.871  0.00  0.00    +0.013 A 
ATOM     17  C   UNL     1      -3.828  -1.442  -2.119  0.00  0.00    +0.042 A 
ATOM     18  C   UNL     1      -2.878  -1.758  -3.203  0.00  0.00    +0.248 C 
ATOM     19  O   UNL     1      -3.114  -2.494  -4.141  0.00  0.00    -0.270 OA
ATOM     20  N   UNL     1      -1.714  -1.116  -3.004  0.00  0.00    -0.283 N 
BRANCH  20  21
ATOM     21  C   UNL     1      -0.538  -1.191  -3.875  0.00  0.00    +0.077 C 
ATOM     22  C   UNL     1      -0.908  -0.692  -5.274  0.00  0.00    +0.022 C 
ATOM     23  C   UNL     1       0.319  -0.770  -6.184  0.00  0.00    +0.002 C 
ATOM     24  C   UNL     1       0.799  -2.220  -6.270  0.00  0.00    +0.000 C 
ATOM     25  C   UNL     1       1.169  -2.719  -4.872  0.00  0.00    +0.002 C 
ATOM     26  C   UNL     1      -0.058  -2.641  -3.961  0.00  0.00    +0.022 C 
ENDBRANCH  20  21
ENDBRANCH   2  11
BRANCH   1  31
ATOM     27  C   UNL     1      -0.076   5.750   0.033  0.00  0.00    +0.044 C 
ATOM     28  C   UNL     1      -0.056   4.244   0.025  0.00  0.00    -0.050 A 
ATOM     29  C   UNL     1       1.153   3.571   0.010  0.00  0.00    +0.004 A 
ATOM     30  C   UNL     1       1.179   2.192   0.003  0.00  0.00    +0.010 A 
ATOM     31  C   UNL     1      -0.018   1.475   0.010  0.00  0.00    -0.001 A 
ATOM     32  C   UNL     1      -1.234   2.159   0.020  0.00  0.00    +0.010 A 
ATOM     33  C   UNL     1      -1.246   3.538   0.033  0.00  0.00    +0.004 A 
ENDBRANCH   1  31
TORSDOF 3
