REMARK  Name = ZINC45468843
REMARK  9 active torsions:
REMARK  status: ('A' for Active; 'I' for Inactive)
REMARK    1  A    between atoms: C_1  and  C_2
REMARK    2  A    between atoms: C_2  and  C_26
REMARK    3  A    between atoms: N_5  and  N_9
REMARK    4  A    between atoms: C_10  and  C_12
REMARK    5  A    between atoms: C_12  and  N_13
REMARK    6  A    between atoms: C_16  and  C_19
REMARK    7  A    between atoms: C_19  and  C_20
REMARK    8  A    between atoms: C_26  and  C_27
REMARK    9  A    between atoms: C_27  and  C_28
REMARK                            x       y       z     vdW  Elec       q    Type
REMARK                         _______ _______ _______ _____ _____    ______ ____
ROOT
ATOM      1  N   UNL     1      -2.518  -1.955   1.783  0.00  0.00    -0.225 N 
ATOM      2  C   UNL     1      -2.586  -3.298   1.684  0.00  0.00    +0.213 C 
ATOM      3  O   UNL     1      -1.682  -3.914   1.162  0.00  0.00    -0.276 OA
ATOM      4  H   UNL     1      -3.242  -1.462   2.200  0.00  0.00    +0.173 HD
ENDROOT
BRANCH   1   9
ATOM      5  C   UNL     1      -0.019   1.526   0.010  0.00  0.00    +0.041 C 
ATOM      6  C   UNL     1       0.002  -0.004   0.002  0.00  0.00    +0.112 C 
ATOM      7  C   UNL     1      -1.403  -0.557   0.139  0.00  0.00    +0.263 C 
ATOM      8  O   UNL     1      -2.332  -0.392  -0.621  0.00  0.00    -0.271 OA
ATOM      9  N   UNL     1      -1.403  -1.272   1.282  0.00  0.00    -0.137 N 
ATOM     10  C   UNL     1      -0.206  -1.247   1.879  0.00  0.00    +0.326 C 
ATOM     11  O   UNL     1       0.040  -1.819   2.924  0.00  0.00    -0.251 OA
ATOM     12  N   UNL     1       0.695  -0.520   1.195  0.00  0.00    -0.284 N 
ATOM     13  H   UNL     1       1.621  -0.365   1.440  0.00  0.00    +0.151 HD
BRANCH   6  14
ATOM     14  C   UNL     1       0.667  -0.525  -1.274  0.00  0.00    +0.040 C 
BRANCH  14  15
ATOM     15  C   UNL     1       2.136  -0.098  -1.294  0.00  0.00    +0.038 C 
BRANCH  15  16
ATOM     16  C   UNL     1       2.791  -0.611  -2.551  0.00  0.00    -0.047 A 
ATOM     17  C   UNL     1       3.388  -1.858  -2.560  0.00  0.00    +0.003 A 
ATOM     18  C   UNL     1       3.988  -2.328  -3.712  0.00  0.00    +0.000 A 
ATOM     19  C   UNL     1       3.992  -1.552  -4.856  0.00  0.00    +0.000 A 
ATOM     20  C   UNL     1       3.394  -0.305  -4.847  0.00  0.00    +0.000 A 
ATOM     21  C   UNL     1       2.790   0.163  -3.696  0.00  0.00    +0.003 A 
ENDBRANCH  15  16
ENDBRANCH  14  15
ENDBRANCH   6  14
ENDBRANCH   1   9
BRANCH   2  22
ATOM     22  C   UNL     1      -3.787  -4.033   2.223  0.00  0.00    +0.020 C 
BRANCH  22  23
ATOM     23  N   UNL     1      -3.620  -5.475   1.996  0.00  0.00    +0.385 N 
ATOM     24  C   UNL     1      -2.475  -5.962   2.773  0.00  0.00    -0.078 C 
ATOM     25  C   UNL     1      -2.247  -7.446   2.477  0.00  0.00    -0.015 C 
ATOM     26  C   UNL     1      -3.501  -8.236   2.863  0.00  0.00    -0.010 C 
ATOM     27  C   UNL     1      -4.703  -7.670   2.101  0.00  0.00    -0.015 C 
ATOM     28  C   UNL     1      -4.840  -6.178   2.411  0.00  0.00    -0.078 C 
ATOM     29  H   UNL     1      -3.454  -5.642   1.014  0.00  0.00    -0.081 HD
BRANCH  26  30
ATOM     30  C   UNL     1      -3.311  -9.709   2.496  0.00  0.00    +0.038 C 
BRANCH  30  31
ATOM     31  C   UNL     1      -4.492 -10.506   2.987  0.00  0.00    -0.047 A 
ATOM     32  C   UNL     1      -4.478 -11.053   4.256  0.00  0.00    +0.003 A 
ATOM     33  C   UNL     1      -5.562 -11.784   4.706  0.00  0.00    +0.000 A 
ATOM     34  C   UNL     1      -6.661 -11.966   3.886  0.00  0.00    +0.000 A 
ATOM     35  C   UNL     1      -6.675 -11.418   2.618  0.00  0.00    +0.000 A 
ATOM     36  C   UNL     1      -5.593 -10.684   2.169  0.00  0.00    +0.003 A 
ENDBRANCH  30  31
ENDBRANCH  26  30
ENDBRANCH  22  23
ENDBRANCH   2  22
TORSDOF 8
