REMARK  Name = ZINC16912643
REMARK  11 active torsions:
REMARK  status: ('A' for Active; 'I' for Inactive)
REMARK    1  A    between atoms: C_1  and  C_2
REMARK    2  A    between atoms: C_2  and  C_3
REMARK    3  A    between atoms: C_3  and  C_5
REMARK    4  A    between atoms: C_3  and  O_7
REMARK    5  A    between atoms: O_7  and  C_8
REMARK    6  A    between atoms: C_11  and  C_16
REMARK    7  A    between atoms: C_13  and  O_14
REMARK    8  A    between atoms: O_14  and  C_15
REMARK    9  A    between atoms: N_20  and  N_24
REMARK   10  A    between atoms: N_24  and  C_25
REMARK   11  A    between atoms: C_28  and  N_31
REMARK                            x       y       z     vdW  Elec       q    Type
REMARK                         _______ _______ _______ _____ _____    ______ ____
ROOT
ATOM      1  C   UNL     1       3.449   4.660  -3.832  0.00  0.00    +0.028 C 
ATOM      2  C   UNL     1       2.620   5.732  -3.761  0.00  0.00    +0.079 C 
ATOM      3  C   UNL     1       1.282   5.849  -3.146  0.00  0.00    +0.275 C 
ATOM      4  O   UNL     1       0.748   4.905  -2.593  0.00  0.00    -0.267 OA
ATOM      5  N   UNL     1       0.695   7.031  -3.226  0.00  0.00    -0.172 N 
ATOM      6  C   UNL     1       1.290   8.074  -3.840  0.00  0.00    +0.138 C 
ATOM      7  S   UNL     1       0.697   9.667  -4.045  0.00  0.00    -0.026 S 
ATOM      8  S   UNL     1       2.850   7.393  -4.380  0.00  0.00    -0.059 S 
ENDROOT
BRANCH   1  12
ATOM      9  C   UNL     1       2.074   0.835  -2.613  0.00  0.00    +0.163 A 
ATOM     10  C   UNL     1       1.245   1.666  -3.354  0.00  0.00    +0.050 A 
ATOM     11  C   UNL     1       1.685   2.911  -3.747  0.00  0.00    +0.012 A 
ATOM     12  C   UNL     1       2.975   3.336  -3.409  0.00  0.00    -0.020 A 
ATOM     13  C   UNL     1       3.812   2.494  -2.666  0.00  0.00    +0.057 A 
ATOM     14  C   UNL     1       3.360   1.251  -2.271  0.00  0.00    +0.162 A 
BRANCH  14  15
ATOM     15  O   UNL     1       4.170   0.430  -1.550  0.00  0.00    -0.491 OA
ATOM     16  C   UNL     1       5.476   0.920  -1.236  0.00  0.00    +0.277 C 
ENDBRANCH  14  15
BRANCH   9  17
ATOM     17  O   UNL     1       1.632  -0.389  -2.223  0.00  0.00    -0.474 OA
BRANCH  17  18
ATOM     18  C   UNL     1       0.353  -0.802  -2.709  0.00  0.00    +0.285 C 
BRANCH  18  19
ATOM     19  C   UNL     1       0.390  -2.273  -3.034  0.00  0.00    +0.396 C 
ATOM     20  O   UNL     1       1.378  -2.923  -2.783  0.00  0.00    -0.242 OA
ATOM     21  O   UNL     1      -0.674  -2.862  -3.602  0.00  0.00    -0.242 OA
ENDBRANCH  18  19
BRANCH  18  23
ATOM     22  C   UNL     1      -0.832   0.962  -1.396  0.00  0.00    +0.008 C 
ATOM     23  C   UNL     1      -0.707  -0.544  -1.636  0.00  0.00    +0.053 C 
ENDBRANCH  18  23
ENDBRANCH  17  18
ENDBRANCH   9  17
ENDBRANCH   1  12
BRANCH   5  24
ATOM     24  N   UNL     1      -0.576   7.204  -2.661  0.00  0.00    -0.256 N 
ATOM     25  H   UNL     1      -1.357   6.838  -3.104  0.00  0.00    +0.171 HD
BRANCH  24  26
ATOM     26  C   UNL     1      -0.717   7.902  -1.460  0.00  0.00    +0.045 A 
ATOM     27  C   UNL     1       0.402   8.422  -0.821  0.00  0.00    +0.027 A 
ATOM     28  C   UNL     1       0.259   9.116   0.364  0.00  0.00    +0.034 A 
ATOM     29  C   UNL     1      -0.996   9.285   0.920  0.00  0.00    +0.126 A 
ATOM     30  C   UNL     1      -2.111   8.765   0.290  0.00  0.00    +0.034 A 
ATOM     31  C   UNL     1      -1.976   8.074  -0.898  0.00  0.00    +0.027 A 
BRANCH  29  32
ATOM     32  N   UNL     1      -1.145  10.025   2.193  0.00  0.00    +0.056 N 
ATOM     33  O   UNL     1      -2.250  10.175   2.685  0.00  0.00    -0.126 OA
ATOM     34  O   UNL     1      -0.164  10.484   2.750  0.00  0.00    -0.126 OA
ENDBRANCH  29  32
ENDBRANCH  24  26
ENDBRANCH   5  24
TORSDOF 9
