REMARK  Name = ZINC06648001
REMARK  3 active torsions:
REMARK  status: ('A' for Active; 'I' for Inactive)
REMARK    1  A    between atoms: C_1  and  C_2
REMARK    2  A    between atoms: N_10  and  N_11
REMARK    3  A    between atoms: C_12  and  C_13
REMARK                            x       y       z     vdW  Elec       q    Type
REMARK                         _______ _______ _______ _____ _____    ______ ____
ROOT
ATOM      1  C   UNL     1      -6.153   9.892   0.110  0.00  0.00    +0.073 C 
ATOM      2  C   UNL     1      -4.797   9.235   0.095  0.00  0.00    +0.125 A 
ATOM      3  C   UNL     1      -3.625  10.023   0.090  0.00  0.00    +0.274 A 
ATOM      4  O   UNL     1      -3.688  11.240   0.097  0.00  0.00    -0.266 OA
ATOM      5  N   UNL     1      -2.430   9.388   0.076  0.00  0.00    -0.291 N 
ATOM      6  H   UNL     1      -1.601   9.892   0.072  0.00  0.00    +0.172 HD
ATOM      7  C   UNL     1      -2.416   8.025   0.068  0.00  0.00    +0.235 A 
ATOM      8  N   UNL     1      -3.550   7.344   0.069  0.00  0.00    -0.113 NA
ATOM      9  N   UNL     1      -4.695   7.927   0.087  0.00  0.00    -0.146 NA
ATOM     10  N   UNL     1      -1.222   7.357   0.053  0.00  0.00    -0.205 N 
ATOM     11  H   UNL     1      -0.389   7.853   0.049  0.00  0.00    +0.177 HD
ENDROOT
BRANCH  10  12
ATOM     12  N   UNL     1      -1.203   5.956   0.045  0.00  0.00    -0.187 NA
ATOM     13  C   UNL     1      -0.070   5.322   0.031  0.00  0.00    +0.144 C 
BRANCH  13  14
ATOM     14  C   UNL     1      -0.050   3.848   0.023  0.00  0.00    +0.065 A 
ATOM     15  C   UNL     1       1.169   3.162   0.008  0.00  0.00    +0.135 A 
ATOM     16  C   UNL     1       1.178   1.780   0.000  0.00  0.00    +0.039 A 
ATOM     17  C   UNL     1      -0.013   1.076   0.008  0.00  0.00    +0.006 A 
ATOM     18  C   UNL     1      -1.222   1.747   0.017  0.00  0.00    +0.039 A 
ATOM     19  C   UNL     1      -1.250   3.129   0.030  0.00  0.00    +0.135 A 
ATOM     20  F   UNL     1      -2.432   3.783   0.044  0.00  0.00    -0.205 F 
ATOM     21  F   UNL     1       2.333   3.847   0.001  0.00  0.00    -0.205 F 
ENDBRANCH  13  14
ENDBRANCH  10  12
TORSDOF 2
