REMARK  Name = ZINC11782391
REMARK  10 active torsions:
REMARK  status: ('A' for Active; 'I' for Inactive)
REMARK    1  A    between atoms: C_1  and  O_2
REMARK    2  A    between atoms: O_2  and  C_3
REMARK    3  A    between atoms: C_6  and  O_32
REMARK    4  A    between atoms: C_7  and  C_9
REMARK    5  A    between atoms: C_9  and  N_10
REMARK    6  A    between atoms: C_13  and  C_24
REMARK    7  A    between atoms: C_20  and  O_22
REMARK    8  A    between atoms: O_22  and  C_23
REMARK    9  A    between atoms: C_29  and  O_30
REMARK   10  A    between atoms: O_30  and  C_31
REMARK                            x       y       z     vdW  Elec       q    Type
REMARK                         _______ _______ _______ _____ _____    ______ ____
ROOT
ATOM      1  N   UNL     1      -2.705   0.983  -0.097  0.00  0.00    -0.325 N 
ATOM      2  C   UNL     1      -3.343   0.989   1.227  0.00  0.00    +0.107 C 
ATOM      3  C   UNL     1      -4.562   1.885   1.258  0.00  0.00    +0.038 C 
ATOM      4  C   UNL     1      -4.290   3.377   1.204  0.00  0.00    +0.086 C 
ATOM      5  S   UNL     1      -3.622   3.811  -0.436  0.00  0.00    -0.115 S 
ATOM      6  C   UNL     1      -1.931   3.290  -0.290  0.00  0.00    +0.033 A 
ATOM      7  C   UNL     1      -1.670   1.939  -0.157  0.00  0.00    +0.044 A 
ATOM      8  C   UNL     1      -0.353   1.507  -0.049  0.00  0.00    +0.028 A 
ATOM      9  C   UNL     1       0.676   2.431  -0.079  0.00  0.00    +0.047 A 
ATOM     10  C   UNL     1       0.407   3.784  -0.212  0.00  0.00    +0.121 A 
ATOM     11  C   UNL     1      -0.908   4.221  -0.320  0.00  0.00    +0.062 A 
ENDROOT
BRANCH   4  12
ATOM     12  C   UNL     1      -5.572   4.131   1.440  0.00  0.00    +0.008 A 
ATOM     13  C   UNL     1      -5.894   4.566   2.711  0.00  0.00    +0.008 A 
ATOM     14  C   UNL     1      -7.069   5.263   2.928  0.00  0.00    +0.001 A 
ATOM     15  C   UNL     1      -7.929   5.517   1.875  0.00  0.00    +0.004 A 
ATOM     16  C   UNL     1      -7.614   5.079   0.604  0.00  0.00    +0.046 A 
ATOM     17  C   UNL     1      -6.434   4.384   0.383  0.00  0.00    +0.124 A 
BRANCH  17  18
ATOM     18  O   UNL     1      -6.122   3.953  -0.868  0.00  0.00    -0.495 OA
ATOM     19  C   UNL     1      -7.056   4.249  -1.908  0.00  0.00    +0.277 C 
ENDBRANCH  17  18
ENDBRANCH   4  12
BRANCH  10  20
ATOM     20  O   UNL     1       1.427   4.683  -0.236  0.00  0.00    -0.495 OA
ATOM     21  C   UNL     1       2.753   4.163  -0.119  0.00  0.00    +0.277 C 
ENDBRANCH  10  20
BRANCH   1  22
ATOM     22  C   UNL     1      -2.203  -0.356  -0.432  0.00  0.00    +0.144 C 
BRANCH  22  27
ATOM     23  C   UNL     1       0.448  -0.681  -3.106  0.00  0.00    +0.121 A 
ATOM     24  C   UNL     1      -0.231  -0.226  -4.226  0.00  0.00    +0.049 A 
ATOM     25  C   UNL     1      -1.544   0.186  -4.118  0.00  0.00    +0.049 A 
ATOM     26  C   UNL     1      -2.185   0.144  -2.889  0.00  0.00    +0.122 A 
ATOM     27  C   UNL     1      -1.507  -0.311  -1.768  0.00  0.00    +0.015 A 
ATOM     28  C   UNL     1      -0.191  -0.717  -1.875  0.00  0.00    +0.054 A 
BRANCH  23  30
ATOM     29  C   UNL     1       2.339  -1.017  -4.509  0.00  0.00    +0.277 C 
ATOM     30  O   UNL     1       1.742  -1.087  -3.212  0.00  0.00    -0.495 OA
ENDBRANCH  23  30
BRANCH  26  31
ATOM     31  O   UNL     1      -3.479   0.550  -2.782  0.00  0.00    -0.506 OA
ATOM     32  H   UNL     1      -3.581   1.490  -2.582  0.00  0.00    +0.292 HD
ENDBRANCH  26  31
ENDBRANCH  22  27
ENDBRANCH   1  22
TORSDOF 7
