REMARK  Name = ZINC32072932
REMARK  3 active torsions:
REMARK  status: ('A' for Active; 'I' for Inactive)
REMARK    1  A    between atoms: C_9  and  O_26
REMARK    2  A    between atoms: N_15  and  C_16
REMARK    3  A    between atoms: C_19  and  C_22
REMARK                            x       y       z     vdW  Elec       q    Type
REMARK                         _______ _______ _______ _____ _____    ______ ____
ROOT
ATOM      1  C   UNL     1      -0.017   1.387   0.010  0.00  0.00    +0.000 A 
ATOM      2  C   UNL     1       1.151   2.121   0.003  0.00  0.00    +0.002 A 
ATOM      3  C   UNL     1       2.398   1.516  -0.013  0.00  0.00    +0.023 A 
ATOM      4  C   UNL     1       2.432   0.121  -0.021  0.00  0.00    +0.038 A 
ATOM      5  C   UNL     1       1.238  -0.613  -0.013  0.00  0.00    -0.006 A 
ATOM      6  C   UNL     1       0.002  -0.004   0.002  0.00  0.00    +0.007 A 
ATOM      7  C   UNL     1       1.636  -2.054  -0.023  0.00  0.00    +0.112 C 
ATOM      8  C   UNL     1       1.106  -2.768  -1.266  0.00  0.00    +0.121 C 
ATOM      9  C   UNL     1      -0.324  -3.190  -1.089  0.00  0.00    +0.191 C 
ATOM     10  N   UNL     1      -0.835  -3.535   0.055  0.00  0.00    -0.197 NA
ATOM     11  C   UNL     1      -0.067  -3.474   1.179  0.00  0.00    +0.164 A 
ATOM     12  C   UNL     1       1.134  -2.771   1.198  0.00  0.00    +0.036 A 
ATOM     13  C   UNL     1       1.673  -2.889   2.465  0.00  0.00    +0.142 A 
ATOM     14  N   UNL     1       0.858  -3.610   3.200  0.00  0.00    -0.173 NA
ATOM     15  N   UNL     1      -0.248  -3.983   2.419  0.00  0.00    -0.214 N 
ATOM     16  C   UNL     1       3.148  -2.030  -0.037  0.00  0.00    +0.233 C 
ATOM     17  O   UNL     1       3.885  -2.993  -0.048  0.00  0.00    -0.274 OA
ATOM     18  N   UNL     1       3.521  -0.732  -0.036  0.00  0.00    -0.284 N 
ATOM     19  H   UNL     1       4.444  -0.433  -0.045  0.00  0.00    +0.155 HD
ENDROOT
BRANCH  15  20
ATOM     20  C   UNL     1      -1.344  -4.744   2.847  0.00  0.00    +0.068 A 
ATOM     21  C   UNL     1      -2.612  -4.481   2.348  0.00  0.00    +0.028 A 
ATOM     22  C   UNL     1      -3.690  -5.233   2.772  0.00  0.00    +0.014 A 
ATOM     23  C   UNL     1      -3.507  -6.247   3.693  0.00  0.00    +0.055 A 
ATOM     24  C   UNL     1      -2.245  -6.512   4.193  0.00  0.00    +0.014 A 
ATOM     25  C   UNL     1      -1.162  -5.767   3.768  0.00  0.00    +0.028 A 
BRANCH  23  26
ATOM     26  C   UNL     1      -4.685  -7.066   4.155  0.00  0.00    +0.417 C 
ATOM     27  F   UNL     1      -4.841  -8.174   3.315  0.00  0.00    -0.166 F 
ATOM     28  F   UNL     1      -4.466  -7.502   5.466  0.00  0.00    -0.166 F 
ATOM     29  F   UNL     1      -5.843  -6.282   4.112  0.00  0.00    -0.166 F 
ENDBRANCH  23  26
ENDBRANCH  15  20
BRANCH   9  30
ATOM     30  O   UNL     1      -1.122  -3.213  -2.176  0.00  0.00    -0.495 OA
ATOM     31  H   UNL     1      -2.029  -3.493  -1.993  0.00  0.00    +0.293 HD
ENDBRANCH   9  30
TORSDOF 3
