REMARK  Name = ZINC01454802
REMARK  8 active torsions:
REMARK  status: ('A' for Active; 'I' for Inactive)
REMARK    1  A    between atoms: C_1  and  C_2
REMARK    2  A    between atoms: C_8  and  C_27
REMARK    3  A    between atoms: C_10  and  C_11
REMARK    4  A    between atoms: C_11  and  C_12
REMARK    5  A    between atoms: C_15  and  O_20
REMARK    6  A    between atoms: C_16  and  O_18
REMARK    7  A    between atoms: O_18  and  C_19
REMARK    8  A    between atoms: O_20  and  C_21
REMARK                            x       y       z     vdW  Elec       q    Type
REMARK                         _______ _______ _______ _____ _____    ______ ____
ROOT
ATOM      1  C   UNL     1      -3.417  -9.157  -0.660  0.00  0.00    +0.089 C 
ATOM      2  C   UNL     1      -3.331  -7.654  -0.596  0.00  0.00    +0.136 A 
ATOM      3  C   UNL     1      -2.209  -6.914  -0.447  0.00  0.00    +0.091 A 
ATOM      4  C   UNL     1      -2.680  -5.573  -0.448  0.00  0.00    +0.172 A 
ATOM      5  N   UNL     1      -3.978  -5.643  -0.587  0.00  0.00    -0.063 NA
ATOM      6  O   UNL     1      -4.353  -6.789  -0.675  0.00  0.00    -0.358 OA
ATOM      7  N   UNL     1      -1.912  -4.417  -0.321  0.00  0.00    -0.235 N 
ATOM      8  C   UNL     1      -2.438  -3.053  -0.218  0.00  0.00    +0.151 C 
ATOM      9  C   UNL     1      -1.243  -2.136  -0.102  0.00  0.00    +0.077 C 
ATOM     10  C   UNL     1      -0.111  -2.964  -0.132  0.00  0.00    +0.250 C 
ATOM     11  O   UNL     1       1.047  -2.594  -0.062  0.00  0.00    -0.282 OA
ATOM     12  C   UNL     1      -0.571  -4.373  -0.262  0.00  0.00    +0.293 C 
ATOM     13  O   UNL     1       0.160  -5.341  -0.317  0.00  0.00    -0.266 OA
ENDROOT
BRANCH   8  14
ATOM     14  C   UNL     1      -3.232  -2.713  -1.453  0.00  0.00    -0.022 A 
ATOM     15  C   UNL     1      -2.811  -3.166  -2.690  0.00  0.00    +0.007 A 
ATOM     16  C   UNL     1      -3.541  -2.859  -3.823  0.00  0.00    +0.015 A 
ATOM     17  C   UNL     1      -4.686  -2.091  -3.721  0.00  0.00    +0.018 A 
ATOM     18  C   UNL     1      -5.104  -1.634  -2.483  0.00  0.00    +0.015 A 
ATOM     19  C   UNL     1      -4.376  -1.946  -1.350  0.00  0.00    +0.007 A 
ATOM     20 BR   UNL     1      -5.682  -1.665  -5.271  0.00  0.00    -0.050 Br
ENDBRANCH   8  14
BRANCH   9  21
ATOM     21  C   UNL     1      -1.260  -0.759   0.009  0.00  0.00    +0.195 C 
ATOM     22  O   UNL     1      -2.438  -0.098   0.023  0.00  0.00    -0.287 OA
BRANCH  21  23
ATOM     23  C   UNL     1       0.003  -0.013   0.114  0.00  0.00    +0.026 A 
ATOM     24  C   UNL     1       0.288   1.015  -0.792  0.00  0.00    +0.015 A 
ATOM     25  C   UNL     1       1.472   1.712  -0.693  0.00  0.00    +0.050 A 
ATOM     26  C   UNL     1       2.385   1.398   0.306  0.00  0.00    +0.162 A 
ATOM     27  C   UNL     1       2.108   0.374   1.213  0.00  0.00    +0.162 A 
ATOM     28  C   UNL     1       0.924  -0.329   1.120  0.00  0.00    +0.061 A 
BRANCH  27  29
ATOM     29  O   UNL     1       3.005   0.070   2.189  0.00  0.00    -0.491 OA
ATOM     30  C   UNL     1       2.656  -0.989   3.083  0.00  0.00    +0.277 C 
ENDBRANCH  27  29
BRANCH  26  31
ATOM     31  O   UNL     1       3.549   2.089   0.401  0.00  0.00    -0.491 OA
ATOM     32  C   UNL     1       3.769   3.124  -0.560  0.00  0.00    +0.277 C 
ENDBRANCH  26  31
ENDBRANCH  21  23
ENDBRANCH   9  21
TORSDOF 5
