REMARK  Name = ZINC12661298
REMARK  11 active torsions:
REMARK  status: ('A' for Active; 'I' for Inactive)
REMARK    1  A    between atoms: C_1  and  C_2
REMARK    2  A    between atoms: C_3  and  C_27
REMARK    3  A    between atoms: C_9  and  O_13
REMARK    4  A    between atoms: O_13  and  C_14
REMARK    5  A    between atoms: C_14  and  C_16
REMARK    6  A    between atoms: C_21  and  O_22
REMARK    7  A    between atoms: C_21  and  N_70
REMARK    8  A    between atoms: O_22  and  C_23
REMARK    9  A    between atoms: C_23  and  C_24
REMARK   10  A    between atoms: C_23  and  C_25
REMARK   11  A    between atoms: C_23  and  C_26
REMARK                            x       y       z     vdW  Elec       q    Type
REMARK                         _______ _______ _______ _____ _____    ______ ____
ROOT
ATOM      1  C   UNL     1       5.860  -1.977   1.669  0.00  0.00    +0.087 C 
ATOM      2  C   UNL     1       4.751  -0.988   1.416  0.00  0.00    +0.114 A 
ATOM      3  C   UNL     1       5.067   0.326   1.284  0.00  0.00    +0.067 A 
ATOM      4  C   UNL     1       3.984   1.293   1.036  0.00  0.00    +0.200 A 
ATOM      5  O   UNL     1       4.207   2.484   0.909  0.00  0.00    -0.286 OA
ATOM      6  C   UNL     1       2.616   0.749   0.949  0.00  0.00    +0.065 A 
ATOM      7  C   UNL     1       1.520   1.581   0.717  0.00  0.00    +0.019 A 
ATOM      8  C   UNL     1       0.266   1.044   0.642  0.00  0.00    +0.047 A 
ATOM      9  C   UNL     1       0.078  -0.327   0.796  0.00  0.00    +0.135 A 
ATOM     10  C   UNL     1       1.155  -1.165   1.027  0.00  0.00    +0.093 A 
ATOM     11  C   UNL     1       2.437  -0.636   1.106  0.00  0.00    +0.142 A 
ATOM     12  O   UNL     1       3.497  -1.438   1.330  0.00  0.00    -0.459 OA
ENDROOT
BRANCH   3  13
ATOM     13  C   UNL     1       6.476   0.780   1.388  0.00  0.00    -0.007 A 
ATOM     14  C   UNL     1       7.163   0.649   2.593  0.00  0.00    +0.012 A 
ATOM     15  C   UNL     1       8.475   1.070   2.691  0.00  0.00    +0.050 A 
ATOM     16  C   UNL     1       9.107   1.623   1.588  0.00  0.00    +0.162 A 
ATOM     17  C   UNL     1       8.426   1.756   0.385  0.00  0.00    +0.162 A 
ATOM     18  C   UNL     1       7.115   1.331   0.278  0.00  0.00    +0.058 A 
ATOM     19  O   UNL     1       9.061   2.304  -0.692  0.00  0.00    -0.488 OA
ATOM     20  C   UNL     1      10.119   1.526  -1.256  0.00  0.00    +0.232 C 
ATOM     21  C   UNL     1      11.421   1.764  -0.508  0.00  0.00    +0.082 C 
ATOM     22  C   UNL     1      11.358   1.284   0.933  0.00  0.00    +0.232 C 
ATOM     23  O   UNL     1      10.403   2.042   1.679  0.00  0.00    -0.488 OA
ENDBRANCH   3  13
BRANCH   9  24
ATOM     24  O   UNL     1      -1.175  -0.847   0.720  0.00  0.00    -0.427 OA
BRANCH  24  25
ATOM     25  C   UNL     1      -1.696  -1.005  -0.508  0.00  0.00    +0.299 C 
ATOM     26  O   UNL     1      -1.040  -0.723  -1.483  0.00  0.00    -0.252 OA
BRANCH  25  27
ATOM     27  C   UNL     1      -3.098  -1.533  -0.669  0.00  0.00    +0.046 C 
ATOM     28  C   UNL     1      -3.530  -1.432  -2.147  0.00  0.00    -0.006 C 
ATOM     29  C   UNL     1      -5.022  -1.021  -2.048  0.00  0.00    -0.019 C 
ATOM     30  C   UNL     1      -5.010  -0.093  -0.807  0.00  0.00    -0.074 C 
ATOM     31  N   UNL     1      -4.048  -0.728   0.115  0.00  0.00    +0.404 N 
ATOM     32  H   UNL     1      -4.554  -1.339   0.766  0.00  0.00    -0.077 HD
BRANCH  31  33
ATOM     33  C   UNL     1      -3.321   0.311   0.891  0.00  0.00    +0.087 C 
BRANCH  33  34
ATOM     34  O   UNL     1      -4.221   1.367   1.231  0.00  0.00    -0.392 OA
BRANCH  34  35
ATOM     35  C   UNL     1      -5.005   1.109   2.398  0.00  0.00    +0.059 C 
ATOM     36  C   UNL     1      -4.090   1.037   3.622  0.00  0.00    +0.041 C 
ATOM     37  C   UNL     1      -6.022   2.236   2.587  0.00  0.00    +0.041 C 
ATOM     38  C   UNL     1      -5.743  -0.221   2.233  0.00  0.00    +0.041 C 
ENDBRANCH  34  35
ENDBRANCH  33  34
ENDBRANCH  31  33
ENDBRANCH  25  27
ENDBRANCH  24  25
ENDBRANCH   9  24
TORSDOF 7
