REMARK  Name = ZINC20580418
REMARK  7 active torsions:
REMARK  status: ('A' for Active; 'I' for Inactive)
REMARK    1  A    between atoms: C_1  and  C_2
REMARK    2  A    between atoms: C_5  and  C_20
REMARK    3  A    between atoms: C_7  and  S_8
REMARK    4  A    between atoms: S_8  and  N_11
REMARK    5  A    between atoms: N_11  and  C_12
REMARK    6  A    between atoms: C_21  and  C_26
REMARK    7  A    between atoms: C_22  and  C_25
REMARK                            x       y       z     vdW  Elec       q    Type
REMARK                         _______ _______ _______ _____ _____    ______ ____
ROOT
ATOM      1  C   UNL     1      -0.127   1.078  -1.756  0.00  0.00    +0.046 C 
ATOM      2  C   UNL     1      -0.946   0.302  -2.754  0.00  0.00    -0.024 A 
ATOM      3  C   UNL     1      -0.492   0.157  -4.053  0.00  0.00    +0.006 A 
ATOM      4  C   UNL     1      -1.236  -0.553  -4.972  0.00  0.00    +0.012 A 
ATOM      5  C   UNL     1      -2.450  -1.126  -4.589  0.00  0.00    +0.022 A 
ATOM      6  C   UNL     1      -2.899  -0.981  -3.276  0.00  0.00    +0.040 A 
ATOM      7  C   UNL     1      -2.147  -0.264  -2.368  0.00  0.00    +0.112 A 
ENDROOT
BRANCH   5   8
ATOM      8  C   UNL     1      -3.253  -1.888  -5.569  0.00  0.00    +0.170 A 
ATOM      9  C   UNL     1      -3.552  -1.519  -6.852  0.00  0.00    +0.019 A 
ATOM     10  C   UNL     1      -4.331  -2.588  -7.339  0.00  0.00    +0.084 A 
ATOM     11  N   UNL     1      -4.426  -3.452  -6.368  0.00  0.00    -0.083 NA
ATOM     12  O   UNL     1      -3.832  -3.088  -5.380  0.00  0.00    -0.354 OA
ATOM     13  C   UNL     1      -4.935  -2.709  -8.714  0.00  0.00    +0.069 C 
ATOM     14  C   UNL     1      -3.144  -0.262  -7.576  0.00  0.00    +0.049 C 
ENDBRANCH   5   8
BRANCH   7  15
ATOM     15  S   UNL     1      -2.716  -0.074  -0.711  0.00  0.00    +0.073 S 
ATOM     16  O   UNL     1      -1.627  -0.419   0.134  0.00  0.00    -0.150 OA
ATOM     17  O   UNL     1      -3.975  -0.729  -0.636  0.00  0.00    -0.150 OA
BRANCH  15  18
ATOM     18  N   UNL     1      -3.007   1.539  -0.475  0.00  0.00    -0.213 N 
ATOM     19  H   UNL     1      -2.460   2.087   0.306  0.00  0.00    +0.174 HD
BRANCH  18  20
ATOM     20  C   UNL     1      -3.947   2.203  -1.268  0.00  0.00    +0.086 A 
ATOM     21  C   UNL     1      -5.093   1.542  -1.690  0.00  0.00    +0.065 A 
ATOM     22  C   UNL     1      -6.022   2.203  -2.474  0.00  0.00    +0.125 A 
ATOM     23  C   UNL     1      -5.810   3.522  -2.838  0.00  0.00    +0.041 A 
ATOM     24  C   UNL     1      -4.670   4.183  -2.419  0.00  0.00    +0.043 A 
ATOM     25  C   UNL     1      -3.737   3.528  -1.635  0.00  0.00    +0.146 A 
ATOM     26  F   UNL     1      -2.624   4.175  -1.226  0.00  0.00    -0.204 F 
ATOM     27  F   UNL     1      -7.137   1.560  -2.885  0.00  0.00    -0.205 F 
ENDBRANCH  18  20
ENDBRANCH  15  18
ENDBRANCH   7  15
TORSDOF 4
