REMARK  Name = ZINC08721952
REMARK  9 active torsions:
REMARK  status: ('A' for Active; 'I' for Inactive)
REMARK    1  A    between atoms: C_1  and  C_2
REMARK    2  A    between atoms: C_2  and  O_4
REMARK    3  A    between atoms: O_4  and  C_5
REMARK    4  A    between atoms: C_8  and  C_15
REMARK    5  A    between atoms: C_9  and  O_11
REMARK    6  A    between atoms: O_11  and  C_12
REMARK    7  A    between atoms: C_12  and  C_14
REMARK    8  A    between atoms: C_28  and  C_31
REMARK    9  A    between atoms: C_31  and  C_33
REMARK                            x       y       z     vdW  Elec       q    Type
REMARK                         _______ _______ _______ _____ _____    ______ ____
ROOT
ATOM      1  C   UNL     1       2.231   1.912   0.360  0.00  0.00    +0.108 C 
ATOM      2  C   UNL     1       0.739   1.694   0.096  0.00  0.00    +0.029 C 
ATOM      3  C   UNL     1       0.294   2.712  -0.991  0.00  0.00    +0.033 C 
ATOM      4  C   UNL     1       0.017   3.979  -0.185  0.00  0.00    -0.030 C 
ATOM      5  C   UNL     1      -0.173   3.696   1.080  0.00  0.00    -0.023 C 
ATOM      6  C   UNL     1      -0.063   2.207   1.312  0.00  0.00    +0.049 C 
ATOM      7  C   UNL     1       0.638   1.945   2.598  0.00  0.00    -0.017 A 
ATOM      8  C   UNL     1      -0.036   2.229   3.778  0.00  0.00    +0.026 A 
ATOM      9  C   UNL     1       0.555   2.005   5.009  0.00  0.00    +0.042 A 
ATOM     10  C   UNL     1       1.832   1.490   5.082  0.00  0.00    +0.033 A 
ATOM     11  C   UNL     1       2.526   1.196   3.906  0.00  0.00    +0.045 A 
ATOM     12  C   UNL     1       1.919   1.425   2.654  0.00  0.00    +0.042 A 
ATOM     13  N   UNL     1       2.643   1.113   1.514  0.00  0.00    -0.336 N 
ATOM     14 CL   UNL     1      -0.314   2.371   6.466  0.00  0.00    -0.084 Cl
ATOM     15  H   UNL     1       3.635   1.202   1.680  0.00  0.00    +0.147 HD
ENDROOT
BRANCH   1  19
ATOM     16  C   UNL     1       4.475   0.716  -3.079  0.00  0.00    +0.135 A 
ATOM     17  C   UNL     1       4.115  -0.221  -2.120  0.00  0.00    +0.047 A 
ATOM     18  C   UNL     1       3.390   0.169  -1.010  0.00  0.00    +0.012 A 
ATOM     19  C   UNL     1       3.022   1.491  -0.852  0.00  0.00    +0.016 A 
ATOM     20  C   UNL     1       3.376   2.431  -1.810  0.00  0.00    +0.140 A 
ATOM     21  C   UNL     1       4.108   2.044  -2.922  0.00  0.00    +0.093 A 
BRANCH  16  22
ATOM     22  O   UNL     1       5.189   0.333  -4.170  0.00  0.00    -0.426 OA
BRANCH  22  24
ATOM     23  C   UNL     1       7.330   0.335  -5.399  0.00  0.00    +0.136 C 
ATOM     24  C   UNL     1       6.498   0.628  -4.177  0.00  0.00    +0.309 C 
ATOM     25  O   UNL     1       7.010   1.129  -3.204  0.00  0.00    -0.251 OA
ENDBRANCH  22  24
ENDBRANCH  16  22
BRANCH  20  26
ATOM     26  O   UNL     1       3.008   3.730  -1.656  0.00  0.00    -0.426 OA
BRANCH  26  27
ATOM     27  C   UNL     1       3.792   4.497  -0.881  0.00  0.00    +0.309 C 
ATOM     28  O   UNL     1       4.723   4.005  -0.288  0.00  0.00    -0.251 OA
ATOM     29  C   UNL     1       3.510   5.972  -0.750  0.00  0.00    +0.136 C 
ENDBRANCH  26  27
ENDBRANCH  20  26
ENDBRANCH   1  19
BRANCH  11  30
ATOM     30  C   UNL     1       3.891   0.647   3.974  0.00  0.00    +0.195 C 
ATOM     31  O   UNL     1       4.827   1.377   4.238  0.00  0.00    -0.287 OA
BRANCH  30  32
ATOM     32  C   UNL     1       4.123  -0.791   3.723  0.00  0.00    +0.022 A 
ATOM     33  C   UNL     1       3.060  -1.619   3.357  0.00  0.00    +0.012 A 
ATOM     34  C   UNL     1       3.284  -2.959   3.120  0.00  0.00    +0.001 A 
ATOM     35  C   UNL     1       4.558  -3.485   3.252  0.00  0.00    +0.000 A 
ATOM     36  C   UNL     1       5.615  -2.671   3.619  0.00  0.00    +0.001 A 
ATOM     37  C   UNL     1       5.405  -1.328   3.855  0.00  0.00    +0.012 A 
ENDBRANCH  30  32
ENDBRANCH  11  30
TORSDOF 7
