REMARK  Name = ZINC09617239
REMARK  6 active torsions:
REMARK  status: ('A' for Active; 'I' for Inactive)
REMARK    1  A    between atoms: N_9  and  C_25
REMARK    2  A    between atoms: N_12  and  C_13
REMARK    3  A    between atoms: C_13  and  C_14
REMARK    4  A    between atoms: C_25  and  C_26
REMARK    5  A    between atoms: C_29  and  C_32
REMARK    6  A    between atoms: N_34  and  C_35
REMARK                            x       y       z     vdW  Elec       q    Type
REMARK                         _______ _______ _______ _____ _____    ______ ____
ROOT
ATOM      1  C   UNL     1       1.183   1.779   0.000  0.00  0.00    +0.001 A 
ATOM      2  C   UNL     1      -0.013   1.076   0.008  0.00  0.00    +0.002 A 
ATOM      3  C   UNL     1      -1.221   1.743   0.017  0.00  0.00    +0.027 A 
ATOM      4  C   UNL     1      -1.242   3.129   0.030  0.00  0.00    +0.059 A 
ATOM      5  C   UNL     1      -0.031   3.843   0.022  0.00  0.00    +0.063 A 
ATOM      6  C   UNL     1       1.182   3.158   0.007  0.00  0.00    +0.015 A 
ATOM      7  C   UNL     1      -0.089   5.316   0.029  0.00  0.00    +0.264 A 
ATOM      8  O   UNL     1       0.929   5.980   0.023  0.00  0.00    -0.267 OA
ATOM      9  N   UNL     1      -1.303   5.908   0.044  0.00  0.00    -0.260 N 
ATOM     10  C   UNL     1      -2.432   5.183   0.050  0.00  0.00    +0.333 A 
ATOM     11  O   UNL     1      -3.498   5.766   0.063  0.00  0.00    -0.246 OA
ATOM     12  N   UNL     1      -2.434   3.838   0.044  0.00  0.00    -0.287 N 
ENDROOT
BRANCH  12  13
ATOM     13  C   UNL     1      -3.708   3.115   0.052  0.00  0.00    +0.182 C 
BRANCH  13  14
ATOM     14  C   UNL     1      -4.133   2.860   1.475  0.00  0.00    +0.069 A 
ATOM     15  C   UNL     1      -5.278   3.452   1.971  0.00  0.00    +0.095 A 
ATOM     16  C   UNL     1      -5.652   3.199   3.296  0.00  0.00    +0.259 A 
ATOM     17  O   UNL     1      -6.659   3.708   3.763  0.00  0.00    -0.267 OA
ATOM     18  N   UNL     1      -4.881   2.385   4.049  0.00  0.00    -0.268 N 
ATOM     19  C   UNL     1      -5.232   2.130   5.340  0.00  0.00    +0.096 A 
ATOM     20  C   UNL     1      -4.476   1.319   6.113  0.00  0.00    +0.018 A 
ATOM     21  C   UNL     1      -3.316   0.728   5.591  0.00  0.00    +0.005 A 
ATOM     22  C   UNL     1      -2.957   0.977   4.301  0.00  0.00    +0.047 A 
ATOM     23  C   UNL     1      -3.757   1.824   3.511  0.00  0.00    +0.141 A 
ATOM     24  N   UNL     1      -3.410   2.065   2.248  0.00  0.00    -0.232 NA
ENDBRANCH  13  14
ENDBRANCH  12  13
BRANCH   9  25
ATOM     25  C   UNL     1      -1.388   7.370   0.052  0.00  0.00    +0.133 C 
BRANCH  25  26
ATOM     26  C   UNL     1      -1.405   7.872   1.498  0.00  0.00    +0.009 C 
ATOM     27  C   UNL     1      -2.680   7.388   2.191  0.00  0.00    +0.006 C 
ATOM     28  C   UNL     1      -2.697   7.889   3.636  0.00  0.00    +0.013 C 
ATOM     29  C   UNL     1      -2.660   9.419   3.646  0.00  0.00    +0.075 C 
ATOM     30  C   UNL     1      -1.385   9.903   2.953  0.00  0.00    +0.013 C 
ATOM     31  C   UNL     1      -1.368   9.401   1.508  0.00  0.00    +0.006 C 
BRANCH  29  32
ATOM     32  C   UNL     1      -2.676   9.912   5.070  0.00  0.00    +0.216 C 
ATOM     33  O   UNL     1      -1.758  10.585   5.489  0.00  0.00    -0.276 OA
ATOM     34  N   UNL     1      -3.711   9.606   5.878  0.00  0.00    -0.312 N 
ATOM     35  H   UNL     1      -4.543   8.996   5.498  0.00  0.00    +0.149 HD
BRANCH  34  36
ATOM     36  C   UNL     1      -3.727  10.086   7.262  0.00  0.00    +0.073 C 
ATOM     37  C   UNL     1      -2.981   9.091   8.175  0.00  0.00    +0.022 C 
ATOM     38  C   UNL     1      -3.798   9.099   9.491  0.00  0.00    +0.002 C 
ATOM     39  C   UNL     1      -5.259   9.204   8.987  0.00  0.00    +0.002 C 
ATOM     40  C   UNL     1      -5.175  10.158   7.778  0.00  0.00    +0.022 C 
ENDBRANCH  34  36
ENDBRANCH  29  32
ENDBRANCH  25  26
ENDBRANCH   9  25
TORSDOF 6
