REMARK  Name = ZINC10986408
REMARK  2 active torsions:
REMARK  status: ('A' for Active; 'I' for Inactive)
REMARK    1  A    between atoms: C_6  and  N_7
REMARK    2  A    between atoms: C_8  and  C_10
REMARK                            x       y       z     vdW  Elec       q    Type
REMARK                         _______ _______ _______ _____ _____    ______ ____
ROOT
ATOM      1  N   UNL     1       0.018  -6.287  -0.030  0.00  0.00    -0.285 N 
ATOM      2  C   UNL     1      -1.160  -6.728  -0.514  0.00  0.00    +0.225 C 
ATOM      3  O   UNL     1      -1.934  -5.949  -1.029  0.00  0.00    -0.275 OA
ATOM      4  H   UNL     1       0.669  -6.919   0.313  0.00  0.00    +0.155 HD
ENDROOT
BRANCH   1  10
ATOM      5  C   UNL     1       1.608  -4.464  -0.195  0.00  0.00    +0.025 A 
ATOM      6  C   UNL     1       1.909  -3.128  -0.190  0.00  0.00    +0.031 A 
ATOM      7  C   UNL     1       0.897  -2.158  -0.005  0.00  0.00    +0.080 A 
ATOM      8  C   UNL     1      -0.417  -2.649   0.169  0.00  0.00    +0.043 A 
ATOM      9  C   UNL     1      -0.716  -3.987   0.163  0.00  0.00    +0.040 A 
ATOM     10  C   UNL     1       0.302  -4.915  -0.021  0.00  0.00    +0.035 A 
ATOM     11  S   UNL     1      -1.357  -1.154   0.363  0.00  0.00    -0.052 S 
ATOM     12  C   UNL     1       0.005  -0.008   0.206  0.00  0.00    +0.162 A 
ATOM     13  N   UNL     1       1.027  -0.812   0.020  0.00  0.00    -0.225 NA
ATOM     14  N   UNL     1      -0.012   1.371   0.261  0.00  0.00    -0.310 N 
ATOM     15  C   UNL     1      -0.472   1.845   1.591  0.00  0.00    +0.107 C 
ATOM     16  C   UNL     1       0.061   3.299   1.653  0.00  0.00    +0.020 C 
ATOM     17  C   UNL     1       1.436   3.193   0.953  0.00  0.00    +0.020 C 
ATOM     18  C   UNL     1       1.347   1.926   0.082  0.00  0.00    +0.107 C 
ENDBRANCH   1  10
BRANCH   2  19
ATOM     19  C   UNL     1      -1.515  -8.190  -0.416  0.00  0.00    +0.116 C 
ATOM     20  C   UNL     1      -1.539  -8.610   1.054  0.00  0.00    +0.113 C 
ATOM     21  C   UNL     1      -2.737  -8.010   1.739  0.00  0.00    +0.218 C 
ATOM     22  O   UNL     1      -2.652  -7.657   2.897  0.00  0.00    -0.275 OA
ATOM     23  N   UNL     1      -3.903  -7.861   1.083  0.00  0.00    -0.285 N 
ATOM     24  C   UNL     1      -4.016  -8.246  -0.257  0.00  0.00    +0.040 A 
ATOM     25  C   UNL     1      -2.873  -8.418  -1.027  0.00  0.00    -0.014 A 
ATOM     26  C   UNL     1      -2.983  -8.800  -2.349  0.00  0.00    +0.009 A 
ATOM     27  C   UNL     1      -4.230  -9.009  -2.909  0.00  0.00    +0.039 A 
ATOM     28  C   UNL     1      -5.372  -8.838  -2.144  0.00  0.00    +0.125 A 
ATOM     29  C   UNL     1      -5.267  -8.456  -0.818  0.00  0.00    +0.062 A 
ATOM     30  F   UNL     1      -6.589  -9.044  -2.693  0.00  0.00    -0.205 F 
ATOM     31  H   UNL     1      -4.669  -7.484   1.542  0.00  0.00    +0.155 HD
ENDBRANCH   2  19
TORSDOF 2
