REMARK  Name = ZINC23989747
REMARK  11 active torsions:
REMARK  status: ('A' for Active; 'I' for Inactive)
REMARK    1  A    between atoms: C_1  and  C_2
REMARK    2  A    between atoms: N_9  and  C_10
REMARK    3  A    between atoms: C_10  and  C_11
REMARK    4  A    between atoms: C_11  and  N_12
REMARK    5  A    between atoms: N_12  and  C_13
REMARK    6  A    between atoms: C_13  and  C_14
REMARK    7  A    between atoms: C_14  and  C_15
REMARK    8  A    between atoms: C_15  and  C_16
REMARK    9  A    between atoms: C_15  and  C_22
REMARK   10  A    between atoms: N_28  and  C_35
REMARK   11  A    between atoms: N_31  and  C_34
REMARK                            x       y       z     vdW  Elec       q    Type
REMARK                         _______ _______ _______ _____ _____    ______ ____
ROOT
ATOM      1  C   UNL     1       2.095   0.547  -0.572  0.00  0.00    -0.061 C 
ENDROOT
BRANCH   1   2
ATOM      2  N   UNL     1       0.947   1.134  -1.275  0.00  0.00    +0.380 N 
ATOM      3  H   UNL     1       0.015   0.715  -0.869  0.00  0.00    -0.086 HD
ATOM      4  H   UNL     1       0.950   2.225  -1.135  0.00  0.00    -0.086 HD
BRANCH   2   5
ATOM      5  C   UNL     1       1.006   0.844  -2.714  0.00  0.00    -0.082 C 
BRANCH   5   6
ATOM      6  C   UNL     1      -0.203   1.470  -3.411  0.00  0.00    -0.006 C 
BRANCH   6   7
ATOM      7  C   UNL     1      -0.141   1.168  -4.909  0.00  0.00    +0.047 C 
BRANCH   7   8
ATOM      8  C   UNL     1      -0.279  -0.316  -5.129  0.00  0.00    -0.040 A 
ATOM      9  C   UNL     1       0.650  -0.990  -5.900  0.00  0.00    +0.004 A 
ATOM     10  C   UNL     1       0.526  -2.353  -6.097  0.00  0.00    +0.000 A 
ATOM     11  C   UNL     1      -0.532  -3.040  -5.531  0.00  0.00    +0.000 A 
ATOM     12  C   UNL     1      -1.463  -2.365  -4.765  0.00  0.00    +0.000 A 
ATOM     13  C   UNL     1      -1.337  -1.003  -4.563  0.00  0.00    +0.004 A 
ENDBRANCH   7   8
BRANCH   7  14
ATOM     14  C   UNL     1      -1.264   1.886  -5.613  0.00  0.00    -0.040 A 
ATOM     15  C   UNL     1      -2.564   1.742  -5.167  0.00  0.00    +0.004 A 
ATOM     16  C   UNL     1      -3.593   2.404  -5.810  0.00  0.00    +0.000 A 
ATOM     17  C   UNL     1      -3.323   3.203  -6.905  0.00  0.00    +0.000 A 
ATOM     18  C   UNL     1      -2.023   3.343  -7.355  0.00  0.00    +0.000 A 
ATOM     19  C   UNL     1      -0.994   2.685  -6.709  0.00  0.00    +0.004 A 
ENDBRANCH   7  14
ENDBRANCH   6   7
ENDBRANCH   5   6
ENDBRANCH   2   5
ENDBRANCH   1   2
BRANCH   1  20
ATOM     20  C   UNL     1       1.998   0.870   0.921  0.00  0.00    +0.106 C 
BRANCH  20  29
ATOM     21  C   UNL     1       2.084  -1.994   2.178  0.00  0.00    +0.065 C 
ATOM     22  C   UNL     1       3.197  -0.978   2.182  0.00  0.00    +0.035 A 
ATOM     23  C   UNL     1       4.401  -1.142   2.723  0.00  0.00    +0.116 A 
ATOM     24  N   UNL     1       5.129   0.018   2.523  0.00  0.00    -0.277 N 
ATOM     25  C   UNL     1       6.347   0.644   2.742  0.00  0.00    +0.157 A 
ATOM     26  C   UNL     1       6.245   1.911   2.168  0.00  0.00    +0.170 A 
ATOM     27  N   UNL     1       5.027   2.014   1.641  0.00  0.00    -0.193 NA
ATOM     28  C   UNL     1       4.351   0.893   1.845  0.00  0.00    +0.218 A 
ATOM     29  N   UNL     1       3.144   0.284   1.622  0.00  0.00    -0.316 N 
ATOM     30  N   UNL     1       7.334   2.766   2.240  0.00  0.00    -0.280 N 
ATOM     31  C   UNL     1       8.463   2.368   2.855  0.00  0.00    +0.333 A 
ATOM     32  O   UNL     1       9.410   3.129   2.908  0.00  0.00    -0.246 OA
ATOM     33  N   UNL     1       8.571   1.149   3.411  0.00  0.00    -0.262 N 
ATOM     34  C   UNL     1       7.545   0.274   3.374  0.00  0.00    +0.283 A 
ATOM     35  O   UNL     1       7.658  -0.828   3.882  0.00  0.00    -0.265 OA
ATOM     36  C   UNL     1       9.822   0.765   4.069  0.00  0.00    +0.157 C 
ATOM     37  C   UNL     1       7.256   4.103   1.645  0.00  0.00    +0.155 C 
ENDBRANCH  20  29
ENDBRANCH   1  20
TORSDOF 8
