REMARK  Name = ZINC13053083
REMARK  14 active torsions:
REMARK  status: ('A' for Active; 'I' for Inactive)
REMARK    1  A    between atoms: C_1  and  C_2
REMARK    2  A    between atoms: C_2  and  C_3
REMARK    3  A    between atoms: C_3  and  C_4
REMARK    4  A    between atoms: C_4  and  N_5
REMARK    5  A    between atoms: N_5  and  C_6
REMARK    6  A    between atoms: C_6  and  C_8
REMARK    7  A    between atoms: C_6  and  C_9
REMARK    8  A    between atoms: C_9  and  C_10
REMARK    9  A    between atoms: C_11  and  C_13
REMARK   10  A    between atoms: C_13  and  S_14
REMARK   11  A    between atoms: S_14  and  C_15
REMARK   12  A    between atoms: C_19  and  C_33
REMARK   13  A    between atoms: N_25  and  C_26
REMARK   14  A    between atoms: C_26  and  C_27
REMARK                            x       y       z     vdW  Elec       q    Type
REMARK                         _______ _______ _______ _____ _____    ______ ____
ROOT
ATOM      1  C   UNL     1       0.002  -0.004   0.002  0.00  0.00    +0.173 A 
ATOM      2  N   UNL     1       1.110  -0.704  -0.012  0.00  0.00    -0.223 NA
ATOM      3  C   UNL     1       2.325  -0.107  -0.020  0.00  0.00    +0.080 A 
ATOM      4  C   UNL     1       3.505  -0.855  -0.036  0.00  0.00    +0.043 A 
ATOM      5  C   UNL     1       4.730  -0.199  -0.044  0.00  0.00    +0.065 A 
ATOM      6  C   UNL     1       4.786   1.201  -0.038  0.00  0.00    +0.016 A 
ATOM      7  C   UNL     1       3.639   1.942  -0.023  0.00  0.00    +0.016 A 
ATOM      8  C   UNL     1       2.399   1.304  -0.014  0.00  0.00    +0.065 A 
ATOM      9  C   UNL     1       1.139   2.065   0.002  0.00  0.00    +0.262 A 
ATOM     10  O   UNL     1       1.137   3.282   0.008  0.00  0.00    -0.267 OA
ATOM     11  N   UNL     1      -0.016   1.361   0.009  0.00  0.00    -0.285 N 
ENDROOT
BRANCH   5  12
ATOM     12  C   UNL     1       5.984  -0.984  -0.060  0.00  0.00    +0.387 C 
ATOM     13  O   UNL     1       5.940  -2.198  -0.066  0.00  0.00    -0.241 OA
ATOM     14  O   UNL     1       7.173  -0.353  -0.069  0.00  0.00    -0.241 OA
ENDBRANCH   5  12
BRANCH   1  15
ATOM     15  S   UNL     1      -1.535  -0.865   0.012  0.00  0.00    -0.078 S 
BRANCH  15  16
ATOM     16  C   UNL     1      -0.939  -2.574  -0.003  0.00  0.00    +0.173 C 
BRANCH  16  18
ATOM     17  N   UNL     1      -1.910  -4.849  -0.006  0.00  0.00    -0.298 N 
ATOM     18  C   UNL     1      -2.114  -3.517   0.003  0.00  0.00    +0.226 C 
ATOM     19  O   UNL     1      -3.244  -3.076   0.017  0.00  0.00    -0.275 OA
BRANCH  17  20
ATOM     20  C   UNL     1      -0.545  -5.380  -0.022  0.00  0.00    +0.073 C 
ATOM     21  C   UNL     1      -0.343  -6.231  -1.277  0.00  0.00    +0.028 C 
BRANCH  20  22
ATOM     22  C   UNL     1      -0.319  -6.244   1.221  0.00  0.00    +0.019 C 
ATOM     23  C   UNL     1      -0.398  -5.368   2.473  0.00  0.00    +0.005 C 
ENDBRANCH  20  22
ENDBRANCH  17  20
BRANCH  17  24
ATOM     24  C   UNL     1      -3.053  -5.765   0.000  0.00  0.00    +0.108 C 
BRANCH  24  25
ATOM     25  C   UNL     1      -3.464  -6.077  -1.440  0.00  0.00    +0.019 C 
BRANCH  25  27
ATOM     26  C   UNL     1      -5.070  -7.345  -2.874  0.00  0.00    +0.004 C 
ATOM     27  C   UNL     1      -4.658  -7.034  -1.434  0.00  0.00    -0.002 C 
ENDBRANCH  25  27
ENDBRANCH  24  25
ENDBRANCH  17  24
ENDBRANCH  16  18
ENDBRANCH  15  16
ENDBRANCH   1  15
BRANCH  11  28
ATOM     28  C   UNL     1      -1.298   2.071   0.019  0.00  0.00    +0.159 C 
BRANCH  28  29
ATOM     29  C   UNL     1      -1.738   2.309   1.465  0.00  0.00    +0.138 C 
ATOM     30  C   UNL     1      -3.127   2.996   1.499  0.00  0.00    +0.035 C 
ATOM     31  C   UNL     1      -3.637   2.560   2.900  0.00  0.00    +0.031 C 
ATOM     32  C   UNL     1      -3.034   1.146   3.043  0.00  0.00    +0.160 C 
ATOM     33  O   UNL     1      -1.922   1.057   2.144  0.00  0.00    -0.375 OA
ENDBRANCH  28  29
ENDBRANCH  11  28
TORSDOF 11
