REMARK  Name = ZINC24878099
REMARK  10 active torsions:
REMARK  status: ('A' for Active; 'I' for Inactive)
REMARK    1  A    between atoms: C_4  and  C_7
REMARK    2  A    between atoms: C_7  and  C_8
REMARK    3  A    between atoms: C_8  and  C_9
REMARK    4  A    between atoms: C_9  and  N_10
REMARK    5  A    between atoms: C_13  and  N_16
REMARK    6  A    between atoms: N_16  and  C_17
REMARK    7  A    between atoms: N_16  and  S_25
REMARK    8  A    between atoms: C_17  and  C_18
REMARK    9  A    between atoms: C_18  and  C_19
REMARK   10  A    between atoms: S_25  and  C_28
REMARK                            x       y       z     vdW  Elec       q    Type
REMARK                         _______ _______ _______ _____ _____    ______ ____
ROOT
ATOM      1  N   UNL     1       1.502   2.070   0.007  0.00  0.00    -0.173 NA
ENDROOT
BRANCH   1   5
ATOM      2  N   UNL     1       2.234   2.214  -4.140  0.00  0.00    +0.380 N 
ATOM      3  C   UNL     1       2.860   1.112  -3.398  0.00  0.00    -0.077 C 
ATOM      4  C   UNL     1       2.144   0.925  -2.058  0.00  0.00    +0.002 C 
ATOM      5  C   UNL     1       2.235   2.224  -1.252  0.00  0.00    +0.076 C 
ATOM      6  C   UNL     1       1.620   3.365  -2.066  0.00  0.00    +0.002 C 
ATOM      7  C   UNL     1       2.351   3.481  -3.406  0.00  0.00    -0.077 C 
ATOM      8  H   UNL     1       1.163   1.984  -4.243  0.00  0.00    -0.082 HD
BRANCH   2   9
ATOM      9  C   UNL     1       2.804   2.332  -5.488  0.00  0.00    -0.079 C 
BRANCH   9  10
ATOM     10  C   UNL     1       2.316   3.629  -6.137  0.00  0.00    -0.014 C 
BRANCH  10  11
ATOM     11  C   UNL     1       2.910   3.752  -7.541  0.00  0.00    +0.033 C 
BRANCH  11  15
ATOM     12  C   UNL     1       1.548   7.374  -9.351  0.00  0.00    +0.000 A 
ATOM     13  C   UNL     1       2.713   7.369  -8.608  0.00  0.00    +0.000 A 
ATOM     14  C   UNL     1       3.154   6.197  -8.022  0.00  0.00    +0.003 A 
ATOM     15  C   UNL     1       2.430   5.030  -8.180  0.00  0.00    -0.047 A 
ATOM     16  C   UNL     1       1.267   5.034  -8.928  0.00  0.00    +0.003 A 
ATOM     17  C   UNL     1       0.824   6.207  -9.509  0.00  0.00    +0.000 A 
ENDBRANCH  11  15
ENDBRANCH  10  11
ENDBRANCH   9  10
ENDBRANCH   2   9
ENDBRANCH   1   5
BRANCH   1  18
ATOM     18  S   UNL     1       2.318   2.094   1.448  0.00  0.00    +0.064 S 
ATOM     19  O   UNL     1       3.451   2.930   1.260  0.00  0.00    -0.153 OA
ATOM     20  O   UNL     1       1.349   2.340   2.459  0.00  0.00    -0.153 OA
BRANCH  18  21
ATOM     21  C   UNL     1       2.933   0.467   1.726  0.00  0.00    +0.140 A 
ATOM     22  C   UNL     1       4.295   0.235   1.735  0.00  0.00    +0.031 A 
ATOM     23  C   UNL     1       4.778  -1.042   1.954  0.00  0.00    +0.002 A 
ATOM     24  C   UNL     1       3.899  -2.088   2.163  0.00  0.00    +0.003 A 
ATOM     25  C   UNL     1       2.537  -1.859   2.155  0.00  0.00    +0.040 A 
ATOM     26  C   UNL     1       2.052  -0.579   1.940  0.00  0.00    +0.150 A 
ATOM     27  F   UNL     1       0.720  -0.353   1.937  0.00  0.00    -0.203 F 
ENDBRANCH  18  21
ENDBRANCH   1  18
BRANCH   1  28
ATOM     28  C   UNL     1       0.048   1.896  -0.009  0.00  0.00    +0.114 C 
BRANCH  28  29
ATOM     29  C   UNL     1      -0.631   3.267  -0.019  0.00  0.00    +0.052 C 
BRANCH  29  30
ATOM     30  C   UNL     1      -2.125   3.088  -0.090  0.00  0.00    -0.046 A 
ATOM     31  C   UNL     1      -2.757   3.028  -1.318  0.00  0.00    +0.003 A 
ATOM     32  C   UNL     1      -4.128   2.859  -1.382  0.00  0.00    +0.000 A 
ATOM     33  C   UNL     1      -4.867   2.759  -0.218  0.00  0.00    +0.000 A 
ATOM     34  C   UNL     1      -4.236   2.824   1.010  0.00  0.00    +0.000 A 
ATOM     35  C   UNL     1      -2.865   2.988   1.074  0.00  0.00    +0.003 A 
ENDBRANCH  29  30
ENDBRANCH  28  29
ENDBRANCH   1  28
TORSDOF 10
