REMARK  Name = ZINC08879824
REMARK  8 active torsions:
REMARK  status: ('A' for Active; 'I' for Inactive)
REMARK    1  A    between atoms: C_1  and  C_2
REMARK    2  A    between atoms: C_2  and  C_3
REMARK    3  A    between atoms: C_3  and  C_4
REMARK    4  A    between atoms: C_4  and  N_5
REMARK    5  A    between atoms: C_9  and  N_18
REMARK    6  A    between atoms: C_19  and  C_21
REMARK    7  A    between atoms: C_24  and  S_27
REMARK    8  A    between atoms: S_27  and  N_30
REMARK                            x       y       z     vdW  Elec       q    Type
REMARK                         _______ _______ _______ _____ _____    ______ ____
ROOT
ATOM      1  N   UNL     1       1.381  -2.017  -0.022  0.00  0.00    -0.281 N 
ATOM      2  C   UNL     1       2.594  -2.593  -0.139  0.00  0.00    +0.248 C 
ATOM      3  O   UNL     1       3.596  -1.905  -0.144  0.00  0.00    -0.270 OA
ATOM      4  H   UNL     1       0.587  -2.568   0.048  0.00  0.00    +0.155 HD
ENDROOT
BRANCH   1   9
ATOM      5  N   UNL     1       0.690   3.528  -0.079  0.00  0.00    -0.267 N 
ATOM      6  C   UNL     1       1.101   2.208   0.073  0.00  0.00    +0.045 A 
ATOM      7  C   UNL     1       2.179   1.546   0.636  0.00  0.00    +0.026 A 
ATOM      8  C   UNL     1       2.246   0.157   0.592  0.00  0.00    +0.026 A 
ATOM      9  C   UNL     1       1.269  -0.627  -0.002  0.00  0.00    +0.042 A 
ATOM     10  C   UNL     1       0.158   0.018  -0.586  0.00  0.00    +0.006 A 
ATOM     11  C   UNL     1       0.128   1.412  -0.520  0.00  0.00    +0.017 A 
ATOM     12  C   UNL     1      -0.899   2.205  -1.055  0.00  0.00    +0.047 A 
ATOM     13  C   UNL     1      -1.937   1.538  -1.684  0.00  0.00    +0.014 A 
ATOM     14  C   UNL     1      -1.920   0.147  -1.756  0.00  0.00    +0.001 A 
ATOM     15  C   UNL     1      -0.915  -0.619  -1.226  0.00  0.00    +0.010 A 
ATOM     16  C   UNL     1      -0.496   3.579  -0.741  0.00  0.00    +0.251 C 
ATOM     17  O   UNL     1      -1.113   4.589  -1.026  0.00  0.00    -0.270 OA
BRANCH   5  18
ATOM     18  C   UNL     1       1.429   4.696   0.406  0.00  0.00    +0.114 C 
BRANCH  18  19
ATOM     19  C   UNL     1       2.391   5.178  -0.681  0.00  0.00    +0.019 C 
BRANCH  19  21
ATOM     20  C   UNL     1       4.126   6.881  -1.261  0.00  0.00    +0.004 C 
ATOM     21  C   UNL     1       3.163   6.399  -0.174  0.00  0.00    -0.002 C 
ENDBRANCH  19  21
ENDBRANCH  18  19
ENDBRANCH   5  18
ENDBRANCH   1   9
BRANCH   2  22
ATOM     22  C   UNL     1       2.706  -4.062  -0.259  0.00  0.00    +0.037 A 
ATOM     23  C   UNL     1       1.557  -4.856  -0.247  0.00  0.00    +0.015 A 
ATOM     24  C   UNL     1       1.668  -6.226  -0.366  0.00  0.00    +0.029 A 
ATOM     25  C   UNL     1       2.915  -6.814  -0.485  0.00  0.00    +0.106 A 
ATOM     26  C   UNL     1       4.057  -6.034  -0.492  0.00  0.00    +0.029 A 
ATOM     27  C   UNL     1       3.960  -4.662  -0.380  0.00  0.00    +0.015 A 
BRANCH  25  28
ATOM     28  S   UNL     1       3.047  -8.565  -0.630  0.00  0.00    +0.061 S 
ATOM     29  O   UNL     1       1.806  -9.025  -1.146  0.00  0.00    -0.153 OA
ATOM     30  O   UNL     1       4.285  -8.826  -1.277  0.00  0.00    -0.153 OA
BRANCH  28  31
ATOM     31  N   UNL     1       3.178  -9.175   0.904  0.00  0.00    -0.177 NA
ATOM     32  C   UNL     1       4.495  -9.334   1.477  0.00  0.00    +0.109 C 
ATOM     33  C   UNL     1       5.056 -10.729   1.127  0.00  0.00    +0.017 C 
ATOM     34  C   UNL     1       4.337 -11.770   1.876  0.00  0.00    +0.001 C 
ATOM     35  C   UNL     1       2.849 -11.866   1.550  0.00  0.00    +0.001 C 
ATOM     36  C   UNL     1       2.088 -10.869   2.389  0.00  0.00    +0.017 C 
ATOM     37  C   UNL     1       1.944  -9.539   1.628  0.00  0.00    +0.109 C 
ENDBRANCH  28  31
ENDBRANCH  25  28
ENDBRANCH   2  22
TORSDOF 7
