REMARK  Name = ZINC16256413
REMARK  10 active torsions:
REMARK  status: ('A' for Active; 'I' for Inactive)
REMARK    1  A    between atoms: C_1  and  C_2
REMARK    2  A    between atoms: C_3  and  C_16
REMARK    3  A    between atoms: C_4  and  C_15
REMARK    4  A    between atoms: C_9  and  C_11
REMARK    5  A    between atoms: C_16  and  C_17
REMARK    6  A    between atoms: C_17  and  C_18
REMARK    7  A    between atoms: C_18  and  O_20
REMARK    8  A    between atoms: O_20  and  C_21
REMARK    9  A    between atoms: C_21  and  C_22
REMARK   10  A    between atoms: N_24  and  C_25
REMARK                            x       y       z     vdW  Elec       q    Type
REMARK                         _______ _______ _______ _____ _____    ______ ____
ROOT
ATOM      1  C   UNL     1      -2.899   0.362   1.456  0.00  0.00    +0.125 C 
ENDROOT
BRANCH   1   2
ATOM      2  C   UNL     1      -4.217   1.092   1.467  0.00  0.00    +0.308 C 
ATOM      3  O   UNL     1      -4.795   1.312   0.429  0.00  0.00    -0.251 OA
BRANCH   2   4
ATOM      4  O   UNL     1      -4.749   1.499   2.631  0.00  0.00    -0.455 OA
BRANCH   4   5
ATOM      5  C   UNL     1      -6.000   2.186   2.567  0.00  0.00    +0.327 C 
BRANCH   5   6
ATOM      6  C   UNL     1      -6.438   2.562   3.959  0.00  0.00    +0.251 C 
ATOM      7  O   UNL     1      -5.747   2.272   4.912  0.00  0.00    -0.272 OA
ATOM      8  N   UNL     1      -7.599   3.223   4.144  0.00  0.00    -0.310 N 
ATOM      9  H   UNL     1      -8.152   3.455   3.382  0.00  0.00    +0.149 HD
BRANCH   8  10
ATOM     10  C   UNL     1      -8.024   3.589   5.498  0.00  0.00    +0.073 C 
ATOM     11  C   UNL     1      -8.762   2.411   6.137  0.00  0.00    +0.022 C 
ATOM     12  C   UNL     1      -8.856   2.628   7.648  0.00  0.00    +0.002 C 
ATOM     13  C   UNL     1      -7.508   3.120   8.178  0.00  0.00    +0.000 C 
ATOM     14  C   UNL     1      -7.649   4.561   8.671  0.00  0.00    +0.000 C 
ATOM     15  C   UNL     1      -7.704   5.507   7.470  0.00  0.00    +0.000 C 
ATOM     16  C   UNL     1      -9.086   5.425   6.819  0.00  0.00    +0.002 C 
ATOM     17  C   UNL     1      -8.959   4.799   5.428  0.00  0.00    +0.022 C 
ENDBRANCH   8  10
ENDBRANCH   5   6
ENDBRANCH   4   5
ENDBRANCH   2   4
ENDBRANCH   1   2
BRANCH   1  18
ATOM     18  C   UNL     1      -2.521   0.013   0.015  0.00  0.00    +0.050 C 
BRANCH  18  21
ATOM     19  C   UNL     1      -0.018   1.503   0.010  0.00  0.00    +0.066 C 
ATOM     20  C   UNL     1       0.002  -0.004   0.002  0.00  0.00    +0.047 A 
ATOM     21  C   UNL     1      -1.203  -0.717   0.004  0.00  0.00    -0.005 A 
ATOM     22  C   UNL     1      -1.170  -2.075  -0.004  0.00  0.00    +0.048 A 
ATOM     23  N   UNL     1       0.034  -2.706  -0.014  0.00  0.00    -0.200 N 
ATOM     24  C   UNL     1       1.192  -1.980  -0.015  0.00  0.00    +0.254 A 
ATOM     25  N   UNL     1       1.150  -0.642  -0.012  0.00  0.00    -0.216 NA
ATOM     26  N   UNL     1       2.199  -2.846  -0.025  0.00  0.00    -0.186 NA
ATOM     27  C   UNL     1       1.725  -4.084  -0.030  0.00  0.00    +0.257 A 
ATOM     28  N   UNL     1       0.413  -4.054  -0.023  0.00  0.00    -0.139 NA
ATOM     29  C   UNL     1      -2.450  -2.870  -0.002  0.00  0.00    +0.066 C 
BRANCH  27  30
ATOM     30  C   UNL     1       2.565  -5.336  -0.042  0.00  0.00    +0.454 C 
ATOM     31  F   UNL     1       3.884  -5.015   0.295  0.00  0.00    -0.163 F 
ATOM     32  F   UNL     1       2.055  -6.248   0.888  0.00  0.00    -0.163 F 
ATOM     33  F   UNL     1       2.535  -5.905  -1.319  0.00  0.00    -0.163 F 
ENDBRANCH  27  30
ENDBRANCH  18  21
ENDBRANCH   1  18
TORSDOF 8
