REMARK  Name = ZINC04992313
REMARK  9 active torsions:
REMARK  status: ('A' for Active; 'I' for Inactive)
REMARK    1  A    between atoms: C_1  and  C_2
REMARK    2  A    between atoms: C_7  and  N_8
REMARK    3  A    between atoms: C_9  and  C_23
REMARK    4  A    between atoms: C_11  and  O_15
REMARK    5  A    between atoms: O_15  and  C_16
REMARK    6  A    between atoms: C_23  and  N_58
REMARK    7  A    between atoms: C_24  and  C_25
REMARK    8  A    between atoms: C_24  and  N_58
REMARK    9  A    between atoms: C_25  and  C_26
REMARK                            x       y       z     vdW  Elec       q    Type
REMARK                         _______ _______ _______ _____ _____    ______ ____
ROOT
ATOM      1  N   UNL     1      -0.027   7.844  -6.117  0.00  0.00    -0.263 N 
ATOM      2  C   UNL     1       0.333   6.425  -6.151  0.00  0.00    +0.114 C 
ATOM      3  C   UNL     1       1.533   6.735  -7.047  0.00  0.00    +0.278 C 
ATOM      4  C   UNL     1       1.022   8.145  -6.905  0.00  0.00    +0.263 C 
ATOM      5  O   UNL     1       1.423   9.199  -7.352  0.00  0.00    -0.271 OA
ENDROOT
BRANCH   1  12
ATOM      6  C   UNL     1      -2.442   8.241  -7.568  0.00  0.00    +0.045 C 
ATOM      7  C   UNL     1      -2.242   8.803  -6.184  0.00  0.00    -0.029 A 
ATOM      8  C   UNL     1      -3.247   9.536  -5.584  0.00  0.00    +0.005 A 
ATOM      9  C   UNL     1      -3.064  10.052  -4.314  0.00  0.00    +0.000 A 
ATOM     10  C   UNL     1      -1.875   9.837  -3.642  0.00  0.00    +0.002 A 
ATOM     11  C   UNL     1      -0.868   9.101  -4.235  0.00  0.00    +0.024 A 
ATOM     12  C   UNL     1      -1.047   8.585  -5.512  0.00  0.00    +0.040 A 
ENDBRANCH   1  12
BRANCH   3  13
ATOM     13  O   UNL     1       2.802   6.503  -6.434  0.00  0.00    -0.478 OA
BRANCH  13  14
ATOM     14  C   UNL     1       3.857   6.283  -7.263  0.00  0.00    +0.122 A 
ATOM     15  C   UNL     1       3.698   6.402  -8.636  0.00  0.00    +0.047 A 
ATOM     16  C   UNL     1       4.772   6.183  -9.476  0.00  0.00    +0.023 A 
ATOM     17  C   UNL     1       6.004   5.835  -8.950  0.00  0.00    +0.041 A 
ATOM     18  C   UNL     1       6.163   5.710  -7.581  0.00  0.00    +0.023 A 
ATOM     19  C   UNL     1       5.092   5.934  -6.737  0.00  0.00    +0.047 A 
ATOM     20 CL   UNL     1       7.351   5.554 -10.008  0.00  0.00    -0.084 Cl
ENDBRANCH  13  14
ENDBRANCH   3  13
BRANCH   2  21
ATOM     21  C   UNL     1       0.735   5.876  -4.781  0.00  0.00    -0.055 C 
BRANCH  21  22
ATOM     22  N   UNL     1      -0.475   5.708  -3.954  0.00  0.00    +0.381 N 
ATOM     23  H   UNL     1      -1.114   5.052  -4.419  0.00  0.00    -0.086 HD
ATOM     24  H   UNL     1      -0.939   6.617  -3.843  0.00  0.00    -0.086 HD
BRANCH  22  25
ATOM     25  C   UNL     1      -0.117   5.179  -2.625  0.00  0.00    -0.078 C 
BRANCH  25  26
ATOM     26  C   UNL     1      -1.390   5.015  -1.791  0.00  0.00    +0.011 C 
BRANCH  26  27
ATOM     27  C   UNL     1      -1.033   4.474  -0.430  0.00  0.00    -0.075 C 
ATOM     28  C   UNL     1      -0.866   5.321   0.534  0.00  0.00    -0.028 C 
ATOM     29  C   UNL     1      -0.498   4.936   1.937  0.00  0.00    +0.027 C 
ATOM     30  C   UNL     1      -0.762   3.446   2.164  0.00  0.00    +0.004 C 
ATOM     31  C   UNL     1      -0.132   2.659   1.008  0.00  0.00    +0.005 C 
ATOM     32  C   UNL     1      -0.893   2.988  -0.278  0.00  0.00    +0.030 C 
ENDBRANCH  26  27
ENDBRANCH  25  26
ENDBRANCH  22  25
ENDBRANCH  21  22
ENDBRANCH   2  21
TORSDOF 8
