REMARK  Name = ZINC02493127
REMARK  6 active torsions:
REMARK  status: ('A' for Active; 'I' for Inactive)
REMARK    1  A    between atoms: C_2  and  C_3
REMARK    2  A    between atoms: C_3  and  N_4
REMARK    3  A    between atoms: C_11  and  C_14
REMARK    4  A    between atoms: C_11  and  O_23
REMARK    5  A    between atoms: C_14  and  C_15
REMARK    6  A    between atoms: C_15  and  C_17
REMARK                            x       y       z     vdW  Elec       q    Type
REMARK                         _______ _______ _______ _____ _____    ______ ____
ROOT
ATOM      1  N   UNL     1      -5.019   6.513  -1.848  0.00  0.00    -0.257 N 
ATOM      2  C   UNL     1      -4.595   7.709  -1.268  0.00  0.00    +0.044 A 
ATOM      3  C   UNL     1      -4.768   9.031  -1.674  0.00  0.00    +0.025 A 
ATOM      4  C   UNL     1      -4.247  10.064  -0.911  0.00  0.00    +0.017 A 
ATOM      5  C   UNL     1      -3.550   9.792   0.254  0.00  0.00    +0.018 A 
ATOM      6  C   UNL     1      -3.374   8.480   0.661  0.00  0.00    +0.024 A 
ATOM      7  C   UNL     1      -3.893   7.452  -0.094  0.00  0.00    +0.016 A 
ATOM      8  C   UNL     1      -3.878   5.950   0.069  0.00  0.00    +0.176 C 
ATOM      9  C   UNL     1      -4.644   5.439  -1.133  0.00  0.00    +0.257 C 
ATOM     10  O   UNL     1      -4.875   4.279  -1.401  0.00  0.00    -0.272 OA
ATOM     11 BR   UNL     1      -2.841  11.209   1.286  0.00  0.00    -0.050 Br
ENDROOT
BRANCH   8  12
ATOM     12  O   UNL     1      -4.535   5.571   1.279  0.00  0.00    -0.374 OA
ATOM     13  H   UNL     1      -4.581   4.615   1.420  0.00  0.00    +0.211 HD
ENDBRANCH   8  12
BRANCH   1  14
ATOM     14  C   UNL     1      -5.788   6.437  -3.093  0.00  0.00    +0.202 C 
BRANCH  14  16
ATOM     15  C   UNL     1      -8.374   6.513  -2.540  0.00  0.00    +0.005 C 
ATOM     16  C   UNL     1      -7.226   6.479  -2.786  0.00  0.00    -0.086 C 
ENDBRANCH  14  16
ENDBRANCH   1  14
BRANCH   8  17
ATOM     17  C   UNL     1      -2.441   5.423   0.052  0.00  0.00    +0.130 C 
BRANCH  17  18
ATOM     18  C   UNL     1      -2.459   3.916   0.045  0.00  0.00    +0.185 C 
ATOM     19  O   UNL     1      -3.516   3.322   0.052  0.00  0.00    -0.290 OA
BRANCH  18  20
ATOM     20  C   UNL     1      -1.190   3.163   0.029  0.00  0.00    +0.106 A 
ATOM     21  C   UNL     1      -1.213   1.768   0.017  0.00  0.00    +0.031 A 
ATOM     22  C   UNL     1      -0.013   1.076   0.008  0.00  0.00    +0.004 A 
ATOM     23  C   UNL     1       1.169   1.801   0.001  0.00  0.00    +0.020 A 
ATOM     24  C   UNL     1       1.117   3.186   0.008  0.00  0.00    +0.111 A 
ATOM     25  N   UNL     1      -0.035   3.819   0.022  0.00  0.00    -0.252 NA
ENDBRANCH  18  20
ENDBRANCH  17  18
ENDBRANCH   8  17
TORSDOF 6
