REMARK  Name = ZINC37360954
REMARK  6 active torsions:
REMARK  status: ('A' for Active; 'I' for Inactive)
REMARK    1  A    between atoms: C_4  and  C_7
REMARK    2  A    between atoms: C_7  and  C_8
REMARK    3  A    between atoms: C_8  and  N_9
REMARK    4  A    between atoms: C_12  and  C_27
REMARK    5  A    between atoms: C_14  and  N_26
REMARK    6  A    between atoms: N_15  and  C_19
REMARK                            x       y       z     vdW  Elec       q    Type
REMARK                         _______ _______ _______ _____ _____    ______ ____
ROOT
ATOM      1  N   UNL     1       5.924  -0.639   1.630  0.00  0.00    -0.313 N 
ATOM      2  C   UNL     1       6.457  -1.153   2.799  0.00  0.00    +0.218 A 
ATOM      3  N   UNL     1       7.678  -1.679   2.754  0.00  0.00    -0.214 NA
ATOM      4  C   UNL     1       8.264  -2.194   3.828  0.00  0.00    +0.089 A 
ATOM      5  C   UNL     1       7.556  -2.175   5.051  0.00  0.00    +0.086 A 
ATOM      6  C   UNL     1       7.805  -2.596   6.351  0.00  0.00    +0.131 A 
ATOM      7  N   UNL     1       6.719  -2.294   7.090  0.00  0.00    -0.215 N 
ATOM      8  N   UNL     1       5.754  -1.677   6.287  0.00  0.00    -0.144 NA
ATOM      9  C   UNL     1       6.207  -1.582   5.056  0.00  0.00    +0.189 A 
ATOM     10  N   UNL     1       5.731  -1.090   3.896  0.00  0.00    -0.193 NA
ATOM     11  H   UNL     1       6.437  -0.672   0.807  0.00  0.00    +0.149 HD
ENDROOT
BRANCH   4  12
ATOM     12  C   UNL     1       9.623  -2.773   3.746  0.00  0.00    +0.003 A 
ATOM     13  C   UNL     1       9.905  -3.988   4.372  0.00  0.00    +0.013 A 
ATOM     14  C   UNL     1      11.173  -4.524   4.293  0.00  0.00    +0.040 A 
ATOM     15  C   UNL     1      12.168  -3.859   3.594  0.00  0.00    +0.142 A 
ATOM     16  C   UNL     1      11.893  -2.651   2.970  0.00  0.00    +0.077 A 
ATOM     17  C   UNL     1      10.626  -2.109   3.038  0.00  0.00    +0.033 A 
ATOM     18 CL   UNL     1      13.144  -1.823   2.096  0.00  0.00    -0.081 Cl
ATOM     19  F   UNL     1      13.408  -4.388   3.519  0.00  0.00    -0.204 F 
ENDBRANCH   4  12
BRANCH   7  20
ATOM     20  C   UNL     1       6.578  -2.560   8.457  0.00  0.00    +0.086 A 
ATOM     21  C   UNL     1       7.663  -3.019   9.193  0.00  0.00    +0.029 A 
ATOM     22  C   UNL     1       7.520  -3.279  10.542  0.00  0.00    +0.002 A 
ATOM     23  C   UNL     1       6.298  -3.084  11.161  0.00  0.00    +0.002 A 
ATOM     24  C   UNL     1       5.216  -2.628  10.432  0.00  0.00    +0.022 A 
ATOM     25  C   UNL     1       5.353  -2.360   9.083  0.00  0.00    +0.066 A 
ATOM     26 CL   UNL     1       3.995  -1.780   8.169  0.00  0.00    -0.081 Cl
ENDBRANCH   7  20
BRANCH   6  27
ATOM     27  N   UNL     1       8.957  -3.212   6.805  0.00  0.00    -0.342 N 
ATOM     28  H   UNL     1       9.825  -2.893   6.511  0.00  0.00    +0.144 HD
ATOM     29  H   UNL     1       8.897  -3.962   7.416  0.00  0.00    +0.144 HD
ENDBRANCH   6  27
BRANCH   1  30
ATOM     30  C   UNL     1       4.585  -0.045   1.636  0.00  0.00    +0.109 C 
BRANCH  30  31
ATOM     31  C   UNL     1       4.238   0.443   0.228  0.00  0.00    +0.054 C 
BRANCH  31  35
ATOM     32  C   UNL     1       0.334   2.177   0.242  0.00  0.00    +0.000 A 
ATOM     33  C   UNL     1       1.441   2.965   0.494  0.00  0.00    +0.000 A 
ATOM     34  C   UNL     1       2.704   2.404   0.490  0.00  0.00    +0.004 A 
ATOM     35  C   UNL     1       2.861   1.055   0.234  0.00  0.00    -0.046 A 
ATOM     36  C   UNL     1       1.753   0.266  -0.017  0.00  0.00    +0.004 A 
ATOM     37  C   UNL     1       0.490   0.828  -0.015  0.00  0.00    +0.000 A 
ENDBRANCH  31  35
ENDBRANCH  30  31
ENDBRANCH   1  30
TORSDOF 6
