REMARK  Name = ZINC35032443
REMARK  13 active torsions:
REMARK  status: ('A' for Active; 'I' for Inactive)
REMARK    1  A    between atoms: C_1  and  C_2
REMARK    2  A    between atoms: C_2  and  C_3
REMARK    3  A    between atoms: C_3  and  N_4
REMARK    4  A    between atoms: C_14  and  C_15
REMARK    5  A    between atoms: C_15  and  C_17
REMARK    6  A    between atoms: C_15  and  N_18
REMARK    7  A    between atoms: N_18  and  C_19
REMARK    8  A    between atoms: C_19  and  C_20
REMARK    9  A    between atoms: C_20  and  N_21
REMARK   10  A    between atoms: N_21  and  C_22
REMARK   11  A    between atoms: N_21  and  C_23
REMARK   12  A    between atoms: N_26  and  C_27
REMARK   13  A    between atoms: C_30  and  N_33
REMARK                            x       y       z     vdW  Elec       q    Type
REMARK                         _______ _______ _______ _____ _____    ______ ____
ROOT
ATOM      1  N   UNL     1      -1.107  -3.026   3.714  0.00  0.00    -0.277 N 
ATOM      2  C   UNL     1      -2.048  -2.938   4.675  0.00  0.00    +0.307 C 
ATOM      3  O   UNL     1      -3.036  -2.252   4.497  0.00  0.00    -0.252 OA
ATOM      4  N   UNL     1      -1.894  -3.611   5.833  0.00  0.00    -0.269 N 
ATOM      5  H   UNL     1      -1.074  -4.099   6.005  0.00  0.00    +0.156 HD
ENDROOT
BRANCH   4   6
ATOM      6  C   UNL     1      -2.917  -3.604   6.787  0.00  0.00    +0.035 A 
ATOM      7  C   UNL     1      -2.607  -3.631   8.141  0.00  0.00    +0.025 A 
ATOM      8  C   UNL     1      -3.619  -3.624   9.080  0.00  0.00    +0.034 A 
ATOM      9  C   UNL     1      -4.941  -3.589   8.675  0.00  0.00    +0.126 A 
ATOM     10  C   UNL     1      -5.253  -3.562   7.328  0.00  0.00    +0.034 A 
ATOM     11  C   UNL     1      -4.245  -3.563   6.383  0.00  0.00    +0.025 A 
BRANCH   9  12
ATOM     12  N   UNL     1      -6.023  -3.582   9.684  0.00  0.00    +0.056 N 
ATOM     13  O   UNL     1      -5.751  -3.606  10.862  0.00  0.00    -0.126 OA
ATOM     14  O   UNL     1      -7.179  -3.551   9.331  0.00  0.00    -0.126 OA
ENDBRANCH   9  12
ENDBRANCH   4   6
BRANCH   1  15
ATOM     15  C   UNL     1      -1.274  -2.296   2.456  0.00  0.00    +0.141 C 
ATOM     16  C   UNL     1      -0.109  -1.320   2.273  0.00  0.00    +0.036 C 
BRANCH  15  27
ATOM     17  N   UNL     1      -2.448  -3.406   0.599  0.00  0.00    -0.295 N 
ATOM     18  C   UNL     1      -2.518  -4.265  -0.445  0.00  0.00    +0.262 A 
ATOM     19  O   UNL     1      -3.541  -4.392  -1.092  0.00  0.00    -0.267 OA
ATOM     20  C   UNL     1      -1.310  -5.038  -0.768  0.00  0.00    +0.065 A 
ATOM     21  C   UNL     1      -1.276  -5.948  -1.823  0.00  0.00    +0.015 A 
ATOM     22  C   UNL     1      -0.117  -6.645  -2.081  0.00  0.00    +0.001 A 
ATOM     23  C   UNL     1       1.014  -6.449  -1.300  0.00  0.00    +0.002 A 
ATOM     24  C   UNL     1       1.002  -5.555  -0.253  0.00  0.00    +0.028 A 
ATOM     25  C   UNL     1      -0.161  -4.835   0.028  0.00  0.00    +0.078 A 
ATOM     26  N   UNL     1      -0.217  -3.944   1.050  0.00  0.00    -0.232 NA
ATOM     27  C   UNL     1      -1.297  -3.271   1.307  0.00  0.00    +0.133 A 
BRANCH  17  28
ATOM     28  C   UNL     1      -3.623  -2.611   0.964  0.00  0.00    +0.126 C 
BRANCH  28  30
ATOM     29  C   UNL     1      -4.816  -0.449   0.584  0.00  0.00    +0.005 C 
ATOM     30  C   UNL     1      -3.535  -1.236   0.297  0.00  0.00    +0.018 C 
ENDBRANCH  28  30
ENDBRANCH  17  28
ENDBRANCH  15  27
ENDBRANCH   1  15
BRANCH   1  31
ATOM     31  C   UNL     1       0.084  -3.853   3.929  0.00  0.00    +0.091 C 
BRANCH  31  32
ATOM     32  C   UNL     1       1.184  -3.006   4.571  0.00  0.00    -0.060 C 
BRANCH  32  33
ATOM     33  N   UNL     1       2.378  -3.834   4.786  0.00  0.00    +0.377 N 
ATOM     34  C   UNL     1       3.472  -2.995   5.291  0.00  0.00    -0.097 C 
ATOM     35  C   UNL     1       2.074  -4.885   5.766  0.00  0.00    -0.097 C 
ATOM     36  H   UNL     1       2.654  -4.258   3.913  0.00  0.00    -0.083 HD
ENDBRANCH  32  33
ENDBRANCH  31  32
ENDBRANCH   1  31
TORSDOF 9
