REMARK  Name = ZINC65486885
REMARK  11 active torsions:
REMARK  status: ('A' for Active; 'I' for Inactive)
REMARK    1  A    between atoms: C_1  and  C_2
REMARK    2  A    between atoms: C_3  and  C_9
REMARK    3  A    between atoms: C_4  and  C_8
REMARK    4  A    between atoms: N_5  and  C_7
REMARK    5  A    between atoms: C_9  and  C_10
REMARK    6  A    between atoms: C_9  and  N_11
REMARK    7  A    between atoms: N_14  and  C_15
REMARK    8  A    between atoms: C_20  and  C_21
REMARK    9  A    between atoms: C_21  and  C_22
REMARK   10  A    between atoms: C_21  and  C_23
REMARK   11  A    between atoms: C_21  and  C_24
REMARK                            x       y       z     vdW  Elec       q    Type
REMARK                         _______ _______ _______ _____ _____    ______ ____
ROOT
ATOM      1  N   UNL     1      -0.553   0.574  -3.436  0.00  0.00    -0.293 N 
ATOM      2  C   UNL     1      -1.235   1.026  -4.508  0.00  0.00    +0.300 C 
ATOM      3  O   UNL     1      -1.121   0.465  -5.581  0.00  0.00    -0.253 OA
ATOM      4  N   UNL     1      -2.042   2.099  -4.390  0.00  0.00    -0.296 N 
ATOM      5  H   UNL     1      -0.644   1.021  -2.580  0.00  0.00    +0.151 HD
ATOM      6  H   UNL     1      -2.132   2.546  -3.534  0.00  0.00    +0.151 HD
ENDROOT
BRANCH   4   7
ATOM      7  C   UNL     1      -2.782   2.590  -5.555  0.00  0.00    +0.078 C 
ATOM      8  C   UNL     1      -4.132   1.875  -5.639  0.00  0.00    +0.022 C 
ATOM      9  C   UNL     1      -4.937   2.154  -4.368  0.00  0.00    +0.002 C 
ATOM     10  C   UNL     1      -5.166   3.660  -4.229  0.00  0.00    +0.000 C 
ATOM     11  C   UNL     1      -3.816   4.375  -4.145  0.00  0.00    +0.006 C 
ATOM     12  C   UNL     1      -3.010   4.096  -5.416  0.00  0.00    +0.015 C 
BRANCH  12  13
ATOM     13  C   UNL     1      -1.660   4.811  -5.331  0.00  0.00    -0.033 C 
ATOM     14  C   UNL     1      -0.786   4.391  -6.514  0.00  0.00    +0.011 C 
ATOM     15  C   UNL     1      -1.881   6.324  -5.372  0.00  0.00    +0.011 C 
ATOM     16  C   UNL     1      -0.964   4.432  -4.022  0.00  0.00    +0.011 C 
ENDBRANCH  12  13
ENDBRANCH   4   7
BRANCH   1  17
ATOM     17  C   UNL     1       0.324  -0.593  -3.564  0.00  0.00    +0.105 C 
ATOM     18  C   UNL     1       1.713  -0.139  -4.017  0.00  0.00    +0.033 C 
BRANCH  17  21
ATOM     19  C   UNL     1       0.088  -3.714  -3.068  0.00  0.00    +0.068 C 
ATOM     20  C   UNL     1       0.329  -2.666  -2.012  0.00  0.00    +0.065 A 
ATOM     21  C   UNL     1       0.432  -1.288  -2.232  0.00  0.00    +0.016 A 
ATOM     22  C   UNL     1       0.648  -0.691  -1.037  0.00  0.00    +0.041 A 
ATOM     23  N   UNL     1       0.680  -1.656  -0.095  0.00  0.00    -0.271 N 
ATOM     24  N   UNL     1       0.472  -2.887  -0.730  0.00  0.00    -0.176 NA
ATOM     25  C   UNL     1       0.889  -1.452   1.341  0.00  0.00    +0.172 C 
ATOM     26  C   UNL     1       0.822   0.787  -0.801  0.00  0.00    +0.065 C 
ENDBRANCH  17  21
ENDBRANCH   1  17
TORSDOF 4
