REMARK  Name = ZINC63426853
REMARK  10 active torsions:
REMARK  status: ('A' for Active; 'I' for Inactive)
REMARK    1  A    between atoms: C_1  and  C_2
REMARK    2  A    between atoms: C_2  and  O_3
REMARK    3  A    between atoms: O_3  and  C_4
REMARK    4  A    between atoms: N_6  and  C_7
REMARK    5  A    between atoms: C_7  and  C_9
REMARK    6  A    between atoms: C_7  and  C_19
REMARK    7  A    between atoms: C_9  and  C_10
REMARK    8  A    between atoms: N_21  and  C_22
REMARK    9  A    between atoms: C_25  and  C_28
REMARK   10  A    between atoms: C_34  and  C_38
REMARK                            x       y       z     vdW  Elec       q    Type
REMARK                         _______ _______ _______ _____ _____    ______ ____
ROOT
ATOM      1  C   UNL     1       2.141  -4.417  -1.376  0.00  0.00    +0.238 C 
ATOM      2  O   UNL     1       2.117  -3.885  -0.286  0.00  0.00    -0.273 OA
ATOM      3  N   UNL     1       2.852  -5.547  -1.558  0.00  0.00    -0.284 N 
ATOM      4  H   UNL     1       2.811  -6.014  -2.408  0.00  0.00    +0.155 HD
ENDROOT
BRANCH   3   5
ATOM      5  C   UNL     1       3.650  -6.047  -0.523  0.00  0.00    +0.033 A 
ATOM      6  C   UNL     1       3.823  -7.417  -0.378  0.00  0.00    +0.023 A 
ATOM      7  C   UNL     1       4.611  -7.908   0.645  0.00  0.00    +0.008 A 
ATOM      8  C   UNL     1       5.227  -7.036   1.524  0.00  0.00    -0.017 A 
ATOM      9  C   UNL     1       5.056  -5.671   1.382  0.00  0.00    +0.008 A 
ATOM     10  C   UNL     1       4.275  -5.174   0.357  0.00  0.00    +0.023 A 
BRANCH   8  11
ATOM     11  C   UNL     1       6.086  -7.574   2.639  0.00  0.00    +0.164 C 
ATOM     12  N   UNL     1       6.124  -6.642   3.774  0.00  0.00    -0.327 N 
ATOM     13  C   UNL     1       7.361  -6.104   4.125  0.00  0.00    +0.042 A 
ATOM     14  C   UNL     1       7.592  -5.200   5.177  0.00  0.00    +0.024 A 
ATOM     15  C   UNL     1       8.854  -4.724   5.444  0.00  0.00    +0.005 A 
ATOM     16  C   UNL     1       9.941  -5.120   4.686  0.00  0.00    -0.049 A 
ATOM     17  C   UNL     1       9.744  -6.009   3.644  0.00  0.00    +0.020 A 
ATOM     18  C   UNL     1       8.480  -6.485   3.378  0.00  0.00    +0.031 A 
ATOM     19  S   UNL     1       7.857  -7.612   2.150  0.00  0.00    -0.096 S 
ATOM     20  C   UNL     1      11.319  -4.590   4.991  0.00  0.00    +0.044 C 
ATOM     21  H   UNL     1       5.318  -6.409   4.261  0.00  0.00    +0.147 HD
ENDBRANCH   8  11
ENDBRANCH   3   5
BRANCH   1  22
ATOM     22  C   UNL     1       1.377  -3.813  -2.526  0.00  0.00    +0.166 C 
BRANCH  22  25
ATOM     23  C   UNL     1       0.373  -2.067  -1.155  0.00  0.00    +0.401 C 
ATOM     24  O   UNL     1      -0.049  -2.932  -0.414  0.00  0.00    -0.226 OA
ATOM     25  N   UNL     1       1.097  -2.404  -2.240  0.00  0.00    -0.270 N 
ATOM     26  H   UNL     1       1.434  -1.713  -2.832  0.00  0.00    +0.153 HD
BRANCH  23  27
ATOM     27  O   UNL     1       0.116  -0.772  -0.893  0.00  0.00    -0.451 OA
BRANCH  27  29
ATOM     28  C   UNL     1      -0.845   1.026   0.406  0.00  0.00    +0.048 C 
ATOM     29  C   UNL     1      -0.658  -0.487   0.274  0.00  0.00    +0.230 C 
ENDBRANCH  27  29
ENDBRANCH  23  27
ENDBRANCH  22  25
BRANCH  22  30
ATOM     30  C   UNL     1       0.059  -4.567  -2.713  0.00  0.00    +0.065 C 
BRANCH  30  31
ATOM     31  C   UNL     1      -0.649  -4.045  -3.937  0.00  0.00    -0.039 C 
ATOM     32  C   UNL     1      -0.600  -4.561  -5.187  0.00  0.00    -0.001 A 
ATOM     33  C   UNL     1       0.100  -5.717  -5.758  0.00  0.00    +0.010 A 
ATOM     34  C   UNL     1      -0.048  -5.989  -7.075  0.00  0.00    +0.001 A 
ATOM     35  C   UNL     1      -0.851  -5.195  -7.905  0.00  0.00    +0.002 A 
ATOM     36  C   UNL     1      -1.525  -4.116  -7.453  0.00  0.00    +0.026 A 
ATOM     37  C   UNL     1      -1.442  -3.739  -6.085  0.00  0.00    +0.043 A 
ATOM     38  N   UNL     1      -1.990  -2.753  -5.416  0.00  0.00    -0.380 N 
ATOM     39  C   UNL     1      -1.562  -2.842  -4.016  0.00  0.00    +0.144 C 
ATOM     40  H   UNL     1      -2.583  -2.080  -5.785  0.00  0.00    +0.160 HD
ENDBRANCH  30  31
ENDBRANCH  22  30
ENDBRANCH   1  22
TORSDOF 8
