REMARK  Name = ZINC63479799
REMARK  4 active torsions:
REMARK  status: ('A' for Active; 'I' for Inactive)
REMARK    1  A    between atoms: C_1  and  C_2
REMARK    2  A    between atoms: C_6  and  N_8
REMARK    3  A    between atoms: C_13  and  C_30
REMARK    4  A    between atoms: C_30  and  C_31
REMARK                            x       y       z     vdW  Elec       q    Type
REMARK                         _______ _______ _______ _____ _____    ______ ____
ROOT
ATOM      1  N   UNL     1       0.050  -2.798   2.395  0.00  0.00    -0.210 N 
ATOM      2  C   UNL     1       0.141  -2.196   3.587  0.00  0.00    +0.232 C 
ATOM      3  O   UNL     1       0.223  -0.999   3.762  0.00  0.00    -0.274 OA
ATOM      4  C   UNL     1       0.124  -3.240   4.680  0.00  0.00    +0.107 C 
ATOM      5  C   UNL     1       1.502  -3.273   5.375  0.00  0.00    +0.072 C 
ATOM      6  N   UNL     1       2.319  -4.210   4.559  0.00  0.00    -0.295 NA
ATOM      7  C   UNL     1       1.375  -5.278   4.182  0.00  0.00    +0.136 C 
ATOM      8  C   UNL     1       0.023  -4.578   3.896  0.00  0.00    +0.123 C 
ATOM      9  C   UNL     1      -0.030  -4.132   2.452  0.00  0.00    +0.233 C 
ATOM     10  O   UNL     1      -0.128  -4.870   1.494  0.00  0.00    -0.274 OA
ATOM     11  C   UNL     1       1.240  -6.305   5.270  0.00  0.00    +0.003 A 
ATOM     12  C   UNL     1       0.844  -6.243   6.588  0.00  0.00    +0.008 A 
ATOM     13  C   UNL     1       0.823  -7.391   7.359  0.00  0.00    +0.000 A 
ATOM     14  C   UNL     1       1.200  -8.601   6.803  0.00  0.00    +0.002 A 
ATOM     15  C   UNL     1       1.597  -8.667   5.484  0.00  0.00    +0.023 A 
ATOM     16  C   UNL     1       1.621  -7.516   4.700  0.00  0.00    +0.039 A 
ATOM     17  N   UNL     1       1.979  -7.329   3.363  0.00  0.00    -0.283 N 
ATOM     18  C   UNL     1       1.863  -6.042   2.981  0.00  0.00    +0.243 C 
ATOM     19  O   UNL     1       2.104  -5.589   1.883  0.00  0.00    -0.273 OA
ATOM     20  H   UNL     1       2.689  -3.749   3.742  0.00  0.00    +0.124 HD
ATOM     21  H   UNL     1       2.276  -8.043   2.778  0.00  0.00    +0.155 HD
ENDROOT
BRANCH   1  27
ATOM     22  C   UNL     1      -2.370  -1.344  -1.632  0.00  0.00    +0.044 C 
ATOM     23  C   UNL     1      -1.125  -1.368  -0.784  0.00  0.00    -0.049 A 
ATOM     24  C   UNL     1       0.006  -0.689  -1.200  0.00  0.00    +0.003 A 
ATOM     25  C   UNL     1       1.151  -0.708  -0.426  0.00  0.00    +0.002 A 
ATOM     26  C   UNL     1       1.169  -1.407   0.766  0.00  0.00    +0.024 A 
ATOM     27  C   UNL     1       0.035  -2.089   1.186  0.00  0.00    +0.044 A 
ATOM     28  C   UNL     1      -1.115  -2.063   0.409  0.00  0.00    +0.027 A 
ENDBRANCH   1  27
BRANCH   5  29
ATOM     29  C   UNL     1       2.130  -1.878   5.378  0.00  0.00    +0.052 C 
BRANCH  29  30
ATOM     30  C   UNL     1       3.414  -1.907   6.167  0.00  0.00    -0.040 C 
ATOM     31  C   UNL     1       4.665  -2.069   5.679  0.00  0.00    -0.001 A 
ATOM     32  C   UNL     1       5.185  -2.262   4.320  0.00  0.00    +0.010 A 
ATOM     33  C   UNL     1       6.518  -2.399   4.141  0.00  0.00    +0.001 A 
ATOM     34  C   UNL     1       7.414  -2.363   5.219  0.00  0.00    +0.002 A 
ATOM     35  C   UNL     1       7.012  -2.190   6.496  0.00  0.00    +0.026 A 
ATOM     36  C   UNL     1       5.631  -2.034   6.800  0.00  0.00    +0.043 A 
ATOM     37  N   UNL     1       5.002  -1.857   7.936  0.00  0.00    -0.380 N 
ATOM     38  C   UNL     1       3.564  -1.754   7.664  0.00  0.00    +0.144 C 
ATOM     39  H   UNL     1       5.418  -1.800   8.810  0.00  0.00    +0.160 HD
ENDBRANCH  29  30
ENDBRANCH   5  29
TORSDOF 3
