REMARK  Name = ZINC36184474
REMARK  11 active torsions:
REMARK  status: ('A' for Active; 'I' for Inactive)
REMARK    1  A    between atoms: C_1  and  C_2
REMARK    2  A    between atoms: C_2  and  O_3
REMARK    3  A    between atoms: O_3  and  C_4
REMARK    4  A    between atoms: C_4  and  C_6
REMARK    5  A    between atoms: C_10  and  N_11
REMARK    6  A    between atoms: C_12  and  C_14
REMARK    7  A    between atoms: C_14  and  C_16
REMARK    8  A    between atoms: C_14  and  S_17
REMARK    9  A    between atoms: S_17  and  C_18
REMARK   10  A    between atoms: C_21  and  C_24
REMARK   11  A    between atoms: N_22  and  N_23
REMARK                            x       y       z     vdW  Elec       q    Type
REMARK                         _______ _______ _______ _____ _____    ______ ____
ROOT
ATOM      1  N   UNL     1      -3.033  -2.524   2.498  0.00  0.00    -0.278 N 
ATOM      2  C   UNL     1      -3.808  -2.867   3.546  0.00  0.00    +0.231 C 
ATOM      3  O   UNL     1      -4.910  -3.337   3.357  0.00  0.00    -0.274 OA
ATOM      4  H   UNL     1      -2.152  -2.147   2.650  0.00  0.00    +0.155 HD
ENDROOT
BRANCH   1   9
ATOM      5  C   UNL     1      -2.842  -2.416   0.016  0.00  0.00    +0.091 A 
ATOM      6  C   UNL     1      -3.548  -2.714  -1.219  0.00  0.00    -0.021 A 
ATOM      7  C   UNL     1      -4.777  -3.242  -1.039  0.00  0.00    -0.004 A 
ATOM      8  S   UNL     1      -4.974  -3.335   0.716  0.00  0.00    -0.077 S 
ATOM      9  C   UNL     1      -3.495  -2.708   1.205  0.00  0.00    +0.086 A 
ATOM     10  C   UNL     1      -5.745  -3.651  -2.106  0.00  0.00    +0.043 C 
ATOM     11  C   UNL     1      -5.287  -3.033  -3.435  0.00  0.00    +0.005 C 
ATOM     12  C   UNL     1      -3.790  -3.300  -3.616  0.00  0.00    +0.005 C 
ATOM     13  C   UNL     1      -2.988  -2.468  -2.612  0.00  0.00    +0.037 C 
BRANCH   5  14
ATOM     14  C   UNL     1      -1.497  -1.838   0.006  0.00  0.00    +0.342 C 
ATOM     15  O   UNL     1      -0.523  -2.566  -0.007  0.00  0.00    -0.245 OA
BRANCH  14  16
ATOM     16  O   UNL     1      -1.339  -0.499   0.012  0.00  0.00    -0.461 OA
BRANCH  16  18
ATOM     17  C   UNL     1      -0.019   1.526   0.010  0.00  0.00    +0.048 C 
ATOM     18  C   UNL     1       0.002  -0.004   0.002  0.00  0.00    +0.229 C 
ENDBRANCH  16  18
ENDBRANCH  14  16
ENDBRANCH   5  14
ENDBRANCH   1   9
BRANCH   2  19
ATOM     19  C   UNL     1      -3.306  -2.666   4.953  0.00  0.00    +0.137 C 
ATOM     20  C   UNL     1      -3.595  -1.231   5.397  0.00  0.00    +0.029 C 
BRANCH  19  21
ATOM     21  S   UNL     1      -4.147  -3.825   6.066  0.00  0.00    -0.072 S 
BRANCH  21  22
ATOM     22  C   UNL     1      -3.357  -3.572   7.621  0.00  0.00    +0.209 A 
ATOM     23  N   UNL     1      -2.388  -2.724   7.875  0.00  0.00    -0.121 NA
ATOM     24  N   UNL     1      -2.051  -2.804   9.113  0.00  0.00    -0.123 NA
ATOM     25  C   UNL     1      -2.778  -3.700   9.717  0.00  0.00    +0.255 A 
ATOM     26  N   UNL     1      -3.640  -4.218   8.790  0.00  0.00    -0.220 N 
BRANCH  25  27
ATOM     27  C   UNL     1      -2.690  -4.090  11.170  0.00  0.00    +0.454 C 
ATOM     28  F   UNL     1      -1.956  -3.125  11.868  0.00  0.00    -0.163 F 
ATOM     29  F   UNL     1      -3.978  -4.176  11.709  0.00  0.00    -0.163 F 
ATOM     30  F   UNL     1      -2.054  -5.331  11.282  0.00  0.00    -0.163 F 
ENDBRANCH  25  27
BRANCH  26  31
ATOM     31  N   UNL     1      -4.586  -5.183   8.991  0.00  0.00    -0.295 N 
ATOM     32  H   UNL     1      -4.204  -6.103   8.831  0.00  0.00    +0.163 HD
ATOM     33  H   UNL     1      -4.983  -5.112   9.916  0.00  0.00    +0.163 HD
ENDBRANCH  26  31
ENDBRANCH  21  22
ENDBRANCH  19  21
ENDBRANCH   2  19
TORSDOF 9
