REMARK  Name = ZINC32598187
REMARK  4 active torsions:
REMARK  status: ('A' for Active; 'I' for Inactive)
REMARK    1  A    between atoms: N_10  and  N_11
REMARK    2  A    between atoms: C_15  and  C_16
REMARK    3  A    between atoms: C_17  and  C_18
REMARK    4  A    between atoms: C_21  and  N_24
REMARK                            x       y       z     vdW  Elec       q    Type
REMARK                         _______ _______ _______ _____ _____    ______ ____
ROOT
ATOM      1  N   UNL     1       2.268  -5.014  -1.271  0.00  0.00    -0.140 N 
ATOM      2  C   UNL     1       2.753  -6.225  -1.061  0.00  0.00    +0.278 C 
ATOM      3  O   UNL     1       3.933  -6.467  -1.237  0.00  0.00    -0.267 OA
ATOM      4  C   UNL     1       1.852  -7.241  -0.621  0.00  0.00    +0.080 C 
ATOM      5  C   UNL     1       2.099  -8.570  -0.333  0.00  0.00    +0.040 C 
ATOM      6  S   UNL     1       0.318  -6.327  -0.544  0.00  0.00    -0.059 S 
ATOM      7  C   UNL     1       0.959  -4.744  -1.069  0.00  0.00    +0.142 C 
ATOM      8  S   UNL     1       0.125  -3.262  -1.270  0.00  0.00    -0.025 S 
ENDROOT
BRANCH   1  18
ATOM      9  C   UNL     1       3.323  -0.103   2.870  0.00  0.00    +0.002 A 
ATOM     10  C   UNL     1       4.264   0.659   2.182  0.00  0.00    +0.001 A 
ATOM     11  C   UNL     1       4.684   0.260   0.942  0.00  0.00    +0.017 A 
ATOM     12  C   UNL     1       4.168  -0.896   0.390  0.00  0.00    +0.039 A 
ATOM     13  C   UNL     1       3.210  -1.690   1.068  0.00  0.00    +0.055 A 
ATOM     14  C   UNL     1       2.804  -1.244   2.340  0.00  0.00    +0.027 A 
ATOM     15  N   UNL     1       2.817  -2.791   0.367  0.00  0.00    -0.332 N 
ATOM     16  C   UNL     1       3.334  -3.044  -0.858  0.00  0.00    +0.189 A 
ATOM     17  S   UNL     1       4.403  -1.776  -1.132  0.00  0.00    -0.048 S 
ATOM     18  N   UNL     1       3.056  -4.074  -1.669  0.00  0.00    -0.146 NA
ATOM     19  H   UNL     1       2.164  -3.397   0.750  0.00  0.00    +0.168 HD
ENDBRANCH   1  18
BRANCH   5  20
ATOM     20  C   UNL     1       1.050  -9.403   0.090  0.00  0.00    +0.043 C 
ATOM     21  C   UNL     1       1.293 -10.713   0.371  0.00  0.00    +0.028 C 
ATOM     22 CL   UNL     1      -0.555  -8.763   0.255  0.00  0.00    -0.083 Cl
BRANCH  21  23
ATOM     23  C   UNL     1       2.672 -11.212   0.407  0.00  0.00    -0.024 A 
ATOM     24  C   UNL     1       3.686 -10.441   0.990  0.00  0.00    +0.010 A 
ATOM     25  C   UNL     1       4.978 -10.918   1.020  0.00  0.00    +0.033 A 
ATOM     26  C   UNL     1       5.277 -12.156   0.476  0.00  0.00    +0.126 A 
ATOM     27  C   UNL     1       4.281 -12.925  -0.103  0.00  0.00    +0.033 A 
ATOM     28  C   UNL     1       2.982 -12.466  -0.136  0.00  0.00    +0.010 A 
BRANCH  26  29
ATOM     29  N   UNL     1       6.668 -12.660   0.513  0.00  0.00    +0.056 N 
ATOM     30  O   UNL     1       7.618 -11.931   1.062  0.00  0.00    -0.126 OA
ATOM     31  O   UNL     1       6.955 -13.837  -0.004  0.00  0.00    -0.126 OA
ENDBRANCH  26  29
ENDBRANCH  21  23
ENDBRANCH   5  20
TORSDOF 4
