REMARK  Name = ZINC10015336
REMARK  7 active torsions:
REMARK  status: ('A' for Active; 'I' for Inactive)
REMARK    1  A    between atoms: C_9  and  C_10
REMARK    2  A    between atoms: C_9  and  C_12
REMARK    3  A    between atoms: C_12  and  C_14
REMARK    4  A    between atoms: C_14  and  S_15
REMARK    5  A    between atoms: S_15  and  C_16
REMARK    6  A    between atoms: C_19  and  C_27
REMARK    7  A    between atoms: N_20  and  C_21
REMARK                            x       y       z     vdW  Elec       q    Type
REMARK                         _______ _______ _______ _____ _____    ______ ____
ROOT
ATOM      1  S   UNL     1       1.681   3.449   0.004  0.00  0.00    -0.078 S 
ENDROOT
BRANCH   1   2
ATOM      2  C   UNL     1       1.212   1.750  -0.000  0.00  0.00    +0.193 A 
ATOM      3  N   UNL     1      -0.015   1.281   0.009  0.00  0.00    -0.122 NA
ATOM      4  N   UNL     1       0.002  -0.004   0.002  0.00  0.00    -0.125 NA
ATOM      5  C   UNL     1       1.244  -0.436  -0.012  0.00  0.00    +0.201 A 
ATOM      6  N   UNL     1       2.057   0.676  -0.014  0.00  0.00    -0.297 N 
BRANCH   6   7
ATOM      7  C   UNL     1       3.522   0.702  -0.027  0.00  0.00    +0.091 C 
ATOM      8  C   UNL     1       4.030   1.427   1.222  0.00  0.00    +0.025 C 
ATOM      9  C   UNL     1       5.560   1.454   1.208  0.00  0.00    +0.002 C 
ATOM     10  C   UNL     1       6.046   2.190  -0.042  0.00  0.00    +0.000 C 
ATOM     11  C   UNL     1       5.538   1.466  -1.290  0.00  0.00    +0.002 C 
ATOM     12  C   UNL     1       4.008   1.439  -1.277  0.00  0.00    +0.025 C 
ENDBRANCH   6   7
BRANCH   5  13
ATOM     13  C   UNL     1       1.682  -1.840  -0.024  0.00  0.00    +0.172 A 
ATOM     14  C   UNL     1       0.900  -2.920  -0.303  0.00  0.00    +0.053 A 
ATOM     15  C   UNL     1       1.726  -4.056  -0.202  0.00  0.00    +0.042 A 
ATOM     16  C   UNL     1       2.956  -3.622   0.138  0.00  0.00    +0.196 A 
ATOM     17  O   UNL     1       2.926  -2.283   0.245  0.00  0.00    -0.460 OA
ENDBRANCH   5  13
ENDBRANCH   1   2
BRANCH   1  18
ATOM     18  C   UNL     1       0.046   4.226   0.024  0.00  0.00    +0.157 C 
BRANCH  18  19
ATOM     19  C   UNL     1       0.203   5.725   0.030  0.00  0.00    +0.186 C 
ATOM     20  O   UNL     1       1.313   6.220   0.022  0.00  0.00    -0.290 OA
BRANCH  19  29
ATOM     21  C   UNL     1       1.138  12.325   0.055  0.00  0.00    +0.002 A 
ATOM     22  C   UNL     1      -0.152  12.830   0.070  0.00  0.00    +0.001 A 
ATOM     23  C   UNL     1      -1.222  11.953   0.077  0.00  0.00    +0.017 A 
ATOM     24  C   UNL     1      -0.988  10.598   0.067  0.00  0.00    +0.035 A 
ATOM     25  C   UNL     1       0.306  10.057   0.051  0.00  0.00    +0.046 A 
ATOM     26  C   UNL     1       1.372  10.970   0.045  0.00  0.00    +0.024 A 
ATOM     27  N   UNL     1       0.360   8.677   0.049  0.00  0.00    -0.307 N 
ATOM     28  C   UNL     1      -0.788   7.949   0.051  0.00  0.00    +0.091 C 
ATOM     29  C   UNL     1      -0.934   6.550   0.046  0.00  0.00    +0.123 C 
ATOM     30  S   UNL     1      -2.029   9.160   0.070  0.00  0.00    -0.071 S 
ATOM     31  H   UNL     1       1.218   8.226   0.044  0.00  0.00    +0.153 HD
BRANCH  29  32
ATOM     32  C   UNL     1      -2.242   5.966   0.056  0.00  0.00    +0.105 C 
ATOM     33  N   UNL     1      -3.279   5.503   0.063  0.00  0.00    -0.191 NA
ENDBRANCH  29  32
ENDBRANCH  19  29
ENDBRANCH  18  19
ENDBRANCH   1  18
TORSDOF 7
