REMARK  Name = ZINC19939986
REMARK  12 active torsions:
REMARK  status: ('A' for Active; 'I' for Inactive)
REMARK    1  A    between atoms: C_1  and  C_2
REMARK    2  A    between atoms: C_6  and  N_8
REMARK    3  A    between atoms: C_9  and  C_11
REMARK    4  A    between atoms: C_11  and  S_12
REMARK    5  A    between atoms: S_12  and  C_13
REMARK    6  A    between atoms: C_14  and  C_37
REMARK    7  A    between atoms: C_15  and  C_32
REMARK    8  A    between atoms: C_17  and  C_21
REMARK    9  A    between atoms: C_18  and  C_20
REMARK   10  A    between atoms: N_23  and  C_24
REMARK   11  A    between atoms: C_29  and  O_30
REMARK   12  A    between atoms: O_30  and  C_31
REMARK                            x       y       z     vdW  Elec       q    Type
REMARK                         _______ _______ _______ _____ _____    ______ ____
ROOT
ATOM      1  C   UNL     1       2.427   9.794   0.451  0.00  0.00    +0.080 C 
ATOM      2  C   UNL     1       3.465  10.665   0.564  0.00  0.00    +0.072 C 
ATOM      3  C   UNL     1       3.232  12.146   0.671  0.00  0.00    +0.134 C 
ATOM      4  C   UNL     1       1.804  12.436   1.034  0.00  0.00    +0.047 C 
ATOM      5  C   UNL     1       0.841  11.509   0.907  0.00  0.00    +0.015 C 
ATOM      6  N   UNL     1       1.128  10.252   0.449  0.00  0.00    -0.312 N 
ATOM      7  C   UNL     1      -0.578  11.857   1.277  0.00  0.00    +0.061 C 
ATOM      8  H   UNL     1       0.318   9.606   0.078  0.00  0.00    +0.152 HD
ENDROOT
BRANCH   3   9
ATOM      9  C   UNL     1       3.550  12.799  -0.649  0.00  0.00    +0.118 A 
ATOM     10  C   UNL     1       4.497  13.733  -0.857  0.00  0.00    +0.045 A 
ATOM     11  C   UNL     1       4.453  14.062  -2.231  0.00  0.00    +0.041 A 
ATOM     12  C   UNL     1       3.477  13.316  -2.780  0.00  0.00    +0.195 A 
ATOM     13  O   UNL     1       2.934  12.553  -1.817  0.00  0.00    -0.467 OA
ENDBRANCH   3   9
BRANCH   4  14
ATOM     14  C   UNL     1       1.464  13.720   1.521  0.00  0.00    +0.247 C 
ATOM     15  O   UNL     1       0.310  13.973   1.820  0.00  0.00    -0.270 OA
ATOM     16  N   UNL     1       2.417  14.664   1.655  0.00  0.00    -0.279 N 
ATOM     17  H   UNL     1       3.443  14.462   1.314  0.00  0.00    +0.155 HD
BRANCH  16  18
ATOM     18  C   UNL     1       2.100  15.903   2.227  0.00  0.00    +0.076 A 
ATOM     19  C   UNL     1       0.852  16.470   2.012  0.00  0.00    +0.027 A 
ATOM     20  C   UNL     1       0.542  17.692   2.578  0.00  0.00    +0.002 A 
ATOM     21  C   UNL     1       1.473  18.352   3.360  0.00  0.00    +0.004 A 
ATOM     22  C   UNL     1       2.719  17.793   3.578  0.00  0.00    +0.047 A 
ATOM     23  C   UNL     1       3.035  16.566   3.019  0.00  0.00    +0.141 A 
BRANCH  23  24
ATOM     24  O   UNL     1       4.258  16.012   3.238  0.00  0.00    -0.493 OA
ATOM     25  C   UNL     1       5.166  16.748   4.060  0.00  0.00    +0.277 C 
ENDBRANCH  23  24
ENDBRANCH  16  18
ENDBRANCH   4  14
BRANCH   2  26
ATOM     26  C   UNL     1       4.806  10.162   0.578  0.00  0.00    +0.098 C 
ATOM     27  N   UNL     1       5.869   9.763   0.589  0.00  0.00    -0.191 NA
ENDBRANCH   2  26
BRANCH   1  28
ATOM     28  S   UNL     1       2.745   8.067   0.312  0.00  0.00    -0.100 S 
BRANCH  28  29
ATOM     29  C   UNL     1       1.050   7.442   0.204  0.00  0.00    +0.171 C 
BRANCH  29  31
ATOM     30  N   UNL     1      -0.080   5.253  -0.021  0.00  0.00    -0.285 N 
ATOM     31  C   UNL     1       1.075   5.941   0.075  0.00  0.00    +0.227 C 
ATOM     32  O   UNL     1       2.135   5.351   0.058  0.00  0.00    -0.275 OA
ATOM     33  H   UNL     1      -1.036   5.792  -0.102  0.00  0.00    +0.155 HD
BRANCH  30  39
ATOM     34  C   UNL     1      -2.173   0.993  -1.303  0.00  0.00    +0.044 C 
ATOM     35  C   UNL     1      -1.066   1.764  -0.631  0.00  0.00    -0.049 A 
ATOM     36  C   UNL     1      -0.031   1.087  -0.011  0.00  0.00    +0.003 A 
ATOM     37  C   UNL     1       0.990   1.790   0.602  0.00  0.00    +0.002 A 
ATOM     38  C   UNL     1       0.976   3.172   0.600  0.00  0.00    +0.023 A 
ATOM     39  C   UNL     1      -0.064   3.854  -0.017  0.00  0.00    +0.034 A 
ATOM     40  C   UNL     1      -1.088   3.144  -0.631  0.00  0.00    +0.026 A 
ENDBRANCH  30  39
ENDBRANCH  29  31
ENDBRANCH  28  29
ENDBRANCH   1  28
TORSDOF 9
