REMARK  Name = ZINC19531814
REMARK  8 active torsions:
REMARK  status: ('A' for Active; 'I' for Inactive)
REMARK    1  A    between atoms: C_1  and  C_2
REMARK    2  A    between atoms: C_2  and  O_3
REMARK    3  A    between atoms: O_3  and  C_4
REMARK    4  A    between atoms: C_6  and  C_14
REMARK    5  A    between atoms: C_8  and  C_11
REMARK    6  A    between atoms: C_9  and  O_10
REMARK    7  A    between atoms: C_11  and  C_12
REMARK    8  A    between atoms: C_14  and  N_15
REMARK                            x       y       z     vdW  Elec       q    Type
REMARK                         _______ _______ _______ _____ _____    ______ ____
ROOT
ATOM      1  N   UNL     1      -0.723   1.572  -1.182  0.00  0.00    +0.389 N 
ATOM      2  C   UNL     1       0.068   1.320  -2.415  0.00  0.00    -0.062 C 
ATOM      3  C   UNL     1      -0.495   2.305  -3.456  0.00  0.00    -0.016 C 
ATOM      4  C   UNL     1      -1.175   3.419  -2.632  0.00  0.00    -0.012 C 
ATOM      5  C   UNL     1      -0.851   3.056  -1.158  0.00  0.00    -0.034 C 
ATOM      6  C   UNL     1       0.533   3.607  -0.891  0.00  0.00    -0.021 A 
ATOM      7  C   UNL     1       0.693   4.780  -0.177  0.00  0.00    +0.118 A 
ATOM      8  N   UNL     1       1.918   5.239   0.029  0.00  0.00    -0.223 NA
ATOM      9  C   UNL     1       2.970   4.586  -0.441  0.00  0.00    +0.218 A 
ATOM     10  N   UNL     1       2.846   3.458  -1.124  0.00  0.00    -0.219 NA
ATOM     11  C   UNL     1       1.648   2.941  -1.361  0.00  0.00    +0.046 A 
ATOM     12  C   UNL     1       1.531   1.644  -2.115  0.00  0.00    +0.040 C 
ATOM     13  N   UNL     1       4.236   5.097  -0.212  0.00  0.00    -0.300 N 
ATOM     14  C   UNL     1       4.909   5.445  -1.490  0.00  0.00    +0.108 C 
ATOM     15  C   UNL     1       6.010   6.442  -1.051  0.00  0.00    +0.020 C 
ATOM     16  C   UNL     1       5.316   7.254   0.067  0.00  0.00    +0.020 C 
ATOM     17  C   UNL     1       4.168   6.354   0.563  0.00  0.00    +0.108 C 
ATOM     18  H   UNL     1      -1.690   1.048  -1.169  0.00  0.00    -0.080 HD
ENDROOT
BRANCH   1  19
ATOM     19  C   UNL     1      -0.013   1.086   0.008  0.00  0.00    -0.042 C 
BRANCH  19  22
ATOM     20  C   UNL     1      -2.369   1.252   2.957  0.00  0.00    +0.162 A 
ATOM     21  C   UNL     1      -1.719   0.807   1.817  0.00  0.00    +0.051 A 
ATOM     22  C   UNL     1      -0.718   1.572   1.248  0.00  0.00    -0.060 A 
ATOM     23  C   UNL     1      -0.359   2.779   1.817  0.00  0.00    +0.009 A 
ATOM     24  C   UNL     1      -1.006   3.232   2.952  0.00  0.00    +0.002 A 
ATOM     25  C   UNL     1      -2.010   2.470   3.527  0.00  0.00    +0.162 A 
BRANCH  25  26
ATOM     26  O   UNL     1      -2.645   2.911   4.646  0.00  0.00    -0.503 OA
ATOM     27  H   UNL     1      -2.361   3.874   5.096  0.00  0.00    +0.292 HD
ENDBRANCH  25  26
BRANCH  20  28
ATOM     28  O   UNL     1      -3.353   0.500   3.518  0.00  0.00    -0.489 OA
BRANCH  28  30
ATOM     29  C   UNL     1      -4.790  -1.438   3.647  0.00  0.00    +0.048 C 
ATOM     30  C   UNL     1      -3.668  -0.739   2.878  0.00  0.00    +0.226 C 
ENDBRANCH  28  30
ENDBRANCH  20  28
BRANCH  24  31
ATOM     31  C   UNL     1      -0.615   4.551   3.567  0.00  0.00    +0.065 C 
BRANCH  31  32
ATOM     32  C   UNL     1      -1.604   5.610   3.153  0.00  0.00    -0.030 C 
ATOM     33  C   UNL     1      -2.224   6.319   4.064  0.00  0.00    +0.004 C 
ENDBRANCH  31  32
ENDBRANCH  24  31
ENDBRANCH  19  22
ENDBRANCH   1  19
TORSDOF 7
