REMARK  Name = ZINC09731565
REMARK  11 active torsions:
REMARK  status: ('A' for Active; 'I' for Inactive)
REMARK    1  A    between atoms: C_1  and  C_2
REMARK    2  A    between atoms: C_4  and  C_32
REMARK    3  A    between atoms: C_8  and  C_26
REMARK    4  A    between atoms: C_10  and  S_11
REMARK    5  A    between atoms: S_11  and  C_12
REMARK    6  A    between atoms: C_12  and  C_14
REMARK    7  A    between atoms: C_12  and  C_15
REMARK    8  A    between atoms: N_17  and  C_18
REMARK    9  A    between atoms: C_19  and  C_25
REMARK   10  A    between atoms: N_21  and  C_24
REMARK   11  A    between atoms: C_22  and  C_23
REMARK                            x       y       z     vdW  Elec       q    Type
REMARK                         _______ _______ _______ _____ _____    ______ ____
ROOT
ATOM      1  C   UNL     1       1.498  -3.538  -0.397  0.00  0.00    +0.046 C 
ATOM      2  C   UNL     1       1.312  -2.289   0.425  0.00  0.00    -0.021 A 
ATOM      3  C   UNL     1       0.216  -2.142   1.223  0.00  0.00    +0.030 A 
ATOM      4  C   UNL     1       0.051  -0.976   1.986  0.00  0.00    +0.059 A 
ATOM      5  N   UNL     1       0.933  -0.015   1.954  0.00  0.00    -0.169 NA
ATOM      6  N   UNL     1       2.070  -0.119   1.148  0.00  0.00    -0.206 N 
ATOM      7  C   UNL     1       2.263  -1.259   0.382  0.00  0.00    +0.097 A 
ATOM      8  C   UNL     1       3.463  -1.075  -0.298  0.00  0.00    +0.100 A 
ATOM      9  N   UNL     1       3.946   0.127   0.062  0.00  0.00    -0.220 NA
ATOM     10  C   UNL     1       3.128   0.699   0.916  0.00  0.00    +0.191 A 
ATOM     11  C   UNL     1      -1.167  -0.833   2.862  0.00  0.00    +0.067 C 
ENDROOT
BRANCH   8  12
ATOM     12  C   UNL     1       4.091  -2.026  -1.240  0.00  0.00    +0.003 A 
ATOM     13  C   UNL     1       4.178  -3.381  -0.916  0.00  0.00    +0.010 A 
ATOM     14  C   UNL     1       4.759  -4.264  -1.802  0.00  0.00    +0.001 A 
ATOM     15  C   UNL     1       5.267  -3.807  -3.005  0.00  0.00    +0.000 A 
ATOM     16  C   UNL     1       5.189  -2.464  -3.331  0.00  0.00    +0.001 A 
ATOM     17  C   UNL     1       4.605  -1.572  -2.456  0.00  0.00    +0.010 A 
ENDBRANCH   8  12
BRANCH  10  18
ATOM     18  S   UNL     1       3.368   2.283   1.649  0.00  0.00    -0.073 S 
BRANCH  18  19
ATOM     19  C   UNL     1       4.939   2.858   0.947  0.00  0.00    +0.137 C 
ATOM     20  C   UNL     1       4.780   3.059  -0.561  0.00  0.00    +0.029 C 
BRANCH  19  21
ATOM     21  C   UNL     1       5.328   4.165   1.590  0.00  0.00    +0.230 C 
ATOM     22  O   UNL     1       4.489   4.840   2.147  0.00  0.00    -0.274 OA
ATOM     23  N   UNL     1       6.609   4.583   1.545  0.00  0.00    -0.282 N 
ATOM     24  H   UNL     1       7.271   4.064   1.063  0.00  0.00    +0.155 HD
BRANCH  23  25
ATOM     25  C   UNL     1       6.984   5.772   2.197  0.00  0.00    +0.077 A 
ATOM     26  C   UNL     1       6.405   7.036   2.009  0.00  0.00    +0.081 A 
ATOM     27  N   UNL     1       7.018   7.889   2.788  0.00  0.00    -0.175 NA
ATOM     28  N   UNL     1       8.009   7.203   3.502  0.00  0.00    -0.270 N 
ATOM     29  C   UNL     1       7.967   5.899   3.125  0.00  0.00    +0.057 A 
ATOM     30  C   UNL     1       8.852   4.794   3.642  0.00  0.00    +0.067 C 
ATOM     31  C   UNL     1       8.925   7.788   4.484  0.00  0.00    +0.172 C 
ATOM     32  C   UNL     1       5.271   7.356   1.069  0.00  0.00    +0.069 C 
ENDBRANCH  23  25
ENDBRANCH  19  21
ENDBRANCH  18  19
ENDBRANCH  10  18
TORSDOF 5
