REMARK  Name = ZINC23224783
REMARK  5 active torsions:
REMARK  status: ('A' for Active; 'I' for Inactive)
REMARK    1  A    between atoms: C_4  and  C_7
REMARK    2  A    between atoms: C_18  and  C_20
REMARK    3  A    between atoms: C_20  and  N_21
REMARK    4  A    between atoms: C_23  and  C_26
REMARK    5  A    between atoms: C_29  and  C_32
REMARK                            x       y       z     vdW  Elec       q    Type
REMARK                         _______ _______ _______ _____ _____    ______ ____
ROOT
ATOM      1  C   UNL     1      -1.097   0.757   1.506  0.00  0.00    +0.122 C 
ATOM      2  C   UNL     1      -1.154  -0.598   0.784  0.00  0.00    +0.102 C 
ATOM      3  S   UNL     1      -2.208  -0.399  -0.683  0.00  0.00    -0.121 S 
ATOM      4  C   UNL     1      -3.610   0.473  -0.060  0.00  0.00    +0.029 A 
ATOM      5  C   UNL     1      -4.771   0.518  -0.822  0.00  0.00    +0.016 A 
ATOM      6  C   UNL     1      -5.880   1.199  -0.360  0.00  0.00    +0.001 A 
ATOM      7  C   UNL     1      -5.835   1.838   0.865  0.00  0.00    +0.002 A 
ATOM      8  C   UNL     1      -4.687   1.795   1.630  0.00  0.00    +0.024 A 
ATOM      9  C   UNL     1      -3.563   1.109   1.177  0.00  0.00    +0.050 A 
ATOM     10  N   UNL     1      -2.434   1.081   1.999  0.00  0.00    -0.261 N 
ATOM     11  C   UNL     1      -2.584   1.365   3.308  0.00  0.00    +0.244 C 
ATOM     12  O   UNL     1      -1.608   1.517   4.011  0.00  0.00    -0.273 OA
ENDROOT
BRANCH   1  16
ATOM     13  C   UNL     1       1.627   0.520   4.788  0.00  0.00    +0.000 A 
ATOM     14  C   UNL     1       1.714   1.569   3.891  0.00  0.00    +0.000 A 
ATOM     15  C   UNL     1       0.833   1.645   2.829  0.00  0.00    +0.005 A 
ATOM     16  C   UNL     1      -0.136   0.673   2.664  0.00  0.00    -0.026 A 
ATOM     17  C   UNL     1      -0.226  -0.372   3.563  0.00  0.00    +0.005 A 
ATOM     18  C   UNL     1       0.658  -0.452   4.622  0.00  0.00    +0.000 A 
ENDBRANCH   1  16
BRANCH  11  19
ATOM     19  C   UNL     1      -3.965   1.493   3.897  0.00  0.00    +0.264 C 
BRANCH  19  20
ATOM     20  N   UNL     1      -3.933   1.097   5.307  0.00  0.00    -0.154 N 
ATOM     21  N   UNL     1      -3.708   1.889   6.299  0.00  0.00    -0.130 NA
ATOM     22  C   UNL     1      -3.760   1.173   7.405  0.00  0.00    +0.205 A 
ATOM     23  N   UNL     1      -4.028  -0.087   7.036  0.00  0.00    -0.108 NA
ATOM     24  N   UNL     1      -4.132  -0.095   5.750  0.00  0.00    -0.045 NA
BRANCH  22  25
ATOM     25  C   UNL     1      -3.561   1.668   8.790  0.00  0.00    +0.023 A 
ATOM     26  C   UNL     1      -3.281   3.015   9.015  0.00  0.00    +0.012 A 
ATOM     27  C   UNL     1      -3.100   3.476  10.300  0.00  0.00    +0.014 A 
ATOM     28  C   UNL     1      -3.187   2.591  11.378  0.00  0.00    +0.037 A 
ATOM     29  C   UNL     1      -3.462   1.241  11.150  0.00  0.00    +0.014 A 
ATOM     30  C   UNL     1      -3.648   0.783   9.865  0.00  0.00    +0.012 A 
BRANCH  28  31
ATOM     31  C   UNL     1      -2.989   3.083  12.756  0.00  0.00    +0.242 C 
ATOM     32  O   UNL     1      -3.065   2.313  13.694  0.00  0.00    -0.270 OA
ATOM     33  N   UNL     1      -2.723   4.386  12.975  0.00  0.00    -0.325 N 
ATOM     34  H   UNL     1      -2.576   4.753  14.002  0.00  0.00    +0.145 HD
ATOM     35  H   UNL     1      -2.655   5.084  12.127  0.00  0.00    +0.145 HD
ENDBRANCH  28  31
ENDBRANCH  22  25
ENDBRANCH  19  20
ENDBRANCH  11  19
TORSDOF 5
