REMARK  Name = ZINC21523716
REMARK  8 active torsions:
REMARK  status: ('A' for Active; 'I' for Inactive)
REMARK    1  A    between atoms: C_1  and  C_2
REMARK    2  A    between atoms: C_4  and  C_36
REMARK    3  A    between atoms: C_11  and  C_13
REMARK    4  A    between atoms: C_19  and  C_26
REMARK    5  A    between atoms: C_29  and  O_34
REMARK    6  A    between atoms: C_30  and  O_32
REMARK    7  A    between atoms: O_32  and  C_33
REMARK    8  A    between atoms: O_34  and  C_35
REMARK                            x       y       z     vdW  Elec       q    Type
REMARK                         _______ _______ _______ _____ _____    ______ ____
ROOT
ATOM      1  C   UNL     1       8.157   4.034   9.157  0.00  0.00    +0.066 C 
ATOM      2  C   UNL     1       7.466   2.708   8.968  0.00  0.00    +0.044 A 
ATOM      3  C   UNL     1       7.928   1.577   9.621  0.00  0.00    +0.046 A 
ATOM      4  C   UNL     1       7.262   0.377   9.419  0.00  0.00    +0.044 A 
ATOM      5  N   UNL     1       6.213   0.350   8.614  0.00  0.00    -0.216 NA
ATOM      6  C   UNL     1       5.798   1.449   8.005  0.00  0.00    +0.253 A 
ATOM      7  N   UNL     1       6.414   2.609   8.172  0.00  0.00    -0.216 NA
ATOM      8  N   UNL     1       4.690   1.383   7.163  0.00  0.00    -0.183 N 
ATOM      9  C   UNL     1       3.877   0.282   6.984  0.00  0.00    +0.137 A 
ATOM     10  C   UNL     1       2.929   0.629   6.089  0.00  0.00    +0.038 A 
ATOM     11  C   UNL     1       3.162   1.980   5.713  0.00  0.00    +0.100 A 
ATOM     12  N   UNL     1       4.214   2.418   6.359  0.00  0.00    -0.162 NA
ATOM     13  C   UNL     1       1.797  -0.168   5.522  0.00  0.00    +0.112 C 
ATOM     14  S   UNL     1       2.186  -1.908   5.316  0.00  0.00    -0.138 S 
ATOM     15  C   UNL     1       2.368  -2.576   6.976  0.00  0.00    +0.166 C 
ATOM     16  C   UNL     1       3.571  -2.070   7.671  0.00  0.00    +0.228 C 
ATOM     17  O   UNL     1       4.146  -2.889   8.357  0.00  0.00    -0.275 OA
ATOM     18  N   UNL     1       4.109  -0.888   7.665  0.00  0.00    -0.269 N 
ATOM     19  C   UNL     1       7.729  -0.879  10.108  0.00  0.00    +0.066 C 
ATOM     20  H   UNL     1       4.922  -0.942   8.404  0.00  0.00    +0.156 HD
ENDROOT
BRANCH  11  21
ATOM     21  C   UNL     1       2.349   2.762   4.749  0.00  0.00    +0.002 A 
ATOM     22  C   UNL     1       2.957   3.367   3.651  0.00  0.00    +0.010 A 
ATOM     23  C   UNL     1       2.196   4.090   2.755  0.00  0.00    +0.001 A 
ATOM     24  C   UNL     1       0.833   4.223   2.952  0.00  0.00    +0.000 A 
ATOM     25  C   UNL     1       0.225   3.630   4.043  0.00  0.00    +0.001 A 
ATOM     26  C   UNL     1       0.976   2.900   4.942  0.00  0.00    +0.010 A 
ENDBRANCH  11  21
BRANCH  13  27
ATOM     27  C   UNL     1       1.426   0.406   4.180  0.00  0.00    -0.026 A 
ATOM     28  C   UNL     1       2.402   0.608   3.222  0.00  0.00    +0.009 A 
ATOM     29  C   UNL     1       2.065   1.129   1.986  0.00  0.00    +0.050 A 
ATOM     30  C   UNL     1       0.749   1.463   1.710  0.00  0.00    +0.162 A 
ATOM     31  C   UNL     1      -0.234   1.260   2.675  0.00  0.00    +0.162 A 
ATOM     32  C   UNL     1       0.110   0.732   3.909  0.00  0.00    +0.054 A 
BRANCH  31  33
ATOM     33  O   UNL     1      -1.528   1.580   2.407  0.00  0.00    -0.491 OA
ATOM     34  C   UNL     1      -2.499   1.239   3.398  0.00  0.00    +0.277 C 
ENDBRANCH  31  33
BRANCH  30  35
ATOM     35  O   UNL     1       0.417   1.981   0.498  0.00  0.00    -0.491 OA
ATOM     36  C   UNL     1       1.478   2.161  -0.443  0.00  0.00    +0.277 C 
ENDBRANCH  30  35
ENDBRANCH  13  27
TORSDOF 4
