REMARK  Name = ZINC10066935
REMARK  10 active torsions:
REMARK  status: ('A' for Active; 'I' for Inactive)
REMARK    1  A    between atoms: C_1  and  C_2
REMARK    2  A    between atoms: C_2  and  N_60
REMARK    3  A    between atoms: C_3  and  C_4
REMARK    4  A    between atoms: C_3  and  N_60
REMARK    5  A    between atoms: C_5  and  C_6
REMARK    6  A    between atoms: C_5  and  N_60
REMARK    7  A    between atoms: C_6  and  N_7
REMARK    8  A    between atoms: C_21  and  C_23
REMARK    9  A    between atoms: C_24  and  C_25
REMARK   10  A    between atoms: C_28  and  N_31
REMARK                            x       y       z     vdW  Elec       q    Type
REMARK                         _______ _______ _______ _____ _____    ______ ____
ROOT
ATOM      1  N   UNL     1      -2.104   2.821   0.762  0.00  0.00    -0.249 N 
ATOM      2  C   UNL     1      -1.923   1.898   1.778  0.00  0.00    +0.168 A 
ATOM      3  N   UNL     1      -2.582   0.786   2.007  0.00  0.00    -0.224 NA
ATOM      4  C   UNL     1      -2.292  -0.030   3.044  0.00  0.00    +0.084 A 
ATOM      5  C   UNL     1      -2.922  -1.245   3.399  0.00  0.00    +0.078 A 
ATOM      6  C   UNL     1      -2.506  -1.966   4.496  0.00  0.00    +0.164 A 
ATOM      7  C   UNL     1      -1.448  -1.518   5.287  0.00  0.00    +0.163 A 
ATOM      8  C   UNL     1      -0.811  -0.331   4.965  0.00  0.00    +0.066 A 
ATOM      9  C   UNL     1      -1.227   0.389   3.873  0.00  0.00    +0.044 A 
ATOM     10  S   UNL     1      -0.728   1.912   3.106  0.00  0.00    -0.052 S 
ATOM     11  O   UNL     1      -1.028  -2.230   6.368  0.00  0.00    -0.485 OA
ATOM     12  C   UNL     1      -1.929  -3.221   6.875  0.00  0.00    +0.270 C 
ATOM     13  C   UNL     1      -2.470  -4.028   5.686  0.00  0.00    +0.270 C 
ATOM     14  O   UNL     1      -3.150  -3.129   4.804  0.00  0.00    -0.485 OA
ATOM     15  C   UNL     1      -3.067   2.629  -0.160  0.00  0.00    +0.245 C 
ATOM     16  O   UNL     1      -3.778   1.643  -0.101  0.00  0.00    -0.270 OA
ENDROOT
BRANCH  15  17
ATOM     17  C   UNL     1      -3.258   3.605  -1.234  0.00  0.00    +0.068 C 
ATOM     18  C   UNL     1      -4.125   3.346  -2.234  0.00  0.00    +0.013 C 
BRANCH  18  19
ATOM     19  C   UNL     1      -4.694   1.997  -2.384  0.00  0.00    -0.025 A 
ATOM     20  C   UNL     1      -3.875   0.871  -2.257  0.00  0.00    +0.010 A 
ATOM     21  C   UNL     1      -4.417  -0.390  -2.393  0.00  0.00    +0.033 A 
ATOM     22  C   UNL     1      -5.765  -0.542  -2.667  0.00  0.00    +0.126 A 
ATOM     23  C   UNL     1      -6.581   0.568  -2.801  0.00  0.00    +0.033 A 
ATOM     24  C   UNL     1      -6.055   1.835  -2.661  0.00  0.00    +0.010 A 
BRANCH  22  25
ATOM     25  N   UNL     1      -6.337  -1.899  -2.819  0.00  0.00    +0.056 N 
ATOM     26  O   UNL     1      -7.522  -2.036  -3.060  0.00  0.00    -0.126 OA
ATOM     27  O   UNL     1      -5.622  -2.878  -2.702  0.00  0.00    -0.126 OA
ENDBRANCH  22  25
ENDBRANCH  18  19
ENDBRANCH  15  17
BRANCH   1  28
ATOM     28  C   UNL     1      -1.248   4.008   0.691  0.00  0.00    +0.097 C 
BRANCH  28  29
ATOM     29  C   UNL     1      -0.015   3.697  -0.160  0.00  0.00    -0.059 C 
BRANCH  29  30
ATOM     30  N   UNL     1       0.828   4.909  -0.240  0.00  0.00    +0.380 N 
ATOM     31  H   UNL     1       0.246   5.699  -0.542  0.00  0.00    -0.082 HD
BRANCH  30  33
ATOM     32  C   UNL     1       2.294   4.065   1.562  0.00  0.00    -0.017 C 
ATOM     33  C   UNL     1       1.402   5.213   1.087  0.00  0.00    -0.082 C 
ENDBRANCH  30  33
BRANCH  30  34
ATOM     34  C   UNL     1       1.911   4.707  -1.225  0.00  0.00    -0.082 C 
ATOM     35  C   UNL     1       2.606   6.046  -1.476  0.00  0.00    -0.017 C 
ENDBRANCH  30  34
ENDBRANCH  29  30
ENDBRANCH  28  29
ENDBRANCH   1  28
TORSDOF 8
