REMARK  Name = ZINC11910319
REMARK  11 active torsions:
REMARK  status: ('A' for Active; 'I' for Inactive)
REMARK    1  A    between atoms: C_1  and  C_2
REMARK    2  A    between atoms: C_2  and  C_4
REMARK    3  A    between atoms: C_2  and  N_61
REMARK    4  A    between atoms: C_9  and  N_61
REMARK    5  A    between atoms: C_10  and  C_11
REMARK    6  A    between atoms: C_10  and  N_61
REMARK    7  A    between atoms: C_13  and  C_29
REMARK    8  A    between atoms: C_16  and  O_17
REMARK    9  A    between atoms: O_17  and  C_18
REMARK   10  A    between atoms: C_18  and  C_19
REMARK   11  A    between atoms: N_21  and  C_22
REMARK                            x       y       z     vdW  Elec       q    Type
REMARK                         _______ _______ _______ _____ _____    ______ ____
ROOT
ATOM      1  C   UNL     1       2.477  -1.252  -0.752  0.00  0.00    -0.022 A 
ATOM      2  C   UNL     1       2.529  -2.563  -1.178  0.00  0.00    +0.013 A 
ATOM      3  C   UNL     1       1.393  -3.366  -1.098  0.00  0.00    -0.017 A 
ATOM      4  C   UNL     1       0.206  -2.841  -0.589  0.00  0.00    +0.012 A 
ATOM      5  C   UNL     1       0.161  -1.531  -0.160  0.00  0.00    +0.046 A 
ATOM      6  C   UNL     1       1.294  -0.732  -0.246  0.00  0.00    +0.123 A 
ENDROOT
BRANCH   3   7
ATOM      7  C   UNL     1       1.445  -4.776  -1.555  0.00  0.00    -0.018 A 
ATOM      8  C   UNL     1       2.629  -5.301  -2.070  0.00  0.00    +0.008 A 
ATOM      9  C   UNL     1       2.674  -6.615  -2.488  0.00  0.00    +0.001 A 
ATOM     10  C   UNL     1       1.544  -7.408  -2.407  0.00  0.00    +0.000 A 
ATOM     11  C   UNL     1       0.364  -6.891  -1.902  0.00  0.00    +0.001 A 
ATOM     12  C   UNL     1       0.310  -5.580  -1.476  0.00  0.00    +0.008 A 
ENDBRANCH   3   7
BRANCH   1  13
ATOM     13  C   UNL     1       3.705  -0.384  -0.838  0.00  0.00    -0.039 C 
BRANCH  13  15
ATOM     14  C   UNL     1       4.872  -1.621   0.886  0.00  0.00    -0.095 C 
ATOM     15  N   UNL     1       4.326  -0.302   0.501  0.00  0.00    +0.385 N 
ATOM     16  H   UNL     1       3.610  -0.025   1.184  0.00  0.00    -0.081 HD
BRANCH  15  18
ATOM     17  C   UNL     1       6.629   0.184  -0.252  0.00  0.00    -0.008 C 
ATOM     18  C   UNL     1       5.403   0.709   0.498  0.00  0.00    -0.034 C 
BRANCH  18  19
ATOM     19  C   UNL     1       5.781   1.018   1.924  0.00  0.00    -0.024 A 
ATOM     20  C   UNL     1       5.926   2.224   2.526  0.00  0.00    +0.009 A 
ATOM     21  C   UNL     1       6.283   2.268   3.861  0.00  0.00    +0.008 A 
ATOM     22  C   UNL     1       6.477   1.104   4.528  0.00  0.00    +0.045 A 
ATOM     23  S   UNL     1       6.147  -0.108   3.260  0.00  0.00    -0.103 S 
ENDBRANCH  18  19
ENDBRANCH  15  18
ENDBRANCH  13  15
ENDBRANCH   1  13
BRANCH   6  24
ATOM     24  O   UNL     1       1.245   0.560   0.173  0.00  0.00    -0.483 OA
BRANCH  24  25
ATOM     25  C   UNL     1      -0.004   1.030   0.683  0.00  0.00    +0.324 C 
BRANCH  25  26
ATOM     26  C   UNL     1       0.133   2.473   1.095  0.00  0.00    +0.255 C 
ATOM     27  O   UNL     1       1.196   3.043   0.964  0.00  0.00    -0.272 OA
ATOM     28  N   UNL     1      -0.927   3.133   1.603  0.00  0.00    -0.280 N 
ATOM     29  H   UNL     1      -1.793   2.699   1.645  0.00  0.00    +0.155 HD
BRANCH  28  30
ATOM     30  C   UNL     1      -0.777   4.444   2.070  0.00  0.00    +0.069 A 
ATOM     31  C   UNL     1       0.208   5.264   1.538  0.00  0.00    +0.026 A 
ATOM     32  C   UNL     1       0.349   6.560   1.996  0.00  0.00    +0.002 A 
ATOM     33  C   UNL     1      -0.481   7.037   2.993  0.00  0.00    +0.003 A 
ATOM     34  C   UNL     1      -1.461   6.223   3.531  0.00  0.00    +0.040 A 
ATOM     35  C   UNL     1      -1.612   4.927   3.072  0.00  0.00    +0.144 A 
ATOM     36  F   UNL     1      -2.568   4.130   3.598  0.00  0.00    -0.204 F 
ENDBRANCH  28  30
ENDBRANCH  25  26
ENDBRANCH  24  25
ENDBRANCH   6  24
TORSDOF 9
