REMARK  Name = ZINC40917307
REMARK  8 active torsions:
REMARK  status: ('A' for Active; 'I' for Inactive)
REMARK    1  A    between atoms: C_1  and  C_2
REMARK    2  A    between atoms: C_2  and  O_3
REMARK    3  A    between atoms: O_3  and  C_4
REMARK    4  A    between atoms: C_6  and  C_20
REMARK    5  A    between atoms: C_9  and  O_10
REMARK    6  A    between atoms: O_10  and  C_11
REMARK    7  A    between atoms: C_11  and  C_12
REMARK    8  A    between atoms: C_16  and  C_18
REMARK                            x       y       z     vdW  Elec       q    Type
REMARK                         _______ _______ _______ _____ _____    ______ ____
ROOT
ATOM      1  C   UNL     1       0.802  -1.825   1.306  0.00  0.00    +0.163 A 
ATOM      2  C   UNL     1       0.260  -2.673   0.352  0.00  0.00    +0.055 A 
ATOM      3  C   UNL     1       0.371  -4.043   0.502  0.00  0.00    -0.014 A 
ATOM      4  C   UNL     1       1.022  -4.571   1.602  0.00  0.00    +0.025 A 
ATOM      5  C   UNL     1       1.565  -3.730   2.557  0.00  0.00    +0.063 A 
ATOM      6  C   UNL     1       1.462  -2.356   2.409  0.00  0.00    +0.176 A 
ATOM      7 BR   UNL     1       2.453  -4.456   4.061  0.00  0.00    -0.046 Br
ENDROOT
BRANCH   3   8
ATOM      8  C   UNL     1      -0.219  -4.963  -0.535  0.00  0.00    +0.177 C 
ATOM      9  C   UNL     1      -1.260  -5.849   0.113  0.00  0.00    +0.041 C 
ATOM     10  C   UNL     1      -1.039  -7.159   0.353  0.00  0.00    +0.020 C 
ATOM     11  C   UNL     1      -2.099  -8.019   1.001  0.00  0.00    +0.052 C 
ATOM     12  C   UNL     1      -2.947  -7.167   1.946  0.00  0.00    +0.014 C 
ATOM     13  C   UNL     1      -3.577  -6.029   1.136  0.00  0.00    +0.080 C 
ATOM     14  C   UNL     1      -2.483  -5.248   0.462  0.00  0.00    +0.163 C 
ATOM     15  O   UNL     1      -2.659  -4.071   0.214  0.00  0.00    -0.292 OA
ATOM     16  N   UNL     1       0.146  -7.769   0.017  0.00  0.00    -0.286 N 
ATOM     17  C   UNL     1       1.001  -7.099  -0.841  0.00  0.00    +0.240 A 
ATOM     18  N   UNL     1       0.837  -5.780  -1.113  0.00  0.00    -0.201 N 
ATOM     19  N   UNL     1       1.857  -5.456  -2.005  0.00  0.00    -0.042 NA
ATOM     20  N   UNL     1       2.536  -6.541  -2.197  0.00  0.00    -0.021 NA
ATOM     21  N   UNL     1       2.037  -7.508  -1.515  0.00  0.00    -0.092 NA
ATOM     22  H   UNL     1       0.377  -8.643   0.370  0.00  0.00    +0.155 HD
ENDBRANCH   3   8
BRANCH   1  23
ATOM     23  O   UNL     1       0.693  -0.477   1.160  0.00  0.00    -0.489 OA
BRANCH  23  25
ATOM     24  C   UNL     1      -0.019   1.526   0.010  0.00  0.00    +0.048 C 
ATOM     25  C   UNL     1       0.002  -0.004   0.002  0.00  0.00    +0.226 C 
ENDBRANCH  23  25
ENDBRANCH   1  23
BRANCH   6  26
ATOM     26  O   UNL     1       2.000  -1.528   3.345  0.00  0.00    -0.483 OA
BRANCH  26  27
ATOM     27  C   UNL     1       1.161  -1.151   4.438  0.00  0.00    +0.264 C 
BRANCH  27  28
ATOM     28  C   UNL     1       1.922  -0.238   5.365  0.00  0.00    -0.010 A 
ATOM     29  C   UNL     1       2.658  -0.770   6.408  0.00  0.00    +0.007 A 
ATOM     30  C   UNL     1       3.356   0.067   7.258  0.00  0.00    +0.001 A 
ATOM     31  C   UNL     1       3.318   1.435   7.065  0.00  0.00    +0.003 A 
ATOM     32  C   UNL     1       2.583   1.967   6.022  0.00  0.00    -0.050 A 
ATOM     33  C   UNL     1       1.888   1.129   5.169  0.00  0.00    +0.010 A 
ATOM     34  C   UNL     1       2.542   3.458   5.813  0.00  0.00    +0.044 C 
ENDBRANCH  27  28
ENDBRANCH  26  27
ENDBRANCH   6  26
TORSDOF 6
