REMARK  Name = ZINC35987799
REMARK  8 active torsions:
REMARK  status: ('A' for Active; 'I' for Inactive)
REMARK    1  A    between atoms: C_1  and  C_2
REMARK    2  A    between atoms: C_5  and  C_8
REMARK    3  A    between atoms: C_11  and  C_29
REMARK    4  A    between atoms: C_21  and  C_23
REMARK    5  A    between atoms: C_23  and  C_24
REMARK    6  A    between atoms: N_31  and  C_32
REMARK    7  A    between atoms: C_32  and  C_34
REMARK    8  A    between atoms: C_32  and  C_35
REMARK                            x       y       z     vdW  Elec       q    Type
REMARK                         _______ _______ _______ _____ _____    ______ ____
ROOT
ATOM      1  C   UNL     1       0.809  -3.587   0.177  0.00  0.00    +0.249 C 
ATOM      2  O   UNL     1       1.062  -3.886  -0.973  0.00  0.00    -0.270 OA
ATOM      3  N   UNL     1       0.584  -4.551   1.091  0.00  0.00    -0.255 N 
ATOM      4  C   UNL     1       0.184  -4.363   2.504  0.00  0.00    +0.190 C 
ATOM      5  C   UNL     1      -0.443  -5.732   2.868  0.00  0.00    +0.194 C 
ATOM      6  O   UNL     1       0.387  -6.659   2.130  0.00  0.00    -0.353 OA
ATOM      7  C   UNL     1       0.678  -6.004   0.885  0.00  0.00    +0.142 C 
ATOM      8  C   UNL     1      -0.334  -6.440  -0.175  0.00  0.00    +0.074 C 
ATOM      9  C   UNL     1      -0.035  -5.716  -1.491  0.00  0.00    +0.112 C 
ATOM     10  N   UNL     1       1.368  -5.956  -1.855  0.00  0.00    -0.301 N 
ATOM     11  C   UNL     1       2.416  -5.644  -0.873  0.00  0.00    +0.112 C 
ATOM     12  C   UNL     1       2.095  -6.369   0.438  0.00  0.00    +0.074 C 
ATOM     13  C   UNL     1       1.688  -6.452  -3.066  0.00  0.00    +0.220 C 
ATOM     14  O   UNL     1       0.814  -6.705  -3.868  0.00  0.00    -0.275 OA
ENDROOT
BRANCH   1  19
ATOM     15  C   UNL     1       0.573   1.952   1.722  0.00  0.00    +0.044 C 
ATOM     16  C   UNL     1       0.635   0.502   1.318  0.00  0.00    -0.050 A 
ATOM     17  C   UNL     1       0.277   0.129   0.034  0.00  0.00    +0.004 A 
ATOM     18  C   UNL     1       0.331  -1.197  -0.342  0.00  0.00    +0.013 A 
ATOM     19  C   UNL     1       0.749  -2.163   0.574  0.00  0.00    +0.037 A 
ATOM     20  C   UNL     1       1.109  -1.780   1.867  0.00  0.00    +0.013 A 
ATOM     21  C   UNL     1       1.056  -0.450   2.229  0.00  0.00    +0.004 A 
ENDBRANCH   1  19
BRANCH   4  22
ATOM     22  C   UNL     1      -0.831  -3.256   2.629  0.00  0.00    +0.236 C 
ATOM     23  O   UNL     1      -1.576  -3.009   1.704  0.00  0.00    -0.274 OA
ATOM     24  N   UNL     1      -0.910  -2.540   3.768  0.00  0.00    -0.307 N 
ATOM     25  H   UNL     1      -0.314  -2.737   4.508  0.00  0.00    +0.149 HD
BRANCH  24  26
ATOM     26  C   UNL     1      -1.897  -1.463   3.890  0.00  0.00    +0.100 C 
ATOM     27  C   UNL     1      -3.238  -2.049   4.337  0.00  0.00    +0.033 C 
BRANCH  26  28
ATOM     28  C   UNL     1      -1.422  -0.460   4.909  0.00  0.00    -0.027 A 
ATOM     29  C   UNL     1      -0.802  -0.890   6.067  0.00  0.00    +0.005 A 
ATOM     30  C   UNL     1      -0.367   0.030   7.001  0.00  0.00    +0.000 A 
ATOM     31  C   UNL     1      -0.551   1.382   6.777  0.00  0.00    +0.000 A 
ATOM     32  C   UNL     1      -1.170   1.813   5.619  0.00  0.00    +0.000 A 
ATOM     33  C   UNL     1      -1.601   0.892   4.682  0.00  0.00    +0.005 A 
ENDBRANCH  26  28
ENDBRANCH  24  26
ENDBRANCH   4  22
BRANCH  13  34
ATOM     34  C   UNL     1       3.132  -6.693  -3.424  0.00  0.00    +0.138 C 
BRANCH  34  35
ATOM     35  C   UNL     1       3.217  -7.247  -4.823  0.00  0.00    -0.001 A 
ATOM     36  C   UNL     1       3.339  -6.582  -5.998  0.00  0.00    +0.011 A 
ATOM     37  C   UNL     1       3.400  -7.305  -7.174  0.00  0.00    +0.008 A 
ATOM     38  C   UNL     1       3.336  -8.658  -7.118  0.00  0.00    +0.045 A 
ATOM     39  S   UNL     1       3.192  -8.948  -5.362  0.00  0.00    -0.101 S 
ENDBRANCH  34  35
ENDBRANCH  13  34
TORSDOF 6
