REMARK  Name = ZINC39325409
REMARK  10 active torsions:
REMARK  status: ('A' for Active; 'I' for Inactive)
REMARK    1  A    between atoms: C_1  and  O_2
REMARK    2  A    between atoms: O_2  and  C_3
REMARK    3  A    between atoms: C_7  and  C_17
REMARK    4  A    between atoms: C_14  and  O_15
REMARK    5  A    between atoms: O_15  and  C_16
REMARK    6  A    between atoms: C_17  and  N_18
REMARK    7  A    between atoms: N_18  and  C_19
REMARK    8  A    between atoms: N_18  and  S_27
REMARK    9  A    between atoms: C_19  and  C_20
REMARK   10  A    between atoms: S_27  and  C_30
REMARK                            x       y       z     vdW  Elec       q    Type
REMARK                         _______ _______ _______ _____ _____    ______ ____
ROOT
ATOM      1  N   UNL     1      -8.237  -0.826   1.209  0.00  0.00    -0.171 NA
ENDROOT
BRANCH   1   2
ATOM      2  S   UNL     1      -9.423  -0.002   0.399  0.00  0.00    +0.061 S 
ATOM      3  O   UNL     1     -10.660  -0.404   0.973  0.00  0.00    -0.153 OA
ATOM      4  O   UNL     1      -9.013   1.357   0.348  0.00  0.00    -0.153 OA
BRANCH   2   5
ATOM      5  C   UNL     1      -9.425  -0.591  -1.262  0.00  0.00    +0.106 A 
ATOM      6  C   UNL     1      -8.629   0.022  -2.212  0.00  0.00    +0.031 A 
ATOM      7  C   UNL     1      -8.629  -0.439  -3.515  0.00  0.00    +0.040 A 
ATOM      8  C   UNL     1      -9.426  -1.514  -3.869  0.00  0.00    +0.124 A 
ATOM      9  C   UNL     1     -10.223  -2.127  -2.916  0.00  0.00    +0.040 A 
ATOM     10  C   UNL     1     -10.217  -1.667  -1.613  0.00  0.00    +0.031 A 
ATOM     11  F   UNL     1      -9.427  -1.965  -5.142  0.00  0.00    -0.205 F 
ENDBRANCH   2   5
ENDBRANCH   1   2
BRANCH   1  12
ATOM     12  C   UNL     1      -6.907  -0.230   1.364  0.00  0.00    +0.126 C 
BRANCH  12  17
ATOM     13  C   UNL     1      -1.188  -0.815   0.353  0.00  0.00    +0.162 A 
ATOM     14  C   UNL     1      -2.282  -0.011   0.399  0.00  0.00    +0.059 A 
ATOM     15  C   UNL     1      -3.611  -0.610   0.248  0.00  0.00    -0.003 A 
ATOM     16  C   UNL     1      -4.729   0.165   0.288  0.00  0.00    -0.003 C 
ATOM     17  C   UNL     1      -6.065  -0.532   0.123  0.00  0.00    +0.114 C 
ATOM     18  C   UNL     1      -6.049  -2.031  -0.072  0.00  0.00    +0.225 C 
ATOM     19  O   UNL     1      -7.093  -2.640  -0.209  0.00  0.00    -0.275 OA
ATOM     20  N   UNL     1      -4.896  -2.677  -0.093  0.00  0.00    -0.284 N 
ATOM     21  C   UNL     1      -3.717  -2.067   0.052  0.00  0.00    +0.044 A 
ATOM     22  C   UNL     1      -2.535  -2.820   0.018  0.00  0.00    +0.073 A 
ATOM     23  C   UNL     1      -1.312  -2.204   0.159  0.00  0.00    +0.163 A 
ATOM     24  H   UNL     1      -4.907  -3.639  -0.219  0.00  0.00    +0.155 HD
BRANCH  13  26
ATOM     25  C   UNL     1       0.114   1.146   0.687  0.00  0.00    +0.277 C 
ATOM     26  O   UNL     1       0.048  -0.268   0.493  0.00  0.00    -0.491 OA
ENDBRANCH  13  26
BRANCH  23  27
ATOM     27  O   UNL     1      -0.190  -2.961   0.116  0.00  0.00    -0.491 OA
ATOM     28  C   UNL     1      -0.362  -4.366  -0.083  0.00  0.00    +0.277 C 
ENDBRANCH  23  27
ENDBRANCH  12  17
ENDBRANCH   1  12
BRANCH   1  29
ATOM     29  C   UNL     1      -8.516  -2.150   1.770  0.00  0.00    +0.144 C 
BRANCH  29  30
ATOM     30  C   UNL     1      -8.930  -2.007   3.212  0.00  0.00    -0.031 A 
ATOM     31  C   UNL     1      -7.974  -2.034   4.211  0.00  0.00    +0.008 A 
ATOM     32  C   UNL     1      -8.353  -1.902   5.534  0.00  0.00    +0.038 A 
ATOM     33  C   UNL     1      -9.689  -1.744   5.858  0.00  0.00    +0.123 A 
ATOM     34  C   UNL     1     -10.645  -1.717   4.857  0.00  0.00    +0.038 A 
ATOM     35  C   UNL     1     -10.264  -1.843   3.535  0.00  0.00    +0.008 A 
ATOM     36  F   UNL     1     -10.060  -1.616   7.151  0.00  0.00    -0.205 F 
ENDBRANCH  29  30
ENDBRANCH   1  29
TORSDOF 8
