REMARK  Name = ZINC09356873
REMARK  8 active torsions:
REMARK  status: ('A' for Active; 'I' for Inactive)
REMARK    1  A    between atoms: C_4  and  C_7
REMARK    2  A    between atoms: C_7  and  N_64
REMARK    3  A    between atoms: C_10  and  N_13
REMARK    4  A    between atoms: C_14  and  C_15
REMARK    5  A    between atoms: C_16  and  O_31
REMARK    6  A    between atoms: N_20  and  C_23
REMARK    7  A    between atoms: C_23  and  C_24
REMARK    8  A    between atoms: C_24  and  C_25
REMARK                            x       y       z     vdW  Elec       q    Type
REMARK                         _______ _______ _______ _____ _____    ______ ____
ROOT
ATOM      1  C   UNL     1       1.265   2.037   0.003  0.00  0.00    +0.199 C 
ATOM      2  C   UNL     1      -0.016   1.319   0.038  0.00  0.00    +0.198 C 
ATOM      3  N   UNL     1       0.002  -0.004   0.031  0.00  0.00    -0.131 NA
ATOM      4  C   UNL     1       1.139  -0.695  -0.006  0.00  0.00    +0.335 C 
ATOM      5  O   UNL     1       1.073  -1.911  -0.011  0.00  0.00    -0.250 OA
ATOM      6  N   UNL     1       2.352  -0.124  -0.040  0.00  0.00    -0.223 N 
ATOM      7  C   UNL     1       2.491   1.219  -0.038  0.00  0.00    +0.240 C 
ATOM      8  O   UNL     1       3.592   1.737  -0.070  0.00  0.00    -0.274 OA
ENDROOT
BRANCH   1  10
ATOM      9  N   UNL     1       2.507   4.050   0.102  0.00  0.00    -0.291 NA
ATOM     10  C   UNL     1       1.319   3.423   0.008  0.00  0.00    +0.100 C 
BRANCH   9  13
ATOM     11  C   UNL     1       3.936   7.449   0.976  0.00  0.00    -0.076 C 
ATOM     12  C   UNL     1       3.860   5.922   0.910  0.00  0.00    +0.008 C 
ATOM     13  C   UNL     1       2.557   5.509   0.220  0.00  0.00    +0.101 C 
ATOM     14  C   UNL     1       2.505   6.138  -1.175  0.00  0.00    +0.008 C 
ATOM     15  C   UNL     1       2.621   7.658  -1.049  0.00  0.00    -0.076 C 
ATOM     16  N   UNL     1       3.907   7.990  -0.399  0.00  0.00    +0.382 N 
ATOM     17  H   UNL     1       4.671   7.569  -0.939  0.00  0.00    -0.081 HD
BRANCH  16  18
ATOM     18  C   UNL     1       4.093   9.456  -0.368  0.00  0.00    -0.043 C 
BRANCH  18  22
ATOM     19  C   UNL     1       3.241  11.057  -4.236  0.00  0.00    +0.000 A 
ATOM     20  C   UNL     1       2.236  10.959  -3.292  0.00  0.00    +0.000 A 
ATOM     21  C   UNL     1       2.512  10.440  -2.041  0.00  0.00    +0.002 A 
ATOM     22  C   UNL     1       3.792  10.021  -1.733  0.00  0.00    -0.064 A 
ATOM     23  C   UNL     1       4.799  10.124  -2.675  0.00  0.00    +0.002 A 
ATOM     24  C   UNL     1       4.522  10.637  -3.928  0.00  0.00    +0.000 A 
ENDBRANCH  18  22
ENDBRANCH  16  18
ENDBRANCH   9  13
ENDBRANCH   1  10
BRANCH   2  25
ATOM     25  O   UNL     1      -1.184   1.993   0.070  0.00  0.00    -0.496 OA
ATOM     26  H   UNL     1      -1.966   1.424   0.087  0.00  0.00    +0.293 HD
ENDBRANCH   2  25
BRANCH   6  27
ATOM     27  C   UNL     1       3.546  -0.972  -0.080  0.00  0.00    +0.122 C 
BRANCH  27  28
ATOM     28  C   UNL     1       3.918  -1.260  -1.536  0.00  0.00    +0.050 C 
BRANCH  28  29
ATOM     29  C   UNL     1       5.146  -2.133  -1.577  0.00  0.00    -0.072 C 
ATOM     30  C   UNL     1       4.979  -3.413  -1.672  0.00  0.00    -0.028 C 
ATOM     31  C   UNL     1       6.102  -4.407  -1.719  0.00  0.00    +0.027 C 
ATOM     32  C   UNL     1       7.418  -3.701  -2.052  0.00  0.00    +0.004 C 
ATOM     33  C   UNL     1       7.565  -2.486  -1.128  0.00  0.00    +0.005 C 
ATOM     34  C   UNL     1       6.487  -1.464  -1.498  0.00  0.00    +0.030 C 
ENDBRANCH  28  29
ENDBRANCH  27  28
ENDBRANCH   6  27
TORSDOF 8
