REMARK  Name = ZINC16682656
REMARK  13 active torsions:
REMARK  status: ('A' for Active; 'I' for Inactive)
REMARK    1  A    between atoms: C_1  and  C_2
REMARK    2  A    between atoms: C_2  and  O_3
REMARK    3  A    between atoms: O_3  and  C_4
REMARK    4  A    between atoms: C_4  and  C_6
REMARK    5  A    between atoms: C_8  and  C_29
REMARK    6  A    between atoms: C_9  and  C_24
REMARK    7  A    between atoms: C_11  and  C_19
REMARK    8  A    between atoms: C_11  and  O_23
REMARK    9  A    between atoms: C_13  and  C_14
REMARK   10  A    between atoms: C_13  and  O_18
REMARK   11  A    between atoms: C_24  and  O_26
REMARK   12  A    between atoms: O_26  and  C_27
REMARK   13  A    between atoms: C_27  and  C_28
REMARK                            x       y       z     vdW  Elec       q    Type
REMARK                         _______ _______ _______ _____ _____    ______ ____
ROOT
ATOM      1  C   UNL     1       1.787  -3.324  -1.127  0.00  0.00    +0.162 C 
ATOM      2  C   UNL     1       1.401  -2.304  -0.052  0.00  0.00    +0.055 C 
ATOM      3  C   UNL     1       2.168  -2.616   1.237  0.00  0.00    +0.162 C 
ATOM      4  C   UNL     1       1.854  -4.048   1.677  0.00  0.00    +0.230 C 
ATOM      5  N   UNL     1       2.242  -4.986   0.615  0.00  0.00    -0.245 NA
ATOM      6  C   UNL     1       1.483  -4.735  -0.617  0.00  0.00    +0.230 C 
ATOM      7  H   UNL     1       3.313  -4.870   0.397  0.00  0.00    +0.128 HD
ENDROOT
BRANCH   2   8
ATOM      8  C   UNL     1       1.754  -0.917  -0.524  0.00  0.00    -0.042 A 
ATOM      9  C   UNL     1       3.007  -0.664  -1.048  0.00  0.00    +0.005 A 
ATOM     10  C   UNL     1       3.331   0.608  -1.481  0.00  0.00    +0.020 A 
ATOM     11  C   UNL     1       2.401   1.628  -1.390  0.00  0.00    +0.041 A 
ATOM     12  C   UNL     1       1.146   1.373  -0.865  0.00  0.00    +0.020 A 
ATOM     13  C   UNL     1       0.823   0.101  -0.432  0.00  0.00    +0.005 A 
ATOM     14 CL   UNL     1       2.807   3.226  -1.933  0.00  0.00    -0.084 Cl
ENDBRANCH   2   8
BRANCH   6  15
ATOM     15  C   UNL     1       1.885  -5.759  -1.681  0.00  0.00    +0.433 C 
ATOM     16  F   UNL     1       3.226  -5.565  -2.030  0.00  0.00    -0.166 F 
ATOM     17  F   UNL     1       1.718  -7.051  -1.171  0.00  0.00    -0.166 F 
ATOM     18  F   UNL     1       1.080  -5.596  -2.813  0.00  0.00    -0.166 F 
ENDBRANCH   6  15
BRANCH   4  19
ATOM     19  C   UNL     1       2.635  -4.372   2.952  0.00  0.00    +0.433 C 
ATOM     20  F   UNL     1       4.006  -4.373   2.672  0.00  0.00    -0.166 F 
ATOM     21  F   UNL     1       2.359  -3.406   3.926  0.00  0.00    -0.166 F 
ATOM     22  F   UNL     1       2.254  -5.632   3.425  0.00  0.00    -0.166 F 
ENDBRANCH   4  19
BRANCH   1  23
ATOM     23  C   UNL     1       0.993  -3.059  -2.380  0.00  0.00    +0.315 C 
ATOM     24  O   UNL     1      -0.155  -2.691  -2.300  0.00  0.00    -0.250 OA
BRANCH  23  25
ATOM     25  O   UNL     1       1.561  -3.231  -3.583  0.00  0.00    -0.465 OA
BRANCH  25  27
ATOM     26  C   UNL     1       1.549  -3.207  -6.019  0.00  0.00    +0.048 C 
ATOM     27  C   UNL     1       0.736  -2.957  -4.747  0.00  0.00    +0.229 C 
ENDBRANCH  25  27
ENDBRANCH  23  25
ENDBRANCH   1  23
BRANCH   6  28
ATOM     28  O   UNL     1       0.085  -4.853  -0.348  0.00  0.00    -0.366 OA
ATOM     29  H   UNL     1      -0.325  -5.802   0.029  0.00  0.00    +0.212 HD
ENDBRANCH   6  28
BRANCH   4  30
ATOM     30  O   UNL     1       0.454  -4.170   1.932  0.00  0.00    -0.366 OA
ATOM     31  H   UNL     1       0.036  -5.134   2.261  0.00  0.00    +0.212 HD
ENDBRANCH   4  30
BRANCH   3  32
ATOM     32  C   UNL     1       3.648  -2.481   0.987  0.00  0.00    +0.315 C 
ATOM     33  O   UNL     1       4.224  -3.301   0.313  0.00  0.00    -0.250 OA
BRANCH  32  34
ATOM     34  O   UNL     1       4.326  -1.449   1.514  0.00  0.00    -0.465 OA
BRANCH  34  35
ATOM     35  C   UNL     1       5.748  -1.382   1.232  0.00  0.00    +0.229 C 
ATOM     36  C   UNL     1       6.346  -0.148   1.911  0.00  0.00    +0.048 C 
ENDBRANCH  34  35
ENDBRANCH  32  34
ENDBRANCH   3  32
TORSDOF 11
