REMARK  Name = ZINC36393279
REMARK  10 active torsions:
REMARK  status: ('A' for Active; 'I' for Inactive)
REMARK    1  A    between atoms: C_1  and  C_2
REMARK    2  A    between atoms: C_2  and  C_4
REMARK    3  A    between atoms: C_2  and  N_20
REMARK    4  A    between atoms: C_7  and  N_10
REMARK    5  A    between atoms: N_13  and  C_14
REMARK    6  A    between atoms: N_23  and  C_24
REMARK    7  A    between atoms: C_24  and  C_25
REMARK    8  A    between atoms: C_28  and  N_31
REMARK    9  A    between atoms: N_31  and  C_32
REMARK   10  A    between atoms: N_31  and  C_33
REMARK                            x       y       z     vdW  Elec       q    Type
REMARK                         _______ _______ _______ _____ _____    ______ ____
ROOT
ATOM      1  C   UNL     1       0.213   2.235   0.386  0.00  0.00    +0.033 C 
ATOM      2  C   UNL     1      -0.097   0.736   0.397  0.00  0.00    +0.102 C 
ENDROOT
BRANCH   2   3
ATOM      3  C   UNL     1       0.648   0.078   1.529  0.00  0.00    -0.027 A 
ATOM      4  C   UNL     1       0.150   0.150   2.817  0.00  0.00    +0.007 A 
ATOM      5  C   UNL     1       0.830  -0.453   3.857  0.00  0.00    +0.023 A 
ATOM      6  C   UNL     1       2.016  -1.132   3.609  0.00  0.00    +0.035 A 
ATOM      7  C   UNL     1       2.514  -1.202   2.314  0.00  0.00    +0.023 A 
ATOM      8  C   UNL     1       1.826  -0.603   1.278  0.00  0.00    +0.007 A 
BRANCH   6   9
ATOM      9  N   UNL     1       2.707  -1.743   4.660  0.00  0.00    -0.269 N 
ATOM     10  C   UNL     1       2.028  -2.270   5.698  0.00  0.00    +0.308 C 
ATOM     11  O   UNL     1       0.812  -2.300   5.676  0.00  0.00    -0.252 OA
ATOM     12  N   UNL     1       2.695  -2.765   6.759  0.00  0.00    -0.269 N 
ATOM     13  H   UNL     1       3.676  -1.787   4.643  0.00  0.00    +0.156 HD
ATOM     14  H   UNL     1       3.659  -2.675   6.811  0.00  0.00    +0.156 HD
BRANCH  12  15
ATOM     15  C   UNL     1       1.996  -3.410   7.786  0.00  0.00    +0.035 A 
ATOM     16  C   UNL     1       0.855  -4.146   7.496  0.00  0.00    +0.023 A 
ATOM     17  C   UNL     1       0.168  -4.782   8.511  0.00  0.00    +0.002 A 
ATOM     18  C   UNL     1       0.616  -4.685   9.816  0.00  0.00    +0.000 A 
ATOM     19  C   UNL     1       1.752  -3.953  10.109  0.00  0.00    +0.002 A 
ATOM     20  C   UNL     1       2.446  -3.320   9.097  0.00  0.00    +0.023 A 
ENDBRANCH  12  15
ENDBRANCH   6   9
ENDBRANCH   2   3
BRANCH   2  21
ATOM     21  N   UNL     1      -1.536   0.536   0.578  0.00  0.00    -0.293 N 
ATOM     22  C   UNL     1      -2.360   0.567  -0.488  0.00  0.00    +0.300 C 
ATOM     23  O   UNL     1      -1.908   0.761  -1.601  0.00  0.00    -0.253 OA
ATOM     24  N   UNL     1      -3.685   0.383  -0.322  0.00  0.00    -0.295 N 
ATOM     25  H   UNL     1      -1.897   0.382   1.465  0.00  0.00    +0.151 HD
ATOM     26  H   UNL     1      -4.046   0.229   0.565  0.00  0.00    +0.151 HD
BRANCH  24  27
ATOM     27  C   UNL     1      -4.580   0.417  -1.481  0.00  0.00    +0.141 C 
BRANCH  27  28
ATOM     28  C   UNL     1      -5.999   0.186  -1.027  0.00  0.00    -0.030 A 
ATOM     29  C   UNL     1      -6.501  -1.101  -0.961  0.00  0.00    +0.007 A 
ATOM     30  C   UNL     1      -7.800  -1.317  -0.545  0.00  0.00    +0.023 A 
ATOM     31  C   UNL     1      -8.603  -0.239  -0.193  0.00  0.00    +0.029 A 
ATOM     32  C   UNL     1      -8.095   1.052  -0.261  0.00  0.00    +0.023 A 
ATOM     33  C   UNL     1      -6.793   1.260  -0.672  0.00  0.00    +0.007 A 
BRANCH  31  34
ATOM     34  N   UNL     1      -9.917  -0.453   0.227  0.00  0.00    -0.336 N 
ATOM     35  C   UNL     1     -10.451  -1.816   0.297  0.00  0.00    +0.129 C 
ATOM     36  C   UNL     1     -10.763   0.684   0.597  0.00  0.00    +0.129 C 
ENDBRANCH  31  34
ENDBRANCH  27  28
ENDBRANCH  24  27
ENDBRANCH   2  21
TORSDOF 7
