REMARK  Name = ZINC43093468
REMARK  12 active torsions:
REMARK  status: ('A' for Active; 'I' for Inactive)
REMARK    1  A    between atoms: C_1  and  C_2
REMARK    2  A    between atoms: C_2  and  C_3
REMARK    3  A    between atoms: C_3  and  C_5
REMARK    4  A    between atoms: C_3  and  N_23
REMARK    5  A    between atoms: C_5  and  C_7
REMARK    6  A    between atoms: C_5  and  N_14
REMARK    7  A    between atoms: N_14  and  C_15
REMARK    8  A    between atoms: N_14  and  C_16
REMARK    9  A    between atoms: C_16  and  C_17
REMARK   10  A    between atoms: N_19  and  C_20
REMARK   11  A    between atoms: C_20  and  C_21
REMARK   12  A    between atoms: C_20  and  C_22
REMARK                            x       y       z     vdW  Elec       q    Type
REMARK                         _______ _______ _______ _____ _____    ______ ____
ROOT
ATOM      1  C   UNL     1       0.887  -1.837  -1.050  0.00  0.00    +0.074 C 
ENDROOT
BRANCH   1   2
ATOM      2  C   UNL     1       2.052  -1.888  -2.006  0.00  0.00    -0.018 A 
ATOM      3  C   UNL     1       3.109  -1.011  -1.855  0.00  0.00    +0.006 A 
ATOM      4  C   UNL     1       4.177  -1.058  -2.731  0.00  0.00    +0.000 A 
ATOM      5  C   UNL     1       4.189  -1.983  -3.758  0.00  0.00    +0.001 A 
ATOM      6  C   UNL     1       3.132  -2.861  -3.910  0.00  0.00    +0.015 A 
ATOM      7  C   UNL     1       2.065  -2.817  -3.030  0.00  0.00    +0.022 A 
ATOM      8 BR   UNL     1       0.622  -4.022  -3.233  0.00  0.00    -0.050 Br
ENDBRANCH   1   2
BRANCH   1   9
ATOM      9  N   UNL     1       1.226  -2.575   0.174  0.00  0.00    -0.292 NA
ATOM     10  C   UNL     1       1.138  -4.025  -0.044  0.00  0.00    +0.106 C 
BRANCH   9  11
ATOM     11  C   UNL     1       2.557  -2.196   0.667  0.00  0.00    +0.180 C 
BRANCH  11  12
ATOM     12  C   UNL     1       2.732  -2.697   2.077  0.00  0.00    +0.227 C 
ATOM     13  O   UNL     1       1.837  -3.309   2.619  0.00  0.00    -0.274 OA
ATOM     14  N   UNL     1       3.885  -2.465   2.736  0.00  0.00    -0.312 N 
ATOM     15  H   UNL     1       4.601  -1.975   2.303  0.00  0.00    +0.149 HD
BRANCH  14  16
ATOM     16  C   UNL     1       4.055  -2.952   4.107  0.00  0.00    +0.067 C 
ATOM     17  C   UNL     1       4.536  -4.404   4.077  0.00  0.00    +0.027 C 
ATOM     18  C   UNL     1       5.089  -2.087   4.831  0.00  0.00    +0.027 C 
ENDBRANCH  14  16
ENDBRANCH  11  12
ENDBRANCH   9  11
ENDBRANCH   1   9
BRANCH   1  19
ATOM     19  C   UNL     1       0.580  -0.380  -0.699  0.00  0.00    -0.053 C 
BRANCH  19  20
ATOM     20  N   UNL     1       0.226   0.355  -1.921  0.00  0.00    +0.381 N 
ATOM     21  H   UNL     1       0.122   1.335  -1.706  0.00  0.00    -0.090 HD
ATOM     22  H   UNL     1       0.955   0.236  -2.608  0.00  0.00    -0.090 HD
ATOM     23  H   UNL     1      -0.643  -0.003  -2.288  0.00  0.00    -0.090 HD
ENDBRANCH  19  20
BRANCH  19  25
ATOM     24  C   UNL     1      -0.808   1.115   0.744  0.00  0.00    +0.002 C 
ATOM     25  C   UNL     1      -0.591  -0.328   0.285  0.00  0.00    -0.018 C 
ENDBRANCH  19  25
ENDBRANCH   1  19
TORSDOF 8
