REMARK  Name = ZINC11477146
REMARK  7 active torsions:
REMARK  status: ('A' for Active; 'I' for Inactive)
REMARK    1  A    between atoms: C_1  and  C_2
REMARK    2  A    between atoms: C_2  and  C_4
REMARK    3  A    between atoms: C_2  and  S_19
REMARK    4  A    between atoms: N_6  and  C_7
REMARK    5  A    between atoms: C_8  and  C_17
REMARK    6  A    between atoms: S_19  and  C_20
REMARK    7  A    between atoms: N_23  and  C_25
REMARK                            x       y       z     vdW  Elec       q    Type
REMARK                         _______ _______ _______ _____ _____    ______ ____
ROOT
ATOM      1  C   UNL     1      -0.749   3.086   1.275  0.00  0.00    +0.231 C 
ATOM      2  O   UNL     1       0.108   3.701   1.873  0.00  0.00    -0.274 OA
ATOM      3  N   UNL     1      -1.721   3.751   0.618  0.00  0.00    -0.278 N 
ATOM      4  H   UNL     1      -2.407   3.259   0.141  0.00  0.00    +0.155 HD
ENDROOT
BRANCH   3   5
ATOM      5  C   UNL     1      -1.740   5.138   0.626  0.00  0.00    +0.090 A 
ATOM      6  C   UNL     1      -2.646   5.990   0.017  0.00  0.00    +0.084 A 
ATOM      7  C   UNL     1      -2.444   7.423   0.179  0.00  0.00    -0.018 A 
ATOM      8  C   UNL     1      -1.365   7.767   0.916  0.00  0.00    -0.004 A 
ATOM      9  S   UNL     1      -0.640   6.226   1.406  0.00  0.00    -0.077 S 
ATOM     10  C   UNL     1      -0.884   9.144   1.249  0.00  0.00    +0.043 C 
ATOM     11  C   UNL     1      -2.062   9.979   1.770  0.00  0.00    +0.005 C 
ATOM     12  C   UNL     1      -2.736  10.659   0.582  0.00  0.00    +0.001 C 
ATOM     13  C   UNL     1      -2.646   9.767  -0.655  0.00  0.00    +0.005 C 
ATOM     14  C   UNL     1      -3.389   8.456  -0.423  0.00  0.00    +0.037 C 
BRANCH   6  15
ATOM     15  C   UNL     1      -3.744   5.479  -0.747  0.00  0.00    +0.102 C 
ATOM     16  N   UNL     1      -4.616   5.074  -1.352  0.00  0.00    -0.191 NA
ENDBRANCH   6  15
ENDBRANCH   3   5
BRANCH   1  18
ATOM     17  C   UNL     1      -0.013   1.086   0.008  0.00  0.00    +0.029 C 
ATOM     18  C   UNL     1      -0.729   1.579   1.267  0.00  0.00    +0.137 C 
BRANCH  18  19
ATOM     19  S   UNL     1       0.148   0.978   2.736  0.00  0.00    -0.072 S 
BRANCH  19  20
ATOM     20  C   UNL     1      -0.040  -0.772   2.660  0.00  0.00    +0.210 A 
ATOM     21  N   UNL     1      -0.695  -1.443   1.706  0.00  0.00    -0.209 NA
ATOM     22  C   UNL     1      -0.642  -2.727   1.952  0.00  0.00    +0.226 A 
ATOM     23  N   UNL     1       0.058  -2.909   3.088  0.00  0.00    -0.219 N 
ATOM     24  N   UNL     1       0.443  -1.631   3.527  0.00  0.00    -0.138 NA
BRANCH  23  25
ATOM     25  C   UNL     1       0.350  -4.131   3.708  0.00  0.00    +0.067 A 
ATOM     26  C   UNL     1      -0.104  -5.319   3.150  0.00  0.00    +0.028 A 
ATOM     27  C   UNL     1       0.189  -6.523   3.760  0.00  0.00    +0.002 A 
ATOM     28  C   UNL     1       0.924  -6.545   4.931  0.00  0.00    +0.000 A 
ATOM     29  C   UNL     1       1.373  -5.364   5.492  0.00  0.00    +0.002 A 
ATOM     30  C   UNL     1       1.088  -4.157   4.883  0.00  0.00    +0.028 A 
ENDBRANCH  23  25
ENDBRANCH  19  20
ENDBRANCH  18  19
ENDBRANCH   1  18
TORSDOF 6
