REMARK  Name = ZINC40014299
REMARK  13 active torsions:
REMARK  status: ('A' for Active; 'I' for Inactive)
REMARK    1  A    between atoms: C_1  and  C_2
REMARK    2  A    between atoms: C_2  and  C_3
REMARK    3  A    between atoms: C_3  and  C_4
REMARK    4  A    between atoms: C_4  and  N_5
REMARK    5  A    between atoms: N_5  and  C_6
REMARK    6  A    between atoms: N_5  and  C_10
REMARK    7  A    between atoms: C_6  and  C_7
REMARK    8  A    between atoms: C_7  and  C_8
REMARK    9  A    between atoms: C_8  and  C_9
REMARK   10  A    between atoms: C_10  and  C_11
REMARK   11  A    between atoms: C_11  and  C_12
REMARK   12  A    between atoms: C_12  and  N_13
REMARK   13  A    between atoms: C_14  and  C_30
REMARK                            x       y       z     vdW  Elec       q    Type
REMARK                         _______ _______ _______ _____ _____    ______ ____
ROOT
ATOM      1  N   UNL     1      -2.282  -6.101  -3.290  0.00  0.00    -0.284 N 
ATOM      2  C   UNL     1      -2.921  -6.171  -4.615  0.00  0.00    +0.147 C 
ATOM      3  C   UNL     1      -4.378  -6.367  -4.354  0.00  0.00    +0.072 A 
ATOM      4  C   UNL     1      -5.514  -6.498  -5.272  0.00  0.00    +0.199 A 
ATOM      5  O   UNL     1      -5.388  -6.636  -6.476  0.00  0.00    -0.287 OA
ATOM      6  C   UNL     1      -6.835  -6.447  -4.594  0.00  0.00    +0.067 A 
ATOM      7  C   UNL     1      -8.009  -6.358  -5.342  0.00  0.00    +0.053 A 
ATOM      8  C   UNL     1      -9.226  -6.307  -4.696  0.00  0.00    +0.124 A 
ATOM      9  C   UNL     1      -9.278  -6.344  -3.307  0.00  0.00    +0.042 A 
ATOM     10  C   UNL     1      -8.125  -6.433  -2.560  0.00  0.00    +0.050 A 
ATOM     11  C   UNL     1      -6.882  -6.489  -3.191  0.00  0.00    +0.140 A 
ATOM     12  O   UNL     1      -5.766  -6.588  -2.433  0.00  0.00    -0.450 OA
ATOM     13  C   UNL     1      -4.557  -6.412  -3.001  0.00  0.00    +0.199 A 
ATOM     14  C   UNL     1      -3.243  -6.248  -2.355  0.00  0.00    +0.283 C 
ATOM     15  O   UNL     1      -3.053  -6.243  -1.155  0.00  0.00    -0.267 OA
ATOM     16  F   UNL     1     -10.368  -6.221  -5.412  0.00  0.00    -0.205 F 
ENDROOT
BRANCH   2  17
ATOM     17  C   UNL     1      -2.369  -7.335  -5.397  0.00  0.00    +0.013 A 
ATOM     18  C   UNL     1      -1.872  -8.441  -4.734  0.00  0.00    +0.008 A 
ATOM     19  C   UNL     1      -1.367  -9.508  -5.451  0.00  0.00    +0.001 A 
ATOM     20  C   UNL     1      -1.357  -9.471  -6.834  0.00  0.00    +0.003 A 
ATOM     21  C   UNL     1      -1.853  -8.367  -7.499  0.00  0.00    +0.039 A 
ATOM     22  C   UNL     1      -2.365  -7.299  -6.781  0.00  0.00    +0.129 A 
ATOM     23  F   UNL     1      -2.855  -6.220  -7.431  0.00  0.00    -0.205 F 
ENDBRANCH   2  17
BRANCH   1  24
ATOM     24  C   UNL     1      -0.852  -5.912  -3.033  0.00  0.00    +0.107 C 
BRANCH  24  25
ATOM     25  C   UNL     1      -0.569  -4.427  -2.795  0.00  0.00    +0.000 C 
BRANCH  25  26
ATOM     26  C   UNL     1       0.939  -4.213  -2.650  0.00  0.00    -0.077 C 
BRANCH  26  27
ATOM     27  N   UNL     1       1.211  -2.787  -2.422  0.00  0.00    +0.380 N 
ATOM     28  H   UNL     1       0.797  -2.243  -3.163  0.00  0.00    -0.082 HD
BRANCH  27  29
ATOM     29  C   UNL     1       0.634  -2.379  -1.134  0.00  0.00    -0.079 C 
BRANCH  29  30
ATOM     30  C   UNL     1       0.794  -0.867  -0.960  0.00  0.00    -0.019 C 
BRANCH  30  32
ATOM     31  C   UNL     1       0.237   1.090   0.490  0.00  0.00    +0.004 C 
ATOM     32  C   UNL     1       0.076  -0.422   0.316  0.00  0.00    -0.005 C 
ENDBRANCH  30  32
ENDBRANCH  29  30
ENDBRANCH  27  29
BRANCH  27  33
ATOM     33  C   UNL     1       2.663  -2.563  -2.401  0.00  0.00    -0.079 C 
BRANCH  33  34
ATOM     34  C   UNL     1       3.243  -2.854  -3.787  0.00  0.00    -0.019 C 
BRANCH  34  35
ATOM     35  C   UNL     1       4.730  -2.493  -3.803  0.00  0.00    -0.005 C 
ATOM     36  C   UNL     1       5.310  -2.783  -5.188  0.00  0.00    +0.004 C 
ENDBRANCH  34  35
ENDBRANCH  33  34
ENDBRANCH  27  33
ENDBRANCH  26  27
ENDBRANCH  25  26
ENDBRANCH  24  25
ENDBRANCH   1  24
TORSDOF 11
