REMARK  Name = ZINC29125589
REMARK  11 active torsions:
REMARK  status: ('A' for Active; 'I' for Inactive)
REMARK    1  A    between atoms: C_1  and  C_2
REMARK    2  A    between atoms: C_5  and  N_26
REMARK    3  A    between atoms: N_8  and  C_9
REMARK    4  A    between atoms: C_9  and  C_10
REMARK    5  A    between atoms: C_11  and  C_25
REMARK    6  A    between atoms: N_14  and  C_15
REMARK    7  A    between atoms: C_15  and  C_16
REMARK    8  A    between atoms: N_18  and  N_19
REMARK    9  A    between atoms: N_26  and  S_27
REMARK   10  A    between atoms: S_27  and  C_30
REMARK   11  A    between atoms: C_30  and  C_31
REMARK                            x       y       z     vdW  Elec       q    Type
REMARK                         _______ _______ _______ _____ _____    ______ ____
ROOT
ATOM      1  C   UNL     1      -6.711  -0.876  -4.956  0.00  0.00    +0.063 C 
ATOM      2  C   UNL     1      -5.452  -0.887  -4.127  0.00  0.00    +0.019 A 
ATOM      3  C   UNL     1      -4.248  -0.893  -4.742  0.00  0.00    +0.023 A 
ATOM      4  C   UNL     1      -3.071  -0.898  -3.980  0.00  0.00    +0.031 A 
ATOM      5  C   UNL     1      -3.158  -0.908  -2.615  0.00  0.00    +0.112 A 
ATOM      6  C   UNL     1      -4.433  -0.902  -2.007  0.00  0.00    +0.274 A 
ATOM      7  O   UNL     1      -4.529  -0.906  -0.790  0.00  0.00    -0.266 OA
ATOM      8  N   UNL     1      -5.542  -0.892  -2.770  0.00  0.00    -0.305 N 
ENDROOT
BRANCH   5   9
ATOM      9  N   UNL     1      -1.998  -0.917  -1.831  0.00  0.00    -0.215 N 
ATOM     10  H   UNL     1      -2.076  -0.920  -0.733  0.00  0.00    +0.173 HD
BRANCH   9  11
ATOM     11  S   UNL     1      -0.509  -0.924  -2.554  0.00  0.00    +0.047 S 
ATOM     12  O   UNL     1      -0.567  -1.989  -3.494  0.00  0.00    -0.155 OA
ATOM     13  O   UNL     1       0.417  -0.958  -1.478  0.00  0.00    -0.155 OA
BRANCH  11  14
ATOM     14  C   UNL     1      -0.404   0.667  -3.420  0.00  0.00    +0.223 C 
BRANCH  14  15
ATOM     15  C   UNL     1       0.926   0.770  -4.122  0.00  0.00    -0.025 A 
ATOM     16  C   UNL     1       2.011   1.322  -3.468  0.00  0.00    +0.005 A 
ATOM     17  C   UNL     1       3.232   1.412  -4.111  0.00  0.00    +0.000 A 
ATOM     18  C   UNL     1       3.365   0.959  -5.410  0.00  0.00    +0.000 A 
ATOM     19  C   UNL     1       2.277   0.412  -6.065  0.00  0.00    +0.000 A 
ATOM     20  C   UNL     1       1.058   0.317  -5.421  0.00  0.00    +0.005 A 
ENDBRANCH  14  15
ENDBRANCH  11  14
ENDBRANCH   9  11
ENDBRANCH   5   9
BRANCH   8  21
ATOM     21  C   UNL     1      -6.861  -0.886  -2.132  0.00  0.00    +0.180 C 
BRANCH  21  22
ATOM     22  C   UNL     1      -7.072   0.431  -1.429  0.00  0.00    +0.059 A 
ATOM     23  C   UNL     1      -6.947   0.666  -0.110  0.00  0.00    +0.035 A 
ATOM     24  N   UNL     1      -7.217   1.961   0.109  0.00  0.00    -0.350 N 
ATOM     25  C   UNL     1      -7.514   2.536  -1.025  0.00  0.00    +0.174 A 
ATOM     26  N   UNL     1      -7.436   1.616  -2.010  0.00  0.00    -0.325 N 
ATOM     27  C   UNL     1      -6.565  -0.348   0.938  0.00  0.00    +0.065 C 
ATOM     28  H   UNL     1      -7.165   2.369   1.129  0.00  0.00    +0.166 HD
BRANCH  26  29
ATOM     29  C   UNL     1      -7.692   1.844  -3.434  0.00  0.00    +0.219 C 
BRANCH  29  30
ATOM     30  C   UNL     1      -9.055   1.310  -3.791  0.00  0.00    +0.246 C 
ATOM     31  O   UNL     1      -9.745   0.791  -2.940  0.00  0.00    -0.273 OA
ATOM     32  N   UNL     1      -9.508   1.410  -5.057  0.00  0.00    -0.247 N 
ATOM     33  H   UNL     1      -8.882   1.881  -5.829  0.00  0.00    +0.169 HD
BRANCH  32  34
ATOM     34  N   UNL     1     -10.744   0.927  -5.380  0.00  0.00    -0.227 NA
ATOM     35  C   UNL     1     -10.642  -0.184  -6.335  0.00  0.00    +0.105 C 
ATOM     36  C   UNL     1     -12.027  -0.793  -6.562  0.00  0.00    +0.017 C 
ATOM     37  C   UNL     1     -12.970   0.285  -7.104  0.00  0.00    +0.003 C 
ATOM     38  C   UNL     1     -13.022   1.451  -6.113  0.00  0.00    +0.017 C 
ATOM     39  C   UNL     1     -11.608   1.995  -5.899  0.00  0.00    +0.105 C 
ENDBRANCH  32  34
ENDBRANCH  29  30
ENDBRANCH  26  29
ENDBRANCH  21  22
ENDBRANCH   8  21
TORSDOF 9
