REMARK  Name = ZINC64870719
REMARK  7 active torsions:
REMARK  status: ('A' for Active; 'I' for Inactive)
REMARK    1  A    between atoms: C_1  and  C_2
REMARK    2  A    between atoms: C_2  and  C_3
REMARK    3  A    between atoms: C_2  and  C_4
REMARK    4  A    between atoms: C_4  and  C_5
REMARK    5  A    between atoms: C_5  and  N_6
REMARK    6  A    between atoms: C_12  and  C_19
REMARK    7  A    between atoms: C_22  and  C_25
REMARK                            x       y       z     vdW  Elec       q    Type
REMARK                         _______ _______ _______ _____ _____    ______ ____
ROOT
ATOM      1  N   UNL     1       3.176  -0.317  -2.406  0.00  0.00    -0.261 N 
ATOM      2  C   UNL     1       3.750  -1.540  -2.385  0.00  0.00    +0.264 A 
ATOM      3  O   UNL     1       3.760  -2.207  -1.368  0.00  0.00    -0.267 OA
ATOM      4  C   UNL     1       4.362  -2.045  -3.626  0.00  0.00    +0.063 A 
ATOM      5  C   UNL     1       4.972  -3.296  -3.686  0.00  0.00    +0.016 A 
ATOM      6  C   UNL     1       5.531  -3.724  -4.872  0.00  0.00    +0.009 A 
ATOM      7  C   UNL     1       5.488  -2.917  -5.999  0.00  0.00    +0.006 A 
ATOM      8  C   UNL     1       4.886  -1.676  -5.953  0.00  0.00    +0.034 A 
ATOM      9  C   UNL     1       4.319  -1.229  -4.769  0.00  0.00    +0.056 A 
ATOM     10  N   UNL     1       3.704   0.012  -4.681  0.00  0.00    -0.307 N 
ATOM     11  H   UNL     1       3.666   0.586  -5.462  0.00  0.00    +0.170 HD
ATOM     12  C   UNL     1       3.156   0.423  -3.525  0.00  0.00    +0.330 A 
ATOM     13  O   UNL     1       2.623   1.516  -3.490  0.00  0.00    -0.246 OA
ENDROOT
BRANCH   7  14
ATOM     14  C   UNL     1       6.104  -3.401  -7.286  0.00  0.00    +0.274 C 
ATOM     15  N   UNL     1       7.215  -4.319  -7.005  0.00  0.00    -0.339 N 
ATOM     16  C   UNL     1       6.940  -5.475  -7.524  0.00  0.00    +0.135 C 
ATOM     17  N   UNL     1       5.722  -5.464  -8.158  0.00  0.00    -0.247 N 
ATOM     18  O   UNL     1       5.151  -4.169  -8.036  0.00  0.00    -0.243 OA
ATOM     19  H   UNL     1       5.317  -6.218  -8.614  0.00  0.00    +0.196 HD
ATOM     20  H   UNL     1       8.020  -4.097  -6.511  0.00  0.00    +0.164 HD
BRANCH  16  21
ATOM     21  C   UNL     1       7.828  -6.657  -7.445  0.00  0.00    +0.035 A 
ATOM     22  C   UNL     1       9.142  -6.578  -7.908  0.00  0.00    +0.013 A 
ATOM     23  C   UNL     1       9.964  -7.683  -7.831  0.00  0.00    +0.001 A 
ATOM     24  C   UNL     1       9.490  -8.868  -7.298  0.00  0.00    +0.001 A 
ATOM     25  C   UNL     1       8.189  -8.954  -6.838  0.00  0.00    +0.021 A 
ATOM     26  C   UNL     1       7.356  -7.853  -6.903  0.00  0.00    +0.052 A 
ATOM     27 CL   UNL     1       5.725  -7.960  -6.318  0.00  0.00    -0.083 Cl
ENDBRANCH  16  21
ENDBRANCH   7  14
BRANCH   1  28
ATOM     28  C   UNL     1       2.560   0.208  -1.185  0.00  0.00    +0.130 C 
BRANCH  28  29
ATOM     29  C   UNL     1       1.089  -0.210  -1.135  0.00  0.00    +0.025 C 
BRANCH  29  31
ATOM     30  C   UNL     1       0.429   1.867   0.085  0.00  0.00    +0.007 C 
ATOM     31  C   UNL     1       0.446   0.339   0.140  0.00  0.00    -0.016 C 
ATOM     32  C   UNL     1      -0.988  -0.183   0.253  0.00  0.00    +0.007 C 
ENDBRANCH  29  31
ENDBRANCH  28  29
ENDBRANCH   1  28
TORSDOF 5
