REMARK  Name = ZINC18129877
REMARK  6 active torsions:
REMARK  status: ('A' for Active; 'I' for Inactive)
REMARK    1  A    between atoms: C_1  and  C_2
REMARK    2  A    between atoms: C_9  and  C_24
REMARK    3  A    between atoms: C_9  and  C_25
REMARK    4  A    between atoms: N_13  and  C_14
REMARK    5  A    between atoms: C_16  and  C_21
REMARK    6  A    between atoms: C_18  and  C_20
REMARK                            x       y       z     vdW  Elec       q    Type
REMARK                         _______ _______ _______ _____ _____    ______ ____
ROOT
ATOM      1  C   UNL     1      -0.183   1.548  -0.142  0.00  0.00    +0.044 C 
ATOM      2  C   UNL     1      -0.137   0.042  -0.115  0.00  0.00    -0.049 A 
ATOM      3  C   UNL     1      -0.089  -0.663  -1.304  0.00  0.00    +0.004 A 
ATOM      4  C   UNL     1      -0.055  -2.047  -1.292  0.00  0.00    +0.011 A 
ATOM      5  C   UNL     1      -0.073  -2.712  -0.077  0.00  0.00    +0.006 A 
ATOM      6  C   UNL     1      -0.102  -2.006   1.126  0.00  0.00    +0.036 A 
ATOM      7  C   UNL     1      -0.136  -0.620   1.100  0.00  0.00    +0.027 A 
ATOM      8  N   UNL     1      -0.065  -2.697   2.341  0.00  0.00    -0.334 N 
ATOM      9  C   UNL     1      -0.665  -4.034   2.426  0.00  0.00    +0.059 C 
ATOM     10  C   UNL     1      -0.309  -4.810   1.174  0.00  0.00    +0.030 A 
ATOM     11  C   UNL     1      -0.043  -4.224  -0.034  0.00  0.00    +0.029 A 
ATOM     12  C   UNL     1       0.250  -4.913  -1.249  0.00  0.00    +0.117 A 
ATOM     13  N   UNL     1       0.479  -4.351  -2.432  0.00  0.00    -0.240 NA
ATOM     14  S   UNL     1       0.256  -6.664  -0.895  0.00  0.00    -0.032 S 
ATOM     15  S   UNL     1      -0.201  -6.488   1.126  0.00  0.00    -0.052 S 
ATOM     16  C   UNL     1      -2.185  -3.908   2.536  0.00  0.00    +0.037 C 
ATOM     17  C   UNL     1      -0.118  -4.764   3.654  0.00  0.00    +0.037 C 
ATOM     18  H   UNL     1       0.353  -2.297   3.119  0.00  0.00    +0.147 HD
ENDROOT
BRANCH  13  19
ATOM     19  C   UNL     1       1.467  -3.420  -2.565  0.00  0.00    +0.066 A 
ATOM     20  C   UNL     1       2.334  -3.158  -1.499  0.00  0.00    +0.031 A 
ATOM     21  C   UNL     1       3.330  -2.215  -1.642  0.00  0.00    -0.048 A 
ATOM     22  C   UNL     1       3.473  -1.529  -2.835  0.00  0.00    +0.006 A 
ATOM     23  C   UNL     1       2.619  -1.783  -3.895  0.00  0.00    -0.048 A 
ATOM     24  C   UNL     1       1.621  -2.727  -3.770  0.00  0.00    +0.031 A 
ATOM     25  C   UNL     1       2.783  -1.030  -5.190  0.00  0.00    +0.044 C 
ATOM     26  C   UNL     1       4.266  -1.931  -0.495  0.00  0.00    +0.044 C 
ENDBRANCH  13  19
TORSDOF 1
