REMARK  Name = ZINC08731963
REMARK  7 active torsions:
REMARK  status: ('A' for Active; 'I' for Inactive)
REMARK    1  A    between atoms: C_1  and  C_2
REMARK    2  A    between atoms: C_5  and  S_8
REMARK    3  A    between atoms: S_8  and  N_11
REMARK    4  A    between atoms: N_11  and  C_12
REMARK    5  A    between atoms: N_11  and  O_22
REMARK    6  A    between atoms: O_22  and  C_23
REMARK    7  A    between atoms: C_23  and  C_24
REMARK                            x       y       z     vdW  Elec       q    Type
REMARK                         _______ _______ _______ _____ _____    ______ ____
ROOT
ATOM      1  N   UNL     1       3.607  -0.751  -0.036  0.00  0.00    -0.116 N 
ENDROOT
BRANCH   1   2
ATOM      2  C   UNL     1       2.502   0.097  -0.031  0.00  0.00    +0.098 A 
ATOM      3  C   UNL     1       1.458  -0.125   0.843  0.00  0.00    +0.030 A 
ATOM      4  C   UNL     1       0.350   0.716   0.855  0.00  0.00    +0.003 A 
ATOM      5  C   UNL     1       0.264   1.779   0.008  0.00  0.00    +0.008 A 
ATOM      6  C   UNL     1       1.306   2.039  -0.898  0.00  0.00    -0.016 A 
ATOM      7  C   UNL     1       2.439   1.190  -0.921  0.00  0.00    +0.009 A 
ATOM      8  C   UNL     1       3.479   1.452  -1.827  0.00  0.00    +0.010 A 
ATOM      9  C   UNL     1       3.385   2.516  -2.672  0.00  0.00    +0.001 A 
ATOM     10  C   UNL     1       2.270   3.352  -2.650  0.00  0.00    +0.001 A 
ATOM     11  C   UNL     1       1.244   3.129  -1.785  0.00  0.00    +0.008 A 
ENDBRANCH   1   2
BRANCH   1  12
ATOM     12  S   UNL     1       3.392  -2.393  -0.000  0.00  0.00    +0.103 S 
ATOM     13  O   UNL     1       4.508  -2.934   0.693  0.00  0.00    -0.146 OA
ATOM     14  O   UNL     1       2.053  -2.618   0.419  0.00  0.00    -0.146 OA
BRANCH  12  19
ATOM     15  C   UNL     1       3.772  -4.366  -5.690  0.00  0.00    +0.044 C 
ATOM     16  C   UNL     1       3.677  -3.873  -4.269  0.00  0.00    -0.050 A 
ATOM     17  C   UNL     1       4.814  -3.799  -3.486  0.00  0.00    +0.005 A 
ATOM     18  C   UNL     1       4.726  -3.347  -2.182  0.00  0.00    +0.029 A 
ATOM     19  C   UNL     1       3.503  -2.969  -1.662  0.00  0.00    +0.113 A 
ATOM     20  C   UNL     1       2.365  -3.048  -2.443  0.00  0.00    +0.029 A 
ATOM     21  C   UNL     1       2.453  -3.495  -3.749  0.00  0.00    +0.005 A 
ENDBRANCH  12  19
ENDBRANCH   1  12
BRANCH   1  22
ATOM     22  O   UNL     1       4.915  -0.209  -0.071  0.00  0.00    -0.248 OA
BRANCH  22  23
ATOM     23  C   UNL     1       5.500  -0.019   1.219  0.00  0.00    +0.229 C 
BRANCH  23  24
ATOM     24  C   UNL     1       6.904   0.568   1.061  0.00  0.00    +0.172 C 
ATOM     25  C   UNL     1       7.684   0.902   2.334  0.00  0.00    +0.194 C 
ATOM     26  O   UNL     1       8.009  -0.220   1.509  0.00  0.00    -0.369 OA
ENDBRANCH  23  24
ENDBRANCH  22  23
ENDBRANCH   1  22
TORSDOF 6
