REMARK  Name = ZINC03772453
REMARK  7 active torsions:
REMARK  status: ('A' for Active; 'I' for Inactive)
REMARK    1  A    between atoms: C_5  and  C_7
REMARK    2  A    between atoms: C_7  and  N_8
REMARK    3  A    between atoms: C_10  and  C_17
REMARK    4  A    between atoms: N_18  and  C_19
REMARK    5  A    between atoms: C_20  and  C_28
REMARK    6  A    between atoms: N_30  and  C_31
REMARK    7  A    between atoms: C_31  and  C_32
REMARK                            x       y       z     vdW  Elec       q    Type
REMARK                         _______ _______ _______ _____ _____    ______ ____
ROOT
ATOM      1  C   UNL     1       3.324  -3.880   4.182  0.00  0.00    +0.122 C 
ATOM      2  N   UNL     1       2.957  -4.260   5.382  0.00  0.00    -0.247 NA
ENDROOT
BRANCH   1   5
ATOM      3  N   UNL     1       1.368  -2.681   1.350  0.00  0.00    -0.342 N 
ATOM      4  C   UNL     1       2.546  -3.012   1.936  0.00  0.00    +0.096 A 
ATOM      5  C   UNL     1       2.320  -3.435   3.216  0.00  0.00    +0.018 A 
ATOM      6  C   UNL     1       0.863  -3.352   3.432  0.00  0.00    +0.008 A 
ATOM      7  C   UNL     1       0.322  -2.869   2.229  0.00  0.00    +0.050 A 
ATOM      8  C   UNL     1      -1.052  -2.679   2.128  0.00  0.00    +0.026 A 
ATOM      9  C   UNL     1      -1.867  -2.961   3.202  0.00  0.00    +0.002 A 
ATOM     10  C   UNL     1      -1.331  -3.435   4.391  0.00  0.00    +0.001 A 
ATOM     11  C   UNL     1       0.027  -3.638   4.508  0.00  0.00    +0.010 A 
BRANCH   3  12
ATOM     12  C   UNL     1       1.228  -2.186  -0.022  0.00  0.00    +0.159 C 
BRANCH  12  17
ATOM     13  C   UNL     1      -0.017   1.378   0.010  0.00  0.00    +0.000 A 
ATOM     14  C   UNL     1       1.171   2.087   0.002  0.00  0.00    +0.003 A 
ATOM     15  C   UNL     1       2.377   1.414  -0.013  0.00  0.00    +0.039 A 
ATOM     16  C   UNL     1       2.397   0.029  -0.021  0.00  0.00    +0.128 A 
ATOM     17  C   UNL     1       1.208  -0.679  -0.013  0.00  0.00    +0.007 A 
ATOM     18  C   UNL     1       0.002  -0.004   0.002  0.00  0.00    +0.008 A 
ATOM     19  F   UNL     1       3.577  -0.630  -0.036  0.00  0.00    -0.205 F 
ENDBRANCH  12  17
ENDBRANCH   3  12
ENDBRANCH   1   5
BRANCH   2  20
ATOM     20  C   UNL     1       3.884  -4.671   6.273  0.00  0.00    +0.114 A 
ATOM     21  C   UNL     1       3.703  -5.116   7.587  0.00  0.00    +0.073 A 
ATOM     22  C   UNL     1       4.883  -5.504   8.335  0.00  0.00    -0.023 A 
ATOM     23  C   UNL     1       6.067  -5.399   7.686  0.00  0.00    -0.004 A 
ATOM     24  S   UNL     1       5.653  -4.793   6.073  0.00  0.00    -0.073 S 
ATOM     25  C   UNL     1       7.426  -5.729   8.221  0.00  0.00    +0.043 C 
ATOM     26  C   UNL     1       7.328  -5.857   9.748  0.00  0.00    +0.005 C 
ATOM     27  C   UNL     1       6.129  -6.746  10.090  0.00  0.00    +0.005 C 
ATOM     28  C   UNL     1       4.828  -6.008   9.774  0.00  0.00    +0.037 C 
BRANCH  21  29
ATOM     29  C   UNL     1       2.367  -5.188   8.186  0.00  0.00    +0.247 C 
ATOM     30  O   UNL     1       1.709  -6.207   8.085  0.00  0.00    -0.270 OA
ATOM     31  N   UNL     1       1.868  -4.125   8.848  0.00  0.00    -0.304 N 
ATOM     32  H   UNL     1       2.393  -3.314   8.928  0.00  0.00    +0.149 HD
BRANCH  31  33
ATOM     33  C   UNL     1       0.533  -4.197   9.447  0.00  0.00    +0.179 C 
BRANCH  33  34
ATOM     34  C   UNL     1       0.215  -2.888  10.123  0.00  0.00    +0.122 A 
ATOM     35  C   UNL     1      -0.392  -1.834   9.550  0.00  0.00    +0.046 A 
ATOM     36  C   UNL     1      -0.488  -0.829  10.540  0.00  0.00    +0.041 A 
ATOM     37  C   UNL     1       0.066  -1.329  11.659  0.00  0.00    +0.195 A 
ATOM     38  O   UNL     1       0.485  -2.579  11.402  0.00  0.00    -0.466 OA
ENDBRANCH  33  34
ENDBRANCH  31  33
ENDBRANCH  21  29
ENDBRANCH   2  20
TORSDOF 7
