REMARK  Name = ZINC37425578
REMARK  16 active torsions:
REMARK  status: ('A' for Active; 'I' for Inactive)
REMARK    1  A    between atoms: C_1  and  C_2
REMARK    2  A    between atoms: C_2  and  C_3
REMARK    3  A    between atoms: C_2  and  C_4
REMARK    4  A    between atoms: C_2  and  C_5
REMARK    5  A    between atoms: N_8  and  C_10
REMARK    6  A    between atoms: C_10  and  C_11
REMARK    7  A    between atoms: C_10  and  C_12
REMARK    8  A    between atoms: C_10  and  C_13
REMARK    9  A    between atoms: N_14  and  C_28
REMARK   10  A    between atoms: C_19  and  C_21
REMARK   11  A    between atoms: C_28  and  C_29
REMARK   12  A    between atoms: N_31  and  C_32
REMARK   13  A    between atoms: C_32  and  C_33
REMARK   14  A    between atoms: C_33  and  C_34
REMARK   15  A    between atoms: C_34  and  O_35
REMARK   16  A    between atoms: O_35  and  C_36
REMARK                            x       y       z     vdW  Elec       q    Type
REMARK                         _______ _______ _______ _____ _____    ______ ____
ROOT
ATOM      1  C   UNL     1       0.776  -0.049  -1.583  0.00  0.00    +0.075 A 
ATOM      2  C   UNL     1       2.101  -0.470  -1.695  0.00  0.00    +0.033 A 
ATOM      3  C   UNL     1       2.523  -0.184  -2.949  0.00  0.00    +0.132 A 
ATOM      4  N   UNL     1       1.508   0.402  -3.610  0.00  0.00    -0.244 N 
ATOM      5  N   UNL     1       0.415   0.470  -2.732  0.00  0.00    -0.173 NA
ATOM      6  N   UNL     1       3.810  -0.476  -3.425  0.00  0.00    -0.246 N 
ATOM      7  C   UNL     1       4.301  -1.704  -3.224  0.00  0.00    +0.231 C 
ATOM      8  O   UNL     1       5.492  -1.904  -3.340  0.00  0.00    -0.274 OA
ATOM      9  C   UNL     1       3.386  -2.832  -2.855  0.00  0.00    +0.166 C 
ATOM     10  S   UNL     1       3.136  -2.896  -1.049  0.00  0.00    -0.138 S 
ATOM     11  C   UNL     1       2.945  -1.126  -0.632  0.00  0.00    +0.115 C 
ENDROOT
BRANCH  11  12
ATOM     12  C   UNL     1       2.266  -0.992   0.707  0.00  0.00    +0.005 A 
ATOM     13  C   UNL     1       1.489  -2.026   1.194  0.00  0.00    +0.008 A 
ATOM     14  C   UNL     1       0.866  -1.903   2.422  0.00  0.00    +0.000 A 
ATOM     15  C   UNL     1       1.019  -0.747   3.164  0.00  0.00    +0.003 A 
ATOM     16  C   UNL     1       1.796   0.288   2.679  0.00  0.00    +0.038 A 
ATOM     17  C   UNL     1       2.425   0.164   1.451  0.00  0.00    +0.128 A 
ATOM     18  F   UNL     1       3.188   1.174   0.978  0.00  0.00    -0.205 F 
ENDBRANCH  11  12
BRANCH   1  20
ATOM     19  C   UNL     1      -1.515   0.278  -0.690  0.00  0.00    +0.017 C 
ATOM     20  C   UNL     1      -0.091  -0.173  -0.356  0.00  0.00    +0.007 C 
ATOM     21  C   UNL     1       0.474   0.707   0.760  0.00  0.00    +0.017 C 
ATOM     22  C   UNL     1      -0.114  -1.632   0.106  0.00  0.00    +0.017 C 
ENDBRANCH   1  20
BRANCH   4  23
ATOM     23  C   UNL     1       1.536   0.877  -4.996  0.00  0.00    +0.057 C 
ATOM     24  C   UNL     1       2.445  -0.030  -5.828  0.00  0.00    +0.036 C 
ATOM     25  C   UNL     1       0.119   0.848  -5.574  0.00  0.00    +0.036 C 
ATOM     26  C   UNL     1       2.072   2.309  -5.033  0.00  0.00    +0.036 C 
ENDBRANCH   4  23
BRANCH   6  27
ATOM     27  C   UNL     1       4.598   0.539  -4.128  0.00  0.00    +0.210 C 
BRANCH  27  28
ATOM     28  C   UNL     1       5.518   1.226  -3.152  0.00  0.00    +0.231 C 
ATOM     29  O   UNL     1       5.516   0.898  -1.984  0.00  0.00    -0.274 OA
ATOM     30  N   UNL     1       6.343   2.203  -3.577  0.00  0.00    -0.314 N 
ATOM     31  H   UNL     1       6.344   2.465  -4.511  0.00  0.00    +0.149 HD
BRANCH  30  32
ATOM     32  C   UNL     1       7.238   2.870  -2.628  0.00  0.00    +0.106 C 
BRANCH  32  33
ATOM     33  C   UNL     1       8.060   3.931  -3.362  0.00  0.00    +0.047 C 
BRANCH  33  34
ATOM     34  C   UNL     1       8.995   4.628  -2.371  0.00  0.00    +0.161 C 
BRANCH  34  35
ATOM     35  O   UNL     1       9.763   5.619  -3.057  0.00  0.00    -0.383 OA
ATOM     36  C   UNL     1      10.673   6.332  -2.218  0.00  0.00    +0.193 C 
ENDBRANCH  34  35
ENDBRANCH  33  34
ENDBRANCH  32  33
ENDBRANCH  30  32
ENDBRANCH  27  28
ENDBRANCH   6  27
TORSDOF 9
