REMARK  Name = ZINC45895447
REMARK  9 active torsions:
REMARK  status: ('A' for Active; 'I' for Inactive)
REMARK    1  A    between atoms: C_1  and  S_2
REMARK    2  A    between atoms: S_2  and  C_3
REMARK    3  A    between atoms: C_4  and  C_23
REMARK    4  A    between atoms: C_5  and  N_22
REMARK    5  A    between atoms: N_6  and  C_8
REMARK    6  A    between atoms: C_8  and  C_9
REMARK    7  A    between atoms: N_11  and  C_12
REMARK    8  A    between atoms: C_17  and  C_18
REMARK    9  A    between atoms: C_25  and  C_28
REMARK                            x       y       z     vdW  Elec       q    Type
REMARK                         _______ _______ _______ _____ _____    ______ ____
ROOT
ATOM      1  C   UNL     1       0.859  -0.428  -1.492  0.00  0.00    +0.133 A 
ATOM      2  C   UNL     1       1.123  -1.737  -1.971  0.00  0.00    +0.112 A 
ATOM      3  C   UNL     1       1.802  -1.598  -3.178  0.00  0.00    +0.129 A 
ATOM      4  N   UNL     1       1.937  -0.277  -3.411  0.00  0.00    -0.240 N 
ATOM      5  N   UNL     1       1.342   0.426  -2.358  0.00  0.00    -0.162 NA
ENDROOT
BRANCH   2   6
ATOM      6  C   UNL     1       0.752  -3.000  -1.317  0.00  0.00    +0.265 A 
ATOM      7  N   UNL     1       0.104  -3.118  -0.177  0.00  0.00    -0.187 NA
ATOM      8  C   UNL     1      -0.065  -4.415   0.120  0.00  0.00    +0.202 A 
ATOM      9  N   UNL     1       0.474  -5.142  -0.830  0.00  0.00    -0.056 NA
ATOM     10  O   UNL     1       1.009  -4.236  -1.783  0.00  0.00    -0.332 OA
BRANCH   8  11
ATOM     11  C   UNL     1      -0.750  -4.943   1.326  0.00  0.00    +0.023 A 
ATOM     12  C   UNL     1      -1.288  -4.064   2.264  0.00  0.00    +0.013 A 
ATOM     13  C   UNL     1      -1.925  -4.559   3.384  0.00  0.00    +0.021 A 
ATOM     14  C   UNL     1      -2.028  -5.927   3.577  0.00  0.00    +0.041 A 
ATOM     15  C   UNL     1      -1.493  -6.803   2.648  0.00  0.00    +0.021 A 
ATOM     16  C   UNL     1      -0.861  -6.318   1.522  0.00  0.00    +0.013 A 
ATOM     17 CL   UNL     1      -2.829  -6.543   4.988  0.00  0.00    -0.084 Cl
ENDBRANCH   8  11
ENDBRANCH   2   6
BRANCH   3  18
ATOM     18  N   UNL     1       2.253  -2.625  -3.987  0.00  0.00    -0.343 N 
ATOM     19  H   UNL     1       2.104  -3.548  -3.728  0.00  0.00    +0.144 HD
ATOM     20  H   UNL     1       2.718  -2.421  -4.814  0.00  0.00    +0.144 HD
ENDBRANCH   3  18
BRANCH   1  22
ATOM     21  C   UNL     1       0.006   1.790   0.022  0.00  0.00    +0.091 C 
ATOM     22  S   UNL     1       0.020  -0.024   0.004  0.00  0.00    -0.107 S 
ENDBRANCH   1  22
BRANCH   4  23
ATOM     23  C   UNL     1       2.594   0.323  -4.576  0.00  0.00    +0.241 C 
BRANCH  23  24
ATOM     24  C   UNL     1       1.581   0.532  -5.671  0.00  0.00    +0.239 C 
ATOM     25  O   UNL     1       0.424   0.212  -5.497  0.00  0.00    -0.273 OA
ATOM     26  N   UNL     1       1.960   1.075  -6.845  0.00  0.00    -0.283 N 
ATOM     27  H   UNL     1       2.865   1.404  -6.957  0.00  0.00    +0.155 HD
BRANCH  26  28
ATOM     28  C   UNL     1       1.047   1.163  -7.902  0.00  0.00    +0.045 A 
ATOM     29  C   UNL     1      -0.027   0.285  -7.970  0.00  0.00    +0.024 A 
ATOM     30  C   UNL     1      -0.925   0.375  -9.015  0.00  0.00    +0.002 A 
ATOM     31  C   UNL     1      -0.757   1.338  -9.993  0.00  0.00    +0.001 A 
ATOM     32  C   UNL     1       0.311   2.214  -9.928  0.00  0.00    +0.014 A 
ATOM     33  C   UNL     1       1.210   2.133  -8.883  0.00  0.00    +0.076 A 
BRANCH  33  34
ATOM     34  C   UNL     1       2.370   3.092  -8.809  0.00  0.00    +0.419 C 
ATOM     35  F   UNL     1       2.321   3.968  -9.899  0.00  0.00    -0.166 F 
ATOM     36  F   UNL     1       2.295   3.825  -7.619  0.00  0.00    -0.166 F 
ATOM     37  F   UNL     1       3.571   2.376  -8.841  0.00  0.00    -0.166 F 
ENDBRANCH  33  34
ENDBRANCH  26  28
ENDBRANCH  23  24
ENDBRANCH   4  23
TORSDOF 8
