REMARK  Name = ZINC21233882
REMARK  7 active torsions:
REMARK  status: ('A' for Active; 'I' for Inactive)
REMARK    1  A    between atoms: C_1  and  N_2
REMARK    2  A    between atoms: N_2  and  C_3
REMARK    3  A    between atoms: N_2  and  C_4
REMARK    4  A    between atoms: C_7  and  C_10
REMARK    5  A    between atoms: C_15  and  C_25
REMARK    6  A    between atoms: C_29  and  O_31
REMARK    7  A    between atoms: O_31  and  C_32
REMARK                            x       y       z     vdW  Elec       q    Type
REMARK                         _______ _______ _______ _____ _____    ______ ____
ROOT
ATOM      1  C   UNL     1       0.603  -0.536   0.444  0.00  0.00    +0.032 C 
ATOM      2  C   UNL     1      -0.561   0.222  -0.192  0.00  0.00    +0.059 C 
ATOM      3  C   UNL     1      -0.329   1.719  -0.073  0.00  0.00    +0.017 C 
ATOM      4  C   UNL     1       0.917   2.220  -0.107  0.00  0.00    +0.036 C 
ATOM      5  C   UNL     1       1.288   3.681  -0.023  0.00  0.00    +0.136 C 
ATOM      6  N   UNL     1       0.202   4.553   0.369  0.00  0.00    -0.331 N 
ATOM      7  C   UNL     1      -0.922   4.713  -0.440  0.00  0.00    +0.049 A 
ATOM      8  C   UNL     1      -1.222   5.929  -1.031  0.00  0.00    +0.025 A 
ATOM      9  C   UNL     1      -2.324   6.028  -1.863  0.00  0.00    +0.002 A 
ATOM     10  C   UNL     1      -3.118   4.923  -2.107  0.00  0.00    +0.002 A 
ATOM     11  C   UNL     1      -2.831   3.709  -1.505  0.00  0.00    +0.025 A 
ATOM     12  C   UNL     1      -1.742   3.615  -0.656  0.00  0.00    +0.052 A 
ATOM     13  N   UNL     1      -1.460   2.459   0.060  0.00  0.00    -0.316 N 
ATOM     14  C   UNL     1       2.029   1.354  -0.232  0.00  0.00    +0.163 C 
ATOM     15  O   UNL     1       3.144   1.837  -0.285  0.00  0.00    -0.292 OA
ATOM     16  C   UNL     1       1.883  -0.136  -0.301  0.00  0.00    +0.088 C 
ATOM     17  H   UNL     1       0.254   5.104   1.320  0.00  0.00    +0.147 HD
ATOM     18  H   UNL     1      -2.235   2.154   0.778  0.00  0.00    +0.152 HD
ENDROOT
BRANCH   1  22
ATOM     19  C   UNL     1      -0.034  -4.746   0.069  0.00  0.00    +0.029 A 
ATOM     20  C   UNL     1       0.088  -4.170   1.327  0.00  0.00    +0.023 A 
ATOM     21  C   UNL     1       0.293  -2.809   1.444  0.00  0.00    +0.006 A 
ATOM     22  C   UNL     1       0.379  -2.021   0.311  0.00  0.00    -0.043 A 
ATOM     23  C   UNL     1       0.253  -2.591  -0.942  0.00  0.00    +0.006 A 
ATOM     24  C   UNL     1       0.053  -3.951  -1.067  0.00  0.00    +0.023 A 
BRANCH  19  26
ATOM     25  C   UNL     1      -0.331  -6.959   1.145  0.00  0.00    +0.129 C 
ATOM     26  N   UNL     1      -0.241  -6.122  -0.054  0.00  0.00    -0.336 N 
ATOM     27  C   UNL     1      -0.369  -6.728  -1.381  0.00  0.00    +0.129 C 
ENDBRANCH  19  26
ENDBRANCH   1  22
BRANCH   5  28
ATOM     28  C   UNL     1       1.790   4.125  -1.373  0.00  0.00    -0.019 A 
ATOM     29  C   UNL     1       3.095   4.558  -1.517  0.00  0.00    +0.006 A 
ATOM     30  C   UNL     1       3.560   4.961  -2.755  0.00  0.00    +0.004 A 
ATOM     31  C   UNL     1       2.718   4.943  -3.850  0.00  0.00    +0.046 A 
ATOM     32  C   UNL     1       1.406   4.515  -3.707  0.00  0.00    +0.129 A 
ATOM     33  C   UNL     1       0.944   4.106  -2.464  0.00  0.00    +0.052 A 
BRANCH  32  34
ATOM     34  O   UNL     1       0.576   4.496  -4.782  0.00  0.00    -0.456 OA
BRANCH  34  35
ATOM     35  C   UNL     1       0.731   3.498  -5.691  0.00  0.00    +0.128 A 
ATOM     36  C   UNL     1       1.644   2.479  -5.455  0.00  0.00    +0.046 A 
ATOM     37  C   UNL     1       1.796   1.463  -6.378  0.00  0.00    +0.004 A 
ATOM     38  C   UNL     1       1.048   1.465  -7.541  0.00  0.00    +0.000 A 
ATOM     39  C   UNL     1       0.142   2.482  -7.781  0.00  0.00    +0.004 A 
ATOM     40  C   UNL     1      -0.018   3.498  -6.859  0.00  0.00    +0.046 A 
ENDBRANCH  34  35
ENDBRANCH  32  34
ENDBRANCH   5  28
TORSDOF 5
