REMARK  Name = ZINC63230285
REMARK  8 active torsions:
REMARK  status: ('A' for Active; 'I' for Inactive)
REMARK    1  A    between atoms: C_1  and  N_2
REMARK    2  A    between atoms: N_2  and  C_3
REMARK    3  A    between atoms: N_2  and  C_4
REMARK    4  A    between atoms: C_7  and  C_10
REMARK    5  A    between atoms: C_10  and  C_12
REMARK    6  A    between atoms: C_10  and  C_26
REMARK    7  A    between atoms: C_12  and  N_13
REMARK    8  A    between atoms: C_14  and  C_16
REMARK                            x       y       z     vdW  Elec       q    Type
REMARK                         _______ _______ _______ _____ _____    ______ ____
ROOT
ATOM      1  C   UNL     1      -0.031  -2.780  -4.947  0.00  0.00    +0.064 C 
ENDROOT
BRANCH   1   2
ATOM      2  C   UNL     1      -1.257  -2.405  -5.739  0.00  0.00    -0.033 C 
ATOM      3  C   UNL     1      -2.239  -3.235  -6.159  0.00  0.00    -0.000 A 
ATOM      4  C   UNL     1      -2.450  -4.680  -6.013  0.00  0.00    +0.010 A 
ATOM      5  C   UNL     1      -3.554  -5.241  -6.557  0.00  0.00    +0.001 A 
ATOM      6  C   UNL     1      -4.499  -4.478  -7.256  0.00  0.00    +0.002 A 
ATOM      7  C   UNL     1      -4.374  -3.145  -7.433  0.00  0.00    +0.026 A 
ATOM      8  C   UNL     1      -3.252  -2.452  -6.902  0.00  0.00    +0.043 A 
ATOM      9  N   UNL     1      -2.910  -1.187  -6.939  0.00  0.00    -0.380 N 
ATOM     10  C   UNL     1      -1.643  -1.024  -6.218  0.00  0.00    +0.145 C 
ATOM     11  H   UNL     1      -3.413  -0.477  -7.368  0.00  0.00    +0.160 HD
ENDBRANCH   1   2
BRANCH   1  15
ATOM     12  C   UNL     1      -0.030  -0.666  -1.232  0.00  0.00    +0.029 A 
ATOM     13  C   UNL     1      -0.037  -2.055  -1.243  0.00  0.00    +0.023 A 
ATOM     14  C   UNL     1      -0.038  -2.735  -2.445  0.00  0.00    +0.006 A 
ATOM     15  C   UNL     1      -0.031  -2.035  -3.637  0.00  0.00    -0.039 A 
ATOM     16  C   UNL     1      -0.024  -0.652  -3.631  0.00  0.00    +0.006 A 
ATOM     17  C   UNL     1      -0.029   0.034  -2.432  0.00  0.00    +0.023 A 
BRANCH  12  19
ATOM     18  C   UNL     1      -0.028   1.489  -0.010  0.00  0.00    +0.129 C 
ATOM     19  N   UNL     1      -0.029   0.025  -0.019  0.00  0.00    -0.336 N 
ATOM     20  C   UNL     1      -0.031  -0.716   1.246  0.00  0.00    +0.129 C 
ENDBRANCH  12  19
ENDBRANCH   1  15
BRANCH   1  21
ATOM     21  C   UNL     1       1.223  -2.412  -5.743  0.00  0.00    +0.117 C 
BRANCH  21  22
ATOM     22  N   UNL     1       1.284  -3.225  -6.961  0.00  0.00    -0.310 N 
ATOM     23  C   UNL     1       2.309  -3.071  -7.822  0.00  0.00    +0.245 C 
ATOM     24  O   UNL     1       3.183  -2.259  -7.589  0.00  0.00    -0.270 OA
ATOM     25  H   UNL     1       0.587  -3.873  -7.147  0.00  0.00    +0.149 HD
BRANCH  23  26
ATOM     26  C   UNL     1       2.371  -3.889  -9.048  0.00  0.00    +0.044 A 
ATOM     27  C   UNL     1       1.448  -4.903  -9.262  0.00  0.00    +0.013 A 
ATOM     28  C   UNL     1       1.501  -5.677 -10.414  0.00  0.00    +0.001 A 
ATOM     29  C   UNL     1       2.455  -5.464 -11.364  0.00  0.00    +0.008 A 
ATOM     30  C   UNL     1       3.410  -4.447 -11.189  0.00  0.00    -0.017 A 
ATOM     31  C   UNL     1       3.369  -3.644 -10.024  0.00  0.00    -0.006 A 
ATOM     32  C   UNL     1       4.319  -2.628  -9.853  0.00  0.00    +0.009 A 
ATOM     33  C   UNL     1       5.265  -2.420 -10.811  0.00  0.00    +0.001 A 
ATOM     34  C   UNL     1       5.304  -3.205 -11.961  0.00  0.00    +0.001 A 
ATOM     35  C   UNL     1       4.405  -4.209 -12.154  0.00  0.00    +0.008 A 
ENDBRANCH  23  26
ENDBRANCH  21  22
ENDBRANCH   1  21
TORSDOF 6
