REMARK  Name = ZINC20693704
REMARK  12 active torsions:
REMARK  status: ('A' for Active; 'I' for Inactive)
REMARK    1  A    between atoms: C_1  and  C_2
REMARK    2  A    between atoms: C_2  and  N_3
REMARK    3  A    between atoms: N_3  and  C_4
REMARK    4  A    between atoms: N_3  and  C_6
REMARK    5  A    between atoms: C_4  and  C_5
REMARK    6  A    between atoms: C_6  and  C_7
REMARK    7  A    between atoms: C_7  and  N_8
REMARK    8  A    between atoms: C_9  and  C_11
REMARK    9  A    between atoms: C_24  and  C_27
REMARK   10  A    between atoms: C_30  and  O_35
REMARK   11  A    between atoms: C_31  and  O_33
REMARK   12  A    between atoms: O_33  and  C_34
REMARK                            x       y       z     vdW  Elec       q    Type
REMARK                         _______ _______ _______ _____ _____    ______ ____
ROOT
ATOM      1  C   UNL     1       4.005  -1.452   2.983  0.00  0.00    +0.037 A 
ATOM      2  C   UNL     1       2.829  -1.775   2.299  0.00  0.00    +0.015 A 
ATOM      3  C   UNL     1       1.994  -0.777   1.857  0.00  0.00    +0.024 A 
ATOM      4  C   UNL     1       2.308   0.561   2.085  0.00  0.00    +0.031 A 
ATOM      5  C   UNL     1       3.480   0.884   2.785  0.00  0.00    -0.019 A 
ATOM      6  C   UNL     1       4.320  -0.111   3.221  0.00  0.00    +0.019 A 
ATOM      7  C   UNL     1       3.747   2.316   3.044  0.00  0.00    +0.049 C 
ATOM      8  C   UNL     1       5.126   2.840   3.216  0.00  0.00    -0.023 C 
ATOM      9  C   UNL     1       5.162   4.090   2.772  0.00  0.00    -0.030 C 
ATOM     10  C   UNL     1       3.790   4.492   2.227  0.00  0.00    +0.033 C 
ATOM     11  C   UNL     1       3.228   3.127   1.819  0.00  0.00    +0.029 C 
ATOM     12  C   UNL     1       1.718   2.984   1.849  0.00  0.00    +0.105 C 
ATOM     13  N   UNL     1       1.448   1.550   1.610  0.00  0.00    -0.336 N 
ATOM     14  H   UNL     1       0.553   1.245   1.046  0.00  0.00    +0.147 HD
ENDROOT
BRANCH  12  15
ATOM     15  C   UNL     1       1.093   3.820   0.762  0.00  0.00    -0.023 A 
ATOM     16  C   UNL     1       1.143   3.391  -0.551  0.00  0.00    +0.009 A 
ATOM     17  C   UNL     1       0.567   4.152  -1.552  0.00  0.00    +0.049 A 
ATOM     18  C   UNL     1      -0.052   5.352  -1.241  0.00  0.00    +0.158 A 
ATOM     19  C   UNL     1      -0.096   5.786   0.081  0.00  0.00    +0.162 A 
ATOM     20  C   UNL     1       0.478   5.016   1.079  0.00  0.00    +0.054 A 
BRANCH  19  21
ATOM     21  O   UNL     1      -0.702   6.963   0.391  0.00  0.00    -0.491 OA
ATOM     22  C   UNL     1      -0.710   7.346   1.768  0.00  0.00    +0.277 C 
ENDBRANCH  19  21
BRANCH  18  23
ATOM     23  O   UNL     1      -0.614   6.104  -2.224  0.00  0.00    -0.503 OA
ATOM     24  H   UNL     1      -1.105   7.057  -1.976  0.00  0.00    +0.292 HD
ENDBRANCH  18  23
ENDBRANCH  12  15
BRANCH   1  26
ATOM     25  N   UNL     1       4.601  -3.812   3.221  0.00  0.00    -0.313 N 
ATOM     26  C   UNL     1       4.908  -2.520   3.453  0.00  0.00    +0.244 C 
ATOM     27  O   UNL     1       5.929  -2.235   4.048  0.00  0.00    -0.270 OA
ATOM     28  H   UNL     1       3.676  -4.070   2.683  0.00  0.00    +0.149 HD
BRANCH  25  29
ATOM     29  C   UNL     1       5.497  -4.873   3.687  0.00  0.00    +0.086 C 
BRANCH  29  30
ATOM     30  C   UNL     1       4.920  -6.235   3.299  0.00  0.00    -0.060 C 
BRANCH  30  31
ATOM     31  N   UNL     1       5.819  -7.299   3.766  0.00  0.00    +0.380 N 
ATOM     32  H   UNL     1       6.015  -7.131   4.835  0.00  0.00    -0.082 HD
BRANCH  31  34
ATOM     33  C   UNL     1       4.149  -8.809   4.730  0.00  0.00    -0.017 C 
ATOM     34  C   UNL     1       5.191  -8.619   3.625  0.00  0.00    -0.082 C 
ENDBRANCH  31  34
BRANCH  31  35
ATOM     35  C   UNL     1       7.105  -7.250   3.058  0.00  0.00    -0.082 C 
ATOM     36  C   UNL     1       8.139  -8.082   3.819  0.00  0.00    -0.017 C 
ENDBRANCH  31  35
ENDBRANCH  30  31
ENDBRANCH  29  30
ENDBRANCH  25  29
ENDBRANCH   1  26
TORSDOF 9
