REMARK  Name = ZINC09266840
REMARK  11 active torsions:
REMARK  status: ('A' for Active; 'I' for Inactive)
REMARK    1  A    between atoms: C_1  and  C_2
REMARK    2  A    between atoms: C_2  and  O_3
REMARK    3  A    between atoms: O_3  and  C_4
REMARK    4  A    between atoms: C_9  and  C_10
REMARK    5  A    between atoms: C_18  and  O_38
REMARK    6  A    between atoms: C_21  and  C_22
REMARK    7  A    between atoms: C_21  and  N_75
REMARK    8  A    between atoms: N_24  and  C_25
REMARK    9  A    between atoms: C_26  and  C_34
REMARK   10  A    between atoms: C_34  and  O_36
REMARK   11  A    between atoms: O_36  and  C_37
REMARK                            x       y       z     vdW  Elec       q    Type
REMARK                         _______ _______ _______ _____ _____    ______ ____
ROOT
ATOM      1  C   UNL     1      -1.524   3.560  -0.033  0.00  0.00    -0.028 C 
ATOM      2  C   UNL     1      -0.795   3.111   1.235  0.00  0.00    +0.011 C 
ATOM      3  C   UNL     1      -1.542   3.609   2.472  0.00  0.00    +0.005 C 
ATOM      4  C   UNL     1      -0.795   3.156   3.729  0.00  0.00    +0.000 C 
ATOM      5  C   UNL     1      -0.714   1.629   3.758  0.00  0.00    +0.003 C 
ATOM      6  C   UNL     1       0.024   1.130   2.513  0.00  0.00    +0.035 C 
ATOM      7  C   UNL     1      -0.732   1.581   1.264  0.00  0.00    +0.066 C 
ATOM      8  C   UNL     1      -0.013   1.086   0.008  0.00  0.00    +0.016 C 
ATOM      9  C   UNL     1      -0.756   1.595  -1.230  0.00  0.00    -0.075 C 
ATOM     10  N   UNL     1      -0.773   3.073  -1.211  0.00  0.00    +0.390 N 
ATOM     11  H   UNL     1       0.193   3.416  -1.155  0.00  0.00    -0.080 HD
ENDROOT
BRANCH   1  17
ATOM     12  C   UNL     1      -2.531   5.748   0.664  0.00  0.00    +0.122 A 
ATOM     13  C   UNL     1      -2.574   7.135   0.627  0.00  0.00    +0.046 A 
ATOM     14  C   UNL     1      -1.672   7.831  -0.154  0.00  0.00    +0.004 A 
ATOM     15  C   UNL     1      -0.724   7.149  -0.893  0.00  0.00    +0.000 A 
ATOM     16  C   UNL     1      -0.677   5.768  -0.854  0.00  0.00    +0.005 A 
ATOM     17  C   UNL     1      -1.576   5.066  -0.075  0.00  0.00    -0.019 A 
BRANCH  12  18
ATOM     18  O   UNL     1      -3.421   5.060   1.427  0.00  0.00    -0.492 OA
BRANCH  18  20
ATOM     19  C   UNL     1      -5.286   4.887   2.955  0.00  0.00    +0.048 C 
ATOM     20  C   UNL     1      -4.376   5.828   2.162  0.00  0.00    +0.225 C 
ENDBRANCH  18  20
ENDBRANCH  12  18
ENDBRANCH   1  17
BRANCH   7  21
ATOM     21  O   UNL     1      -2.059   1.051   1.294  0.00  0.00    -0.388 OA
ATOM     22  H   UNL     1      -2.096   0.085   1.306  0.00  0.00    +0.210 HD
ENDBRANCH   7  21
BRANCH  10  23
ATOM     23  C   UNL     1      -1.392   3.586  -2.450  0.00  0.00    +0.020 C 
BRANCH  23  24
ATOM     24  C   UNL     1      -2.842   3.183  -2.526  0.00  0.00    +0.201 C 
ATOM     25  O   UNL     1      -3.336   2.524  -1.635  0.00  0.00    -0.278 OA
ATOM     26  N   UNL     1      -3.591   3.555  -3.583  0.00  0.00    -0.281 N 
ATOM     27  H   UNL     1      -3.196   4.082  -4.296  0.00  0.00    +0.155 HD
BRANCH  26  28
ATOM     28  C   UNL     1      -4.925   3.184  -3.653  0.00  0.00    +0.086 A 
ATOM     29  C   UNL     1      -5.850   3.472  -4.647  0.00  0.00    +0.091 A 
ATOM     30  C   UNL     1      -7.198   2.955  -4.480  0.00  0.00    -0.021 A 
ATOM     31  C   UNL     1      -7.407   2.248  -3.349  0.00  0.00    -0.004 A 
ATOM     32  S   UNL     1      -5.844   2.254  -2.516  0.00  0.00    -0.077 S 
ATOM     33  C   UNL     1      -8.686   1.606  -2.908  0.00  0.00    +0.043 C 
ATOM     34  C   UNL     1      -9.832   2.184  -3.751  0.00  0.00    +0.005 C 
ATOM     35  C   UNL     1      -9.425   2.152  -5.226  0.00  0.00    +0.005 C 
ATOM     36  C   UNL     1      -8.322   3.180  -5.484  0.00  0.00    +0.037 C 
BRANCH  29  37
ATOM     37  C   UNL     1      -5.480   4.264  -5.822  0.00  0.00    +0.342 C 
ATOM     38  O   UNL     1      -5.055   3.712  -6.819  0.00  0.00    -0.245 OA
BRANCH  37  39
ATOM     39  O   UNL     1      -5.611   5.607  -5.799  0.00  0.00    -0.464 OA
ATOM     40  C   UNL     1      -5.225   6.327  -6.999  0.00  0.00    +0.280 C 
ENDBRANCH  37  39
ENDBRANCH  29  37
ENDBRANCH  26  28
ENDBRANCH  23  24
ENDBRANCH  10  23
TORSDOF 9
