REMARK  Name = ZINC64055300
REMARK  8 active torsions:
REMARK  status: ('A' for Active; 'I' for Inactive)
REMARK    1  A    between atoms: C_7  and  C_10
REMARK    2  A    between atoms: C_10  and  C_11
REMARK    3  A    between atoms: C_11  and  C_13
REMARK    4  A    between atoms: C_11  and  N_27
REMARK    5  A    between atoms: C_13  and  O_15
REMARK    6  A    between atoms: O_15  and  C_16
REMARK    7  A    between atoms: C_16  and  C_17
REMARK    8  A    between atoms: C_28  and  C_30
REMARK                            x       y       z     vdW  Elec       q    Type
REMARK                         _______ _______ _______ _____ _____    ______ ____
ROOT
ATOM      1  C   UNL     1       0.457  -3.654  -1.454  0.00  0.00    +0.186 C 
ENDROOT
BRANCH   1   2
ATOM      2  N   UNL     1       1.713  -4.163  -2.011  0.00  0.00    -0.298 N 
ATOM      3  C   UNL     1       2.337  -5.205  -1.426  0.00  0.00    +0.251 C 
ATOM      4  O   UNL     1       1.856  -5.723  -0.436  0.00  0.00    -0.270 OA
ATOM      5  H   UNL     1       2.096  -3.749  -2.800  0.00  0.00    +0.150 HD
BRANCH   3   6
ATOM      6  C   UNL     1       3.593  -5.713  -1.984  0.00  0.00    +0.074 A 
ATOM      7  C   UNL     1       4.382  -6.766  -1.544  0.00  0.00    +0.021 A 
ATOM      8  C   UNL     1       5.517  -7.009  -2.279  0.00  0.00    +0.008 A 
ATOM      9  C   UNL     1       5.785  -6.229  -3.356  0.00  0.00    +0.046 A 
ATOM     10  S   UNL     1       4.502  -5.145  -3.408  0.00  0.00    -0.092 S 
ENDBRANCH   3   6
ENDBRANCH   1   2
BRANCH   1  11
ATOM     11  C   UNL     1      -0.577  -4.750  -1.465  0.00  0.00    +0.328 C 
ATOM     12  O   UNL     1      -0.232  -5.906  -1.541  0.00  0.00    -0.249 OA
BRANCH  11  13
ATOM     13  O   UNL     1      -1.882  -4.443  -1.390  0.00  0.00    -0.454 OA
BRANCH  13  14
ATOM     14  C   UNL     1      -2.807  -5.532  -1.405  0.00  0.00    +0.328 C 
BRANCH  14  15
ATOM     15  C   UNL     1      -4.213  -4.998  -1.314  0.00  0.00    +0.256 C 
ATOM     16  O   UNL     1      -4.404  -3.802  -1.242  0.00  0.00    -0.272 OA
ATOM     17  N   UNL     1      -5.258  -5.848  -1.312  0.00  0.00    -0.268 N 
ATOM     18  C   UNL     1      -6.552  -5.364  -1.120  0.00  0.00    +0.125 A 
ATOM     19  C   UNL     1      -7.613  -6.256  -1.013  0.00  0.00    +0.045 A 
ATOM     20  C   UNL     1      -8.891  -5.762  -0.824  0.00  0.00    +0.025 A 
ATOM     21  C   UNL     1      -9.065  -4.385  -0.748  0.00  0.00    +0.059 A 
ATOM     22  C   UNL     1      -7.965  -3.558  -0.862  0.00  0.00    +0.132 A 
ATOM     23  N   UNL     1      -6.757  -4.059  -1.037  0.00  0.00    -0.239 NA
ATOM     24 CL   UNL     1     -10.648  -3.713  -0.511  0.00  0.00    -0.082 Cl
ATOM     25  H   UNL     1      -5.111  -6.798  -1.443  0.00  0.00    +0.156 HD
ENDBRANCH  14  15
ENDBRANCH  13  14
ENDBRANCH  11  13
ENDBRANCH   1  11
BRANCH   1  26
ATOM     26  C   UNL     1       0.689  -3.187  -0.016  0.00  0.00    +0.067 C 
BRANCH  26  33
ATOM     27  C   UNL     1      -0.017   1.347   0.017  0.00  0.00    +0.001 A 
ATOM     28  C   UNL     1       1.165   2.100   0.011  0.00  0.00    +0.002 A 
ATOM     29  C   UNL     1       2.391   1.534  -0.002  0.00  0.00    +0.026 A 
ATOM     30  C   UNL     1       2.528   0.118  -0.011  0.00  0.00    +0.043 A 
ATOM     31  N   UNL     1       3.586  -0.656  -0.025  0.00  0.00    -0.380 N 
ATOM     32  C   UNL     1       3.142  -2.054  -0.029  0.00  0.00    +0.144 C 
ATOM     33  C   UNL     1       1.630  -2.010  -0.016  0.00  0.00    -0.039 C 
ATOM     34  C   UNL     1       1.294  -0.700  -0.005  0.00  0.00    -0.001 A 
ATOM     35  C   UNL     1       0.001  -0.005   0.009  0.00  0.00    +0.010 A 
ATOM     36  H   UNL     1       4.508  -0.354  -0.031  0.00  0.00    +0.160 HD
ENDBRANCH  26  33
ENDBRANCH   1  26
TORSDOF 8
