REMARK  Name = ZINC33745766
REMARK  15 active torsions:
REMARK  status: ('A' for Active; 'I' for Inactive)
REMARK    1  A    between atoms: C_1  and  C_2
REMARK    2  A    between atoms: C_2  and  C_3
REMARK    3  A    between atoms: C_3  and  C_4
REMARK    4  A    between atoms: C_4  and  N_5
REMARK    5  A    between atoms: N_5  and  N_6
REMARK    6  A    between atoms: C_7  and  C_8
REMARK    7  A    between atoms: C_7  and  C_30
REMARK    8  A    between atoms: C_8  and  C_26
REMARK    9  A    between atoms: C_9  and  C_11
REMARK   10  A    between atoms: N_13  and  C_14
REMARK   11  A    between atoms: C_19  and  N_23
REMARK   12  A    between atoms: C_26  and  O_28
REMARK   13  A    between atoms: O_28  and  C_29
REMARK   14  A    between atoms: C_30  and  O_32
REMARK   15  A    between atoms: O_32  and  C_33
REMARK                            x       y       z     vdW  Elec       q    Type
REMARK                         _______ _______ _______ _____ _____    ______ ____
ROOT
ATOM      1  C   UNL     1       1.259   3.610   0.123  0.00  0.00    +0.145 C 
ATOM      2  C   UNL     1       2.666   4.130  -0.020  0.00  0.00    +0.261 C 
ATOM      3  O   UNL     1       3.370   4.243   0.955  0.00  0.00    -0.281 OA
ENDROOT
BRANCH   2   4
ATOM      4  C   UNL     1       3.189   4.503  -1.363  0.00  0.00    +0.320 C 
ATOM      5  O   UNL     1       2.482   4.389  -2.343  0.00  0.00    -0.262 OA
ATOM      6  N   UNL     1       4.448   4.968  -1.491  0.00  0.00    -0.180 NA
BRANCH   6   7
ATOM      7  C   UNL     1       4.934   5.314  -2.739  0.00  0.00    +0.197 A 
ATOM      8  N   UNL     1       4.327   5.263  -3.903  0.00  0.00    -0.221 NA
ATOM      9  C   UNL     1       4.929   5.637  -5.052  0.00  0.00    +0.081 A 
ATOM     10  C   UNL     1       4.393   5.631  -6.361  0.00  0.00    +0.031 A 
ATOM     11  C   UNL     1       5.145   6.046  -7.428  0.00  0.00    +0.035 A 
ATOM     12  C   UNL     1       6.451   6.486  -7.266  0.00  0.00    +0.127 A 
ATOM     13  C   UNL     1       7.008   6.506  -6.001  0.00  0.00    +0.050 A 
ATOM     14  C   UNL     1       6.262   6.091  -4.926  0.00  0.00    +0.043 A 
ATOM     15  S   UNL     1       6.544   5.955  -3.177  0.00  0.00    -0.048 S 
BRANCH  12  16
ATOM     16  N   UNL     1       7.240   6.931  -8.437  0.00  0.00    +0.056 N 
ATOM     17  O   UNL     1       8.386   7.316  -8.289  0.00  0.00    -0.126 OA
ATOM     18  O   UNL     1       6.744   6.910  -9.549  0.00  0.00    -0.126 OA
ENDBRANCH  12  16
ENDBRANCH   6   7
ENDBRANCH   2   4
BRANCH   1  20
ATOM     19  N   UNL     1      -0.259   4.847   1.573  0.00  0.00    -0.179 NA
ATOM     20  C   UNL     1       0.719   3.989   1.478  0.00  0.00    +0.183 C 
BRANCH  19  21
ATOM     21  N   UNL     1      -0.846   5.276   0.508  0.00  0.00    -0.268 N 
ATOM     22  H   UNL     1      -0.614   4.904  -0.357  0.00  0.00    +0.168 HD
BRANCH  21  23
ATOM     23  C   UNL     1      -1.863   6.327   0.606  0.00  0.00    +0.122 C 
BRANCH  23  24
ATOM     24  C   UNL     1      -2.486   6.563  -0.772  0.00  0.00    +0.020 C 
BRANCH  24  26
ATOM     25  C   UNL     1      -4.080   7.978  -2.074  0.00  0.00    +0.004 C 
ATOM     26  C   UNL     1      -3.457   7.742  -0.697  0.00  0.00    -0.002 C 
ENDBRANCH  24  26
ENDBRANCH  23  24
ENDBRANCH  21  23
ENDBRANCH  19  21
BRANCH  20  27
ATOM     27  C   UNL     1       1.290   3.396   2.685  0.00  0.00    +0.360 C 
ATOM     28  O   UNL     1       2.202   2.596   2.596  0.00  0.00    -0.243 OA
BRANCH  27  29
ATOM     29  O   UNL     1       0.807   3.735   3.898  0.00  0.00    -0.463 OA
ATOM     30  C   UNL     1       1.413   3.116   5.034  0.00  0.00    +0.280 C 
ENDBRANCH  27  29
ENDBRANCH  20  27
ENDBRANCH   1  20
BRANCH   1  31
ATOM     31  C   UNL     1       1.260   2.110  -0.015  0.00  0.00    +0.345 C 
ATOM     32  O   UNL     1       2.307   1.512  -0.104  0.00  0.00    -0.245 OA
BRANCH  31  33
ATOM     33  O   UNL     1       0.100   1.436  -0.039  0.00  0.00    -0.464 OA
ATOM     34  C   UNL     1       0.178  -0.013  -0.059  0.00  0.00    +0.280 C 
ENDBRANCH  31  33
ENDBRANCH   1  31
TORSDOF 12
