REMARK  Name = ZINC06135364
REMARK  8 active torsions:
REMARK  status: ('A' for Active; 'I' for Inactive)
REMARK    1  A    between atoms: C_1  and  C_2
REMARK    2  A    between atoms: C_2  and  C_3
REMARK    3  A    between atoms: C_10  and  C_15
REMARK    4  A    between atoms: C_15  and  C_17
REMARK    5  A    between atoms: C_15  and  N_69
REMARK    6  A    between atoms: N_21  and  C_22
REMARK    7  A    between atoms: C_22  and  C_23
REMARK    8  A    between atoms: N_32  and  C_35
REMARK                            x       y       z     vdW  Elec       q    Type
REMARK                         _______ _______ _______ _____ _____    ______ ____
ROOT
ATOM      1  C   UNL     1       1.133   7.465   0.030  0.00  0.00    +0.039 C 
ENDROOT
BRANCH   1   9
ATOM      2  C   UNL     1      -1.228   1.746   0.017  0.00  0.00    -0.047 A 
ATOM      3  C   UNL     1      -0.013   1.076   0.008  0.00  0.00    +0.005 A 
ATOM      4  C   UNL     1       1.176   1.774   0.000  0.00  0.00    +0.026 A 
ATOM      5  C   UNL     1       1.159   3.165   0.008  0.00  0.00    +0.049 A 
ATOM      6  C   UNL     1      -0.075   3.841   0.023  0.00  0.00    -0.001 A 
ATOM      7  C   UNL     1      -1.269   3.112   0.031  0.00  0.00    +0.013 A 
ATOM      8  C   UNL     1      -0.083   5.305   0.031  0.00  0.00    +0.017 A 
ATOM      9  C   UNL     1       1.105   5.959   0.023  0.00  0.00    +0.011 A 
ATOM     10  C   UNL     1       2.316   5.233   0.007  0.00  0.00    +0.251 A 
ATOM     11  O   UNL     1       3.373   5.840  -0.000  0.00  0.00    -0.268 OA
ATOM     12  N   UNL     1       2.332   3.889   0.000  0.00  0.00    -0.322 N 
ATOM     13  H   UNL     1       3.208   3.406  -0.011  0.00  0.00    +0.169 HD
BRANCH   2  15
ATOM     14  C   UNL     1      -2.943   0.686   1.462  0.00  0.00    +0.009 C 
ATOM     15  C   UNL     1      -2.514   0.961   0.019  0.00  0.00    +0.032 C 
ENDBRANCH   2  15
ENDBRANCH   1   9
BRANCH   1  21
ATOM     16  C   UNL     1       1.448   7.393   2.431  0.00  0.00    -0.058 C 
ATOM     17  C   UNL     1       2.368   7.840   3.569  0.00  0.00    +0.086 C 
ATOM     18  N   UNL     1       2.418   9.308   3.608  0.00  0.00    -0.333 N 
ATOM     19  C   UNL     1       2.919   9.849   2.337  0.00  0.00    +0.086 C 
ATOM     20  C   UNL     1       1.998   9.403   1.198  0.00  0.00    -0.058 C 
ATOM     21  N   UNL     1       1.975   7.925   1.156  0.00  0.00    +0.391 N 
ATOM     22  H   UNL     1       2.932   7.580   1.020  0.00  0.00    -0.080 HD
BRANCH  18  23
ATOM     23  C   UNL     1       3.193   9.754   4.681  0.00  0.00    +0.030 A 
ATOM     24  C   UNL     1       4.277  10.593   4.456  0.00  0.00    +0.023 A 
ATOM     25  C   UNL     1       5.038  11.036   5.520  0.00  0.00    +0.002 A 
ATOM     26  C   UNL     1       4.729  10.637   6.807  0.00  0.00    +0.000 A 
ATOM     27  C   UNL     1       3.654   9.797   7.035  0.00  0.00    +0.002 A 
ATOM     28  C   UNL     1       2.885   9.355   5.976  0.00  0.00    +0.023 A 
ENDBRANCH  18  23
ENDBRANCH   1  21
BRANCH   1  29
ATOM     29  C   UNL     1       1.730   7.963  -1.261  0.00  0.00    +0.143 A 
ATOM     30  N   UNL     1       2.998   7.950  -1.593  0.00  0.00    -0.115 NA
ATOM     31  N   UNL     1       3.105   8.458  -2.773  0.00  0.00    -0.023 NA
ATOM     32  N   UNL     1       1.940   8.801  -3.198  0.00  0.00    -0.044 NA
ATOM     33  N   UNL     1       1.065   8.512  -2.294  0.00  0.00    -0.226 N 
BRANCH  33  34
ATOM     34  C   UNL     1      -0.380   8.739  -2.377  0.00  0.00    +0.182 C 
BRANCH  34  35
ATOM     35  C   UNL     1      -0.706  10.105  -1.831  0.00  0.00    -0.026 A 
ATOM     36  C   UNL     1      -0.997  10.260  -0.488  0.00  0.00    +0.008 A 
ATOM     37  C   UNL     1      -1.292  11.513   0.015  0.00  0.00    +0.038 A 
ATOM     38  C   UNL     1      -1.305  12.612  -0.828  0.00  0.00    +0.123 A 
ATOM     39  C   UNL     1      -1.018  12.454  -2.173  0.00  0.00    +0.038 A 
ATOM     40  C   UNL     1      -0.718  11.201  -2.673  0.00  0.00    +0.008 A 
ATOM     41  F   UNL     1      -1.597  13.836  -0.338  0.00  0.00    -0.205 F 
ENDBRANCH  34  35
ENDBRANCH  33  34
ENDBRANCH   1  29
TORSDOF 7
