REMARK  Name = ZINC09693327
REMARK  7 active torsions:
REMARK  status: ('A' for Active; 'I' for Inactive)
REMARK    1  A    between atoms: C_1  and  C_2
REMARK    2  A    between atoms: C_3  and  N_9
REMARK    3  A    between atoms: C_15  and  C_23
REMARK    4  A    between atoms: C_17  and  C_21
REMARK    5  A    between atoms: C_26  and  C_29
REMARK    6  A    between atoms: C_29  and  C_30
REMARK    7  A    between atoms: C_29  and  C_31
REMARK                            x       y       z     vdW  Elec       q    Type
REMARK                         _______ _______ _______ _____ _____    ______ ____
ROOT
ATOM      1  N   UNL     1      -2.427  -0.238  -0.448  0.00  0.00    -0.304 N 
ATOM      2  C   UNL     1      -1.114  -0.832  -0.418  0.00  0.00    +0.222 C 
ATOM      3  N   UNL     1       0.002  -0.004   0.002  0.00  0.00    -0.248 N 
ATOM      4  C   UNL     1       1.137  -0.646   0.381  0.00  0.00    +0.222 C 
ATOM      5  O   UNL     1       1.169  -1.858   0.366  0.00  0.00    -0.275 OA
ATOM      6  C   UNL     1       2.355   0.119   0.818  0.00  0.00    +0.110 C 
ATOM      7  C   UNL     1       2.470   1.405  -0.006  0.00  0.00    +0.070 C 
ATOM      8  C   UNL     1       1.133   2.101   0.003  0.00  0.00    +0.065 C 
ATOM      9  C   UNL     1      -0.017   1.375   0.010  0.00  0.00    +0.087 C 
ATOM     10  S   UNL     1      -1.568   2.223   0.055  0.00  0.00    -0.090 S 
ATOM     11  C   UNL     1      -2.498   1.103  -1.032  0.00  0.00    +0.182 C 
ENDROOT
BRANCH   1  14
ATOM     12  C   UNL     1      -4.662  -1.097   1.089  0.00  0.00    +0.047 C 
ATOM     13  C   UNL     1      -4.457  -1.540  -0.337  0.00  0.00    -0.011 A 
ATOM     14  C   UNL     1      -3.351  -1.096  -1.050  0.00  0.00    +0.036 A 
ATOM     15  C   UNL     1      -3.167  -1.502  -2.366  0.00  0.00    +0.023 A 
ATOM     16  C   UNL     1      -4.080  -2.354  -2.958  0.00  0.00    +0.003 A 
ATOM     17  C   UNL     1      -5.180  -2.795  -2.246  0.00  0.00    +0.020 A 
ATOM     18  C   UNL     1      -5.369  -2.388  -0.936  0.00  0.00    +0.046 A 
ATOM     19 CL   UNL     1      -6.751  -2.944  -0.046  0.00  0.00    -0.083 Cl
ENDBRANCH   1  14
BRANCH   7  20
ATOM     20  C   UNL     1       3.514   2.304   0.604  0.00  0.00    -0.039 A 
ATOM     21  C   UNL     1       3.362   2.759   1.901  0.00  0.00    +0.004 A 
ATOM     22  C   UNL     1       4.322   3.581   2.462  0.00  0.00    +0.004 A 
ATOM     23  C   UNL     1       5.428   3.955   1.723  0.00  0.00    -0.045 A 
ATOM     24  C   UNL     1       5.578   3.505   0.425  0.00  0.00    +0.004 A 
ATOM     25  C   UNL     1       4.621   2.679  -0.135  0.00  0.00    +0.004 A 
BRANCH  23  26
ATOM     26  C   UNL     1       6.473   4.854   2.333  0.00  0.00    +0.013 C 
ATOM     27  C   UNL     1       5.830   6.184   2.735  0.00  0.00    +0.012 C 
ATOM     28  C   UNL     1       7.065   4.180   3.572  0.00  0.00    +0.012 C 
ENDBRANCH  23  26
ENDBRANCH   7  20
BRANCH   8  29
ATOM     29  C   UNL     1       1.074   3.532   0.003  0.00  0.00    +0.098 C 
ATOM     30  N   UNL     1       1.027   4.667   0.004  0.00  0.00    -0.191 NA
ENDBRANCH   8  29
TORSDOF 4
