REMARK  Name = ZINC08925226
REMARK  10 active torsions:
REMARK  status: ('A' for Active; 'I' for Inactive)
REMARK    1  A    between atoms: C_1  and  C_2
REMARK    2  A    between atoms: C_2  and  O_3
REMARK    3  A    between atoms: O_3  and  C_4
REMARK    4  A    between atoms: C_4  and  C_6
REMARK    5  A    between atoms: C_10  and  N_11
REMARK    6  A    between atoms: C_12  and  C_14
REMARK    7  A    between atoms: C_14  and  S_15
REMARK    8  A    between atoms: S_15  and  C_16
REMARK    9  A    between atoms: C_19  and  C_21
REMARK   10  A    between atoms: C_33  and  C_37
REMARK                            x       y       z     vdW  Elec       q    Type
REMARK                         _______ _______ _______ _____ _____    ______ ____
ROOT
ATOM      1  N   UNL     1      -3.759  -0.175   0.034  0.00  0.00    -0.279 N 
ATOM      2  C   UNL     1      -4.713   0.777   0.048  0.00  0.00    +0.228 C 
ATOM      3  O   UNL     1      -4.400   1.949   0.052  0.00  0.00    -0.275 OA
ATOM      4  H   UNL     1      -4.009  -1.112   0.031  0.00  0.00    +0.155 HD
ENDROOT
BRANCH   1   9
ATOM      5  C   UNL     1      -1.304  -0.641   0.010  0.00  0.00    +0.091 A 
ATOM      6  C   UNL     1       0.002  -0.004   0.002  0.00  0.00    -0.021 A 
ATOM      7  C   UNL     1      -0.016   1.346   0.009  0.00  0.00    -0.004 A 
ATOM      8  S   UNL     1      -1.734   1.776   0.020  0.00  0.00    -0.077 S 
ATOM      9  C   UNL     1      -2.420   0.185   0.025  0.00  0.00    +0.086 A 
ATOM     10  C   UNL     1       1.166   2.266   0.003  0.00  0.00    +0.046 C 
ATOM     11  C   UNL     1       2.408   1.454  -0.392  0.00  0.00    -0.009 C 
ATOM     12  C   UNL     1       2.440   0.167   0.437  0.00  0.00    +0.008 C 
ATOM     13  C   UNL     1       1.319  -0.771  -0.014  0.00  0.00    +0.037 C 
ATOM     14  C   UNL     1       3.670   2.273  -0.116  0.00  0.00    +0.008 C 
BRANCH   5  15
ATOM     15  C   UNL     1      -1.439  -2.099   0.002  0.00  0.00    +0.342 C 
ATOM     16  O   UNL     1      -1.485  -2.711   1.052  0.00  0.00    -0.245 OA
BRANCH  15  17
ATOM     17  O   UNL     1      -1.511  -2.764  -1.170  0.00  0.00    -0.461 OA
BRANCH  17  19
ATOM     18  C   UNL     1      -1.710  -4.782  -2.518  0.00  0.00    +0.048 C 
ATOM     19  C   UNL     1      -1.643  -4.208  -1.101  0.00  0.00    +0.229 C 
ENDBRANCH  17  19
ENDBRANCH  15  17
ENDBRANCH   5  15
ENDBRANCH   1   9
BRANCH   2  20
ATOM     20  C   UNL     1      -6.168   0.385   0.059  0.00  0.00    +0.175 C 
BRANCH  20  21
ATOM     21  S   UNL     1      -7.194   1.876   0.076  0.00  0.00    -0.056 S 
BRANCH  21  22
ATOM     22  C   UNL     1      -8.797   1.144   0.086  0.00  0.00    +0.278 A 
ATOM     23  N   UNL     1      -9.066  -0.139   0.076  0.00  0.00    -0.101 NA
ATOM     24  N   UNL     1     -10.342  -0.306   0.092  0.00  0.00    -0.108 NA
ATOM     25  C   UNL     1     -10.933   0.852   0.104  0.00  0.00    +0.262 A 
ATOM     26  O   UNL     1      -9.973   1.799   0.101  0.00  0.00    -0.412 OA
BRANCH  25  27
ATOM     27  C   UNL     1     -12.420   1.092   0.118  0.00  0.00    +0.297 C 
ATOM     28  C   UNL     1     -12.984   0.769   1.508  0.00  0.00    +0.283 C 
ATOM     29  O   UNL     1     -14.397   0.995   1.483  0.00  0.00    -0.484 OA
ATOM     30  C   UNL     1     -15.078   0.488   0.419  0.00  0.00    +0.162 A 
ATOM     31  C   UNL     1     -16.456   0.350   0.496  0.00  0.00    +0.049 A 
ATOM     32  C   UNL     1     -17.162  -0.160  -0.577  0.00  0.00    +0.004 A 
ATOM     33  C   UNL     1     -16.497  -0.533  -1.730  0.00  0.00    +0.004 A 
ATOM     34  C   UNL     1     -15.124  -0.400  -1.813  0.00  0.00    +0.049 A 
ATOM     35  C   UNL     1     -14.409   0.111  -0.739  0.00  0.00    +0.163 A 
ATOM     36  O   UNL     1     -13.057   0.234  -0.834  0.00  0.00    -0.472 OA
ENDBRANCH  25  27
ENDBRANCH  21  22
ENDBRANCH  20  21
ENDBRANCH   2  20
TORSDOF 8
