REMARK  Name = ZINC02068826
REMARK  4 active torsions:
REMARK  status: ('A' for Active; 'I' for Inactive)
REMARK    1  A    between atoms: C_1  and  S_2
REMARK    2  A    between atoms: S_2  and  C_3
REMARK    3  A    between atoms: C_16  and  C_19
REMARK    4  A    between atoms: C_22  and  C_24
REMARK                            x       y       z     vdW  Elec       q    Type
REMARK                         _______ _______ _______ _____ _____    ______ ____
ROOT
ATOM      1  C   UNL     1       5.996   3.417  -0.008  0.00  0.00    +0.212 A 
ATOM      2  N   UNL     1       5.828   2.437  -0.891  0.00  0.00    -0.184 NA
ATOM      3  C   UNL     1       4.679   1.784  -0.921  0.00  0.00    +0.248 A 
ATOM      4  C   UNL     1       3.667   2.147  -0.005  0.00  0.00    +0.156 A 
ATOM      5  N   UNL     1       3.897   3.135   0.847  0.00  0.00    -0.141 NA
ATOM      6  N   UNL     1       5.030   3.748   0.840  0.00  0.00    -0.122 NA
ATOM      7  C   UNL     1       2.380   1.422  -0.014  0.00  0.00    +0.028 A 
ATOM      8  C   UNL     1       1.165   2.095   0.002  0.00  0.00    +0.012 A 
ATOM      9  C   UNL     1      -0.017   1.380   0.010  0.00  0.00    +0.001 A 
ATOM     10  C   UNL     1       0.002  -0.004   0.002  0.00  0.00    +0.002 A 
ATOM     11  C   UNL     1       1.204  -0.688  -0.019  0.00  0.00    +0.024 A 
ATOM     12  C   UNL     1       2.395   0.014  -0.032  0.00  0.00    +0.040 A 
ATOM     13  N   UNL     1       3.628  -0.643  -0.086  0.00  0.00    -0.303 N 
ATOM     14  C   UNL     1       4.425  -0.545  -1.305  0.00  0.00    +0.329 C 
ATOM     15  O   UNL     1       4.458   0.785  -1.809  0.00  0.00    -0.445 OA
ATOM     16  H   UNL     1       3.948  -1.156   0.673  0.00  0.00    +0.150 HD
ENDROOT
BRANCH  14  17
ATOM     17  C   UNL     1       3.834  -1.453  -2.352  0.00  0.00    +0.165 A 
ATOM     18  C   UNL     1       4.526  -2.106  -3.307  0.00  0.00    +0.051 A 
ATOM     19  C   UNL     1       3.591  -2.837  -4.066  0.00  0.00    +0.050 A 
ATOM     20  C   UNL     1       2.368  -2.588  -3.528  0.00  0.00    +0.135 A 
ATOM     21  O   UNL     1       2.531  -1.750  -2.486  0.00  0.00    -0.454 OA
BRANCH  20  22
ATOM     22  C   UNL     1       1.083  -3.143  -4.001  0.00  0.00    +0.017 A 
ATOM     23  C   UNL     1       1.053  -4.005  -5.099  0.00  0.00    +0.012 A 
ATOM     24  C   UNL     1      -0.149  -4.525  -5.532  0.00  0.00    +0.016 A 
ATOM     25  C   UNL     1      -1.326  -4.185  -4.887  0.00  0.00    +0.018 A 
ATOM     26  C   UNL     1      -1.304  -3.326  -3.801  0.00  0.00    +0.016 A 
ATOM     27  C   UNL     1      -0.107  -2.804  -3.355  0.00  0.00    +0.012 A 
ATOM     28 BR   UNL     1      -2.970  -4.895  -5.493  0.00  0.00    -0.050 Br
ENDBRANCH  20  22
ENDBRANCH  14  17
BRANCH   1  30
ATOM     29  C   UNL     1       7.182   5.456   1.379  0.00  0.00    +0.093 C 
ATOM     30  S   UNL     1       7.525   4.291   0.037  0.00  0.00    -0.088 S 
ENDBRANCH   1  30
TORSDOF 3
