REMARK  Name = ZINC00565643
REMARK  3 active torsions:
REMARK  status: ('A' for Active; 'I' for Inactive)
REMARK    1  A    between atoms: C_3  and  C_9
REMARK    2  A    between atoms: C_4  and  O_8
REMARK    3  A    between atoms: C_6  and  O_7
REMARK                            x       y       z     vdW  Elec       q    Type
REMARK                         _______ _______ _______ _____ _____    ______ ____
ROOT
ATOM      1  C   UNL     1       1.223  -2.188  -0.021  0.00  0.00    +0.194 C 
ATOM      2  N   UNL     1      -0.046  -2.688   0.538  0.00  0.00    -0.316 N 
ATOM      3  C   UNL     1      -0.133  -2.753   1.904  0.00  0.00    +0.080 A 
ATOM      4  C   UNL     1       0.993  -2.846   2.737  0.00  0.00    +0.068 A 
ATOM      5  C   UNL     1       0.721  -2.922   4.163  0.00  0.00    -0.023 A 
ATOM      6  C   UNL     1      -0.584  -2.885   4.513  0.00  0.00    -0.005 A 
ATOM      7  S   UNL     1      -1.465  -2.754   2.979  0.00  0.00    -0.078 S 
ATOM      8  C   UNL     1      -1.151  -2.945   5.897  0.00  0.00    +0.043 C 
ATOM      9  C   UNL     1      -0.051  -3.430   6.852  0.00  0.00    +0.005 C 
ATOM     10  C   UNL     1       1.226  -2.632   6.577  0.00  0.00    +0.005 C 
ATOM     11  C   UNL     1       1.811  -3.036   5.223  0.00  0.00    +0.037 C 
ATOM     12  C   UNL     1       2.324  -2.868   2.088  0.00  0.00    +0.248 C 
ATOM     13  O   UNL     1       3.339  -3.067   2.730  0.00  0.00    -0.270 OA
ATOM     14  N   UNL     1       2.366  -2.657   0.756  0.00  0.00    -0.289 N 
ATOM     15  H   UNL     1      -0.864  -2.986  -0.135  0.00  0.00    +0.149 HD
ATOM     16  H   UNL     1       3.325  -2.859   0.257  0.00  0.00    +0.151 HD
ENDROOT
BRANCH   1  19
ATOM     17  C   UNL     1      -0.017   1.378   0.010  0.00  0.00    +0.046 A 
ATOM     18  C   UNL     1       0.002  -0.004   0.002  0.00  0.00    +0.014 A 
ATOM     19  C   UNL     1       1.206  -0.681  -0.013  0.00  0.00    +0.032 A 
ATOM     20  C   UNL     1       2.401   0.026  -0.020  0.00  0.00    +0.127 A 
ATOM     21  C   UNL     1       2.385   1.412  -0.013  0.00  0.00    +0.091 A 
ATOM     22  C   UNL     1       1.175   2.089   0.002  0.00  0.00    +0.120 A 
BRANCH  22  23
ATOM     23  O   UNL     1       1.156   3.448   0.010  0.00  0.00    -0.507 OA
ATOM     24  H   UNL     1       2.100   4.011   0.004  0.00  0.00    +0.292 HD
ENDBRANCH  22  23
BRANCH  20  25
ATOM     25  O   UNL     1       3.585  -0.640  -0.035  0.00  0.00    -0.506 OA
ATOM     26  H   UNL     1       4.532  -0.080  -0.041  0.00  0.00    +0.292 HD
ENDBRANCH  20  25
ENDBRANCH   1  19
TORSDOF 3
