REMARK  Name = ZINC24897439
REMARK  9 active torsions:
REMARK  status: ('A' for Active; 'I' for Inactive)
REMARK    1  A    between atoms: C_1  and  C_2
REMARK    2  A    between atoms: C_12  and  C_14
REMARK    3  A    between atoms: C_14  and  N_15
REMARK    4  A    between atoms: C_18  and  N_21
REMARK    5  A    between atoms: N_21  and  C_22
REMARK    6  A    between atoms: C_29  and  C_32
REMARK    7  A    between atoms: C_32  and  C_33
REMARK    8  A    between atoms: C_32  and  C_34
REMARK    9  A    between atoms: C_32  and  C_35
REMARK                            x       y       z     vdW  Elec       q    Type
REMARK                         _______ _______ _______ _____ _____    ______ ____
ROOT
ATOM      1  N   UNL     1      -0.582   1.575   1.271  0.00  0.00    +0.384 N 
ATOM      2  C   UNL     1      -2.025   1.309   1.335  0.00  0.00    -0.076 C 
ATOM      3  C   UNL     1      -2.609   1.958   2.592  0.00  0.00    +0.003 C 
ATOM      4  C   UNL     1      -1.911   1.385   3.828  0.00  0.00    +0.067 C 
ATOM      5  C   UNL     1      -0.404   1.633   3.713  0.00  0.00    +0.003 C 
ATOM      6  C   UNL     1       0.116   0.993   2.424  0.00  0.00    -0.076 C 
ATOM      7  H   UNL     1      -0.440   2.665   1.308  0.00  0.00    -0.081 HD
ENDROOT
BRANCH   4   8
ATOM      8  N   UNL     1      -2.424   2.044   5.031  0.00  0.00    -0.341 N 
ATOM      9  H   UNL     1      -1.894   2.911   5.453  0.00  0.00    +0.146 HD
BRANCH   8  10
ATOM     10  C   UNL     1      -3.590   1.570   5.645  0.00  0.00    +0.028 A 
ATOM     11  C   UNL     1      -4.260   0.471   5.108  0.00  0.00    +0.025 A 
ATOM     12  C   UNL     1      -5.407  -0.007   5.700  0.00  0.00    +0.028 A 
ATOM     13  C   UNL     1      -5.909   0.607   6.843  0.00  0.00    +0.047 A 
ATOM     14  C   UNL     1      -5.236   1.715   7.388  0.00  0.00    +0.002 A 
ATOM     15  C   UNL     1      -4.069   2.190   6.783  0.00  0.00    +0.033 A 
ATOM     16  C   UNL     1      -6.007   2.119   8.565  0.00  0.00    +0.031 A 
ATOM     17  C   UNL     1      -7.048   1.277   8.662  0.00  0.00    +0.022 A 
ATOM     18  N   UNL     1      -7.007   0.366   7.642  0.00  0.00    -0.357 N 
ATOM     19  H   UNL     1      -7.688  -0.464   7.405  0.00  0.00    +0.166 HD
BRANCH  17  20
ATOM     20  C   UNL     1      -8.105   1.327   9.735  0.00  0.00    +0.002 C 
ATOM     21  C   UNL     1      -9.048   0.133   9.579  0.00  0.00    +0.017 C 
ATOM     22  C   UNL     1      -7.438   1.274  11.111  0.00  0.00    +0.017 C 
ATOM     23  C   UNL     1      -8.903   2.627   9.605  0.00  0.00    +0.017 C 
ENDBRANCH  17  20
ENDBRANCH   8  10
ENDBRANCH   4   8
BRANCH   1  24
ATOM     24  C   UNL     1      -0.013   1.086   0.008  0.00  0.00    -0.004 C 
BRANCH  24  36
ATOM     25  C   UNL     1       7.768   1.363  -1.548  0.00  0.00    +0.044 C 
ATOM     26  C   UNL     1       6.265   1.302  -1.453  0.00  0.00    -0.048 A 
ATOM     27  C   UNL     1       5.555   0.437  -2.265  0.00  0.00    +0.005 A 
ATOM     28  C   UNL     1       4.178   0.377  -2.186  0.00  0.00    +0.025 A 
ATOM     29  C   UNL     1       3.500   1.189  -1.285  0.00  0.00    +0.059 A 
ATOM     30  C   UNL     1       4.222   2.055  -0.470  0.00  0.00    +0.134 A 
ATOM     31  C   UNL     1       5.595   2.114  -0.553  0.00  0.00    +0.034 A 
ATOM     32  S   UNL     1       3.337   3.072   0.667  0.00  0.00    +0.102 S 
ATOM     33  O   UNL     1       3.229   4.357   0.071  0.00  0.00    -0.146 OA
ATOM     34  O   UNL     1       3.924   2.867   1.945  0.00  0.00    -0.146 OA
ATOM     35  N   UNL     1       1.804   2.444   0.737  0.00  0.00    -0.120 NA
ATOM     36  C   UNL     1       1.394   1.606  -0.143  0.00  0.00    +0.105 C 
ATOM     37  N   UNL     1       2.113   1.141  -1.194  0.00  0.00    -0.302 N 
ATOM     38  H   UNL     1       1.523   0.704  -2.013  0.00  0.00    +0.153 HD
ENDBRANCH  24  36
ENDBRANCH   1  24
TORSDOF 5
