REMARK  Name = ZINC04002380
REMARK  4 active torsions:
REMARK  status: ('A' for Active; 'I' for Inactive)
REMARK    1  A    between atoms: C_9  and  C_11
REMARK    2  A    between atoms: C_16  and  C_27
REMARK    3  A    between atoms: C_18  and  N_22
REMARK    4  A    between atoms: C_20  and  O_21
REMARK                            x       y       z     vdW  Elec       q    Type
REMARK                         _______ _______ _______ _____ _____    ______ ____
ROOT
ATOM      1  C   UNL     1      -2.759   5.503   0.755  0.00  0.00    +0.025 C 
ATOM      2  C   UNL     1      -1.571   5.526   1.696  0.00  0.00    +0.162 C 
ATOM      3  O   UNL     1      -0.442   5.590   1.269  0.00  0.00    -0.292 OA
ATOM      4  C   UNL     1      -1.838   5.466   3.183  0.00  0.00    +0.090 C 
ATOM      5  C   UNL     1      -2.800   6.595   3.563  0.00  0.00    +0.058 C 
ATOM      6  C   UNL     1      -5.028   5.941   1.939  0.00  0.00    +0.182 C 
ATOM      7  C   UNL     1      -3.778   6.490   1.288  0.00  0.00    +0.124 C 
ENDROOT
BRANCH   1  16
ATOM      8  C   UNL     1      -2.566   7.497  -3.801  0.00  0.00    +0.000 A 
ATOM      9  C   UNL     1      -3.017   7.985  -2.588  0.00  0.00    +0.000 A 
ATOM     10  C   UNL     1      -3.243   7.117  -1.539  0.00  0.00    +0.002 A 
ATOM     11  C   UNL     1      -3.020   5.756  -1.694  0.00  0.00    -0.054 A 
ATOM     12  C   UNL     1      -2.572   5.270  -2.904  0.00  0.00    -0.047 A 
ATOM     13  C   UNL     1      -2.342   6.144  -3.956  0.00  0.00    +0.004 A 
ATOM     14  C   UNL     1      -2.301   3.803  -3.115  0.00  0.00    +0.016 C 
ATOM     15  C   UNL     1      -2.986   2.984  -2.021  0.00  0.00    -0.077 C 
ATOM     16  C   UNL     1      -3.287   4.848  -0.522  0.00  0.00    -0.003 C 
ATOM     17  N   UNL     1      -2.620   3.552  -0.710  0.00  0.00    +0.387 N 
ATOM     18  H   UNL     1      -1.603   3.684  -0.668  0.00  0.00    -0.085 HD
ATOM     19  H   UNL     1      -2.913   2.908   0.034  0.00  0.00    -0.085 HD
ENDBRANCH   1  16
BRANCH   5  20
ATOM     20  C   UNL     1      -3.105   6.520   5.037  0.00  0.00    -0.041 A 
ATOM     21  C   UNL     1      -3.062   5.302   5.689  0.00  0.00    +0.005 A 
ATOM     22  C   UNL     1      -3.336   5.233   7.042  0.00  0.00    +0.020 A 
ATOM     23  C   UNL     1      -3.664   6.381   7.741  0.00  0.00    +0.041 A 
ATOM     24  C   UNL     1      -3.713   7.598   7.086  0.00  0.00    +0.020 A 
ATOM     25  C   UNL     1      -3.433   7.667   5.734  0.00  0.00    +0.005 A 
ATOM     26 CL   UNL     1      -4.015   6.294   9.439  0.00  0.00    -0.084 Cl
ENDBRANCH   5  20
BRANCH   6  27
ATOM     27  N   UNL     1      -5.827   5.224   0.942  0.00  0.00    -0.241 N 
ATOM     28  C   UNL     1      -6.796   5.738   0.165  0.00  0.00    +0.219 A 
ATOM     29  N   UNL     1      -7.263   4.777  -0.590  0.00  0.00    -0.223 NA
ATOM     30  C   UNL     1      -6.626   3.638  -0.319  0.00  0.00    +0.245 A 
ATOM     31  N   UNL     1      -5.737   3.861   0.613  0.00  0.00    -0.158 NA
ENDBRANCH   6  27
BRANCH   7  33
ATOM     32  H   UNL     1      -2.723   7.851   0.741  0.00  0.00    +0.292 HD
ATOM     33  O   UNL     1      -3.597   7.680   1.196  0.00  0.00    -0.509 OA
ENDBRANCH   7  33
TORSDOF 4
