REMARK  Name = ZINC08489549
REMARK  4 active torsions:
REMARK  status: ('A' for Active; 'I' for Inactive)
REMARK    1  A    between atoms: C_1  and  C_2
REMARK    2  A    between atoms: C_2  and  C_4
REMARK    3  A    between atoms: C_2  and  S_15
REMARK    4  A    between atoms: S_15  and  C_16
REMARK                            x       y       z     vdW  Elec       q    Type
REMARK                         _______ _______ _______ _____ _____    ______ ____
ROOT
ATOM      1  C   UNL     1      -3.008   1.169   1.309  0.00  0.00    +0.029 C 
ATOM      2  C   UNL     1      -2.486   1.500  -0.091  0.00  0.00    +0.137 C 
ENDROOT
BRANCH   2   3
ATOM      3  C   UNL     1      -1.132   2.152   0.019  0.00  0.00    +0.233 C 
ATOM      4  O   UNL     1      -1.040   3.361   0.041  0.00  0.00    -0.274 OA
ATOM      5  N   UNL     1      -0.022   1.390   0.093  0.00  0.00    -0.270 N 
ATOM      6  C   UNL     1      -0.011  -0.072   0.188  0.00  0.00    +0.118 C 
ATOM      7  C   UNL     1       1.475  -0.461   0.253  0.00  0.00    +0.056 C 
ATOM      8  C   UNL     1       2.216   0.856   0.188  0.00  0.00    -0.024 A 
ATOM      9  C   UNL     1       1.288   1.881   0.097  0.00  0.00    +0.040 A 
ATOM     10  C   UNL     1       1.739   3.199   0.025  0.00  0.00    +0.024 A 
ATOM     11  C   UNL     1       3.090   3.474   0.044  0.00  0.00    +0.002 A 
ATOM     12  C   UNL     1       4.008   2.444   0.135  0.00  0.00    +0.000 A 
ATOM     13  C   UNL     1       3.569   1.135   0.207  0.00  0.00    +0.005 A 
ENDBRANCH   2   3
BRANCH   2  14
ATOM     14  S   UNL     1      -3.638   2.636  -0.912  0.00  0.00    -0.072 S 
BRANCH  14  15
ATOM     15  C   UNL     1      -5.112   1.688  -1.097  0.00  0.00    +0.211 A 
ATOM     16  N   UNL     1      -6.250   2.120  -1.653  0.00  0.00    -0.188 NA
ATOM     17  C   UNL     1      -7.146   1.157  -1.631  0.00  0.00    +0.209 A 
ATOM     18  N   UNL     1      -6.587   0.080  -1.042  0.00  0.00    -0.246 N 
ATOM     19  H   UNL     1      -7.009  -0.779  -0.882  0.00  0.00    +0.192 HD
ATOM     20  N   UNL     1      -5.274   0.447  -0.706  0.00  0.00    -0.144 NA
ATOM     21  N   UNL     1      -8.437   1.237  -2.120  0.00  0.00    -0.328 N 
ATOM     22  H   UNL     1      -9.029   0.471  -2.055  0.00  0.00    +0.145 HD
ATOM     23  H   UNL     1      -8.751   2.059  -2.529  0.00  0.00    +0.145 HD
ENDBRANCH  14  15
ENDBRANCH   2  14
TORSDOF 3
