REMARK  Name = ZINC15351890
REMARK  13 active torsions:
REMARK  status: ('A' for Active; 'I' for Inactive)
REMARK    1  A    between atoms: C_1  and  C_2
REMARK    2  A    between atoms: C_7  and  O_8
REMARK    3  A    between atoms: O_8  and  C_9
REMARK    4  A    between atoms: C_9  and  C_10
REMARK    5  A    between atoms: C_13  and  S_21
REMARK    6  A    between atoms: N_14  and  C_15
REMARK    7  A    between atoms: S_21  and  C_22
REMARK    8  A    between atoms: C_22  and  C_24
REMARK    9  A    between atoms: C_22  and  C_25
REMARK   10  A    between atoms: N_27  and  C_28
REMARK   11  A    between atoms: C_29  and  C_35
REMARK   12  A    between atoms: N_31  and  C_34
REMARK   13  A    between atoms: C_32  and  C_33
REMARK                            x       y       z     vdW  Elec       q    Type
REMARK                         _______ _______ _______ _____ _____    ______ ____
ROOT
ATOM      1  C   UNL     1      -0.479   1.675  -0.712  0.00  0.00    +0.176 A 
ATOM      2  N   UNL     1      -1.111   2.241   0.278  0.00  0.00    -0.130 NA
ATOM      3  N   UNL     1      -0.893   3.507   0.276  0.00  0.00    -0.122 NA
ATOM      4  C   UNL     1      -0.112   3.825  -0.730  0.00  0.00    +0.197 A 
ATOM      5  N   UNL     1       0.178   2.665  -1.394  0.00  0.00    -0.271 N 
ENDROOT
BRANCH   5   6
ATOM      6  C   UNL     1       0.981   2.519  -2.534  0.00  0.00    +0.050 A 
ATOM      7  C   UNL     1       2.171   1.807  -2.460  0.00  0.00    +0.026 A 
ATOM      8  C   UNL     1       2.958   1.660  -3.586  0.00  0.00    +0.002 A 
ATOM      9  C   UNL     1       2.567   2.231  -4.783  0.00  0.00    +0.000 A 
ATOM     10  C   UNL     1       1.385   2.945  -4.859  0.00  0.00    +0.002 A 
ATOM     11  C   UNL     1       0.592   3.090  -3.738  0.00  0.00    +0.026 A 
ENDBRANCH   5   6
BRANCH   1  12
ATOM     12  C   UNL     1      -0.478   0.206  -1.048  0.00  0.00    +0.305 C 
BRANCH  12  13
ATOM     13  O   UNL     1       0.603  -0.436  -0.371  0.00  0.00    -0.484 OA
BRANCH  13  20
ATOM     14  C   UNL     1       2.735  -1.727   0.959  0.00  0.00    +0.047 C 
ATOM     15  C   UNL     1       1.776  -2.461   0.058  0.00  0.00    -0.009 A 
ATOM     16  C   UNL     1       1.920  -3.821  -0.144  0.00  0.00    +0.007 A 
ATOM     17  C   UNL     1       1.040  -4.495  -0.970  0.00  0.00    +0.000 A 
ATOM     18  C   UNL     1       0.013  -3.812  -1.595  0.00  0.00    +0.004 A 
ATOM     19  C   UNL     1      -0.139  -2.454  -1.392  0.00  0.00    +0.046 A 
ATOM     20  C   UNL     1       0.747  -1.774  -0.568  0.00  0.00    +0.124 A 
ENDBRANCH  13  20
ENDBRANCH  12  13
ENDBRANCH   1  12
BRANCH   4  21
ATOM     21  S   UNL     1       0.457   5.441  -1.146  0.00  0.00    -0.073 S 
BRANCH  21  22
ATOM     22  C   UNL     1      -0.337   6.401   0.167  0.00  0.00    +0.137 C 
ATOM     23  C   UNL     1      -1.857   6.334  -0.000  0.00  0.00    +0.029 C 
BRANCH  22  24
ATOM     24  C   UNL     1       0.115   7.836   0.084  0.00  0.00    +0.230 C 
ATOM     25  O   UNL     1       0.502   8.289  -0.973  0.00  0.00    -0.274 OA
ATOM     26  N   UNL     1       0.090   8.616   1.183  0.00  0.00    -0.282 N 
ATOM     27  H   UNL     1      -0.285   8.275   2.010  0.00  0.00    +0.155 HD
BRANCH  26  28
ATOM     28  C   UNL     1       0.608   9.923   1.130  0.00  0.00    +0.077 A 
ATOM     29  C   UNL     1       1.925  10.277   0.803  0.00  0.00    +0.081 A 
ATOM     30  N   UNL     1       2.027  11.581   0.860  0.00  0.00    -0.175 NA
ATOM     31  N   UNL     1       0.780  12.105   1.225  0.00  0.00    -0.270 N 
ATOM     32  C   UNL     1      -0.080  11.066   1.381  0.00  0.00    +0.057 A 
ATOM     33  C   UNL     1      -1.534  11.165   1.766  0.00  0.00    +0.067 C 
ATOM     34  C   UNL     1       0.461  13.524   1.401  0.00  0.00    +0.172 C 
ATOM     35  C   UNL     1       3.034   9.320   0.448  0.00  0.00    +0.069 C 
ENDBRANCH  26  28
ENDBRANCH  22  24
ENDBRANCH  21  22
ENDBRANCH   4  21
TORSDOF 8
