REMARK  Name = ZINC05763921
REMARK  2 active torsions:
REMARK  status: ('A' for Active; 'I' for Inactive)
REMARK    1  A    between atoms: C_10  and  C_13
REMARK    2  A    between atoms: C_14  and  C_15
REMARK                            x       y       z     vdW  Elec       q    Type
REMARK                         _______ _______ _______ _____ _____    ______ ____
ROOT
ATOM      1  C   UNL     1      -0.029   1.094  -0.261  0.00  0.00    +0.015 C 
ATOM      2  C   UNL     1      -1.245   1.741  -0.266  0.00  0.00    +0.002 C 
ENDROOT
BRANCH   1  12
ATOM      3  C   UNL     1       6.004   2.228  -1.216  0.00  0.00    +0.016 A 
ATOM      4  C   UNL     1       4.929   1.422  -0.915  0.00  0.00    +0.016 A 
ATOM      5  C   UNL     1       3.646   1.967  -0.883  0.00  0.00    +0.065 A 
ATOM      6  C   UNL     1       3.448   3.330  -1.158  0.00  0.00    +0.139 A 
ATOM      7  C   UNL     1       4.546   4.126  -1.461  0.00  0.00    +0.062 A 
ATOM      8  C   UNL     1       5.812   3.575  -1.488  0.00  0.00    +0.021 A 
ATOM      9 BR   UNL     1       7.299   4.668  -1.901  0.00  0.00    -0.050 Br
ATOM     10  O   UNL     1       2.209   3.863  -1.130  0.00  0.00    -0.462 OA
ATOM     11  C   UNL     1       1.113   3.162  -0.853  0.00  0.00    +0.207 A 
ATOM     12  C   UNL     1       1.157   1.811  -0.557  0.00  0.00    +0.057 A 
ATOM     13  C   UNL     1       2.471   1.134  -0.563  0.00  0.00    +0.200 A 
ATOM     14  O   UNL     1       2.578  -0.054  -0.316  0.00  0.00    -0.286 OA
ENDBRANCH   1  12
BRANCH   2  15
ATOM     15  C   UNL     1      -2.410   1.036   0.019  0.00  0.00    +0.018 C 
ATOM     16  C   UNL     1      -3.629   1.715   0.134  0.00  0.00    +0.101 C 
ATOM     17  C   UNL     1      -3.686   3.132   0.151  0.00  0.00    +0.255 C 
ATOM     18  N   UNL     1      -4.866   3.721   0.256  0.00  0.00    -0.262 N 
ATOM     19  C   UNL     1      -5.993   3.026   0.357  0.00  0.00    +0.164 C 
ATOM     20  N   UNL     1      -6.030   1.703   0.355  0.00  0.00    -0.154 NA
ATOM     21  C   UNL     1      -4.905   0.986   0.249  0.00  0.00    +0.274 C 
ATOM     22  O   UNL     1      -4.935  -0.235   0.247  0.00  0.00    -0.268 OA
ATOM     23  S   UNL     1      -7.512   3.907   0.502  0.00  0.00    -0.016 S 
ATOM     24  O   UNL     1      -2.555   3.868   0.056  0.00  0.00    -0.270 OA
ATOM     25  H   UNL     1      -4.934   4.819   0.262  0.00  0.00    +0.157 HD
ENDBRANCH   2  15
TORSDOF 2
