REMARK  Name = ZINC34829349
REMARK  10 active torsions:
REMARK  status: ('A' for Active; 'I' for Inactive)
REMARK    1  A    between atoms: C_1  and  C_2
REMARK    2  A    between atoms: C_6  and  O_8
REMARK    3  A    between atoms: O_8  and  C_9
REMARK    4  A    between atoms: C_9  and  C_10
REMARK    5  A    between atoms: C_16  and  C_17
REMARK    6  A    between atoms: C_19  and  C_31
REMARK    7  A    between atoms: N_20  and  C_23
REMARK    8  A    between atoms: C_21  and  C_22
REMARK    9  A    between atoms: C_26  and  C_30
REMARK   10  A    between atoms: C_27  and  C_29
REMARK                            x       y       z     vdW  Elec       q    Type
REMARK                         _______ _______ _______ _____ _____    ______ ____
ROOT
ATOM      1  C   UNL     1       0.604  -5.198   3.614  0.00  0.00    +0.137 C 
ATOM      2  N   UNL     1       0.601  -4.476   4.697  0.00  0.00    -0.166 NA
ATOM      3  N   UNL     1       0.381  -5.043   5.934  0.00  0.00    -0.152 N 
ATOM      4  C   UNL     1       0.268  -4.343   7.155  0.00  0.00    +0.153 C 
ATOM      5  N   UNL     1      -0.058  -3.080   7.231  0.00  0.00    -0.283 NA
ATOM      6  C   UNL     1       0.556  -5.187   8.348  0.00  0.00    +0.081 C 
ATOM      7  C   UNL     1       1.147  -4.665   9.481  0.00  0.00    +0.026 C 
ATOM      8  C   UNL     1       0.175  -6.616   8.254  0.00  0.00    +0.273 C 
ATOM      9  O   UNL     1      -0.062  -7.270   9.257  0.00  0.00    -0.268 OA
ATOM     10  N   UNL     1       0.096  -7.173   7.028  0.00  0.00    -0.152 NA
ATOM     11  C   UNL     1       0.230  -6.413   5.971  0.00  0.00    +0.181 C 
ATOM     12  S   UNL     1       0.283  -6.838   4.250  0.00  0.00    -0.035 S 
ATOM     13  H   UNL     1      -0.236  -2.575   6.422  0.00  0.00    +0.188 HD
ENDROOT
BRANCH   7  14
ATOM     14  C   UNL     1       1.561  -5.530  10.526  0.00  0.00    -0.003 A 
ATOM     15  C   UNL     1       2.090  -6.895  10.390  0.00  0.00    +0.031 A 
ATOM     16  C   UNL     1       2.349  -7.328  11.635  0.00  0.00    +0.022 A 
ATOM     17  N   UNL     1       2.024  -6.346  12.530  0.00  0.00    -0.317 N 
ATOM     18  C   UNL     1       1.556  -5.259  11.885  0.00  0.00    +0.028 A 
ATOM     19  C   UNL     1       1.103  -3.974  12.529  0.00  0.00    +0.064 C 
ATOM     20  C   UNL     1       2.907  -8.682  11.989  0.00  0.00    +0.064 C 
BRANCH  17  21
ATOM     21  C   UNL     1       2.164  -6.453  13.920  0.00  0.00    +0.047 A 
ATOM     22  C   UNL     1       1.040  -6.439  14.735  0.00  0.00    +0.026 A 
ATOM     23  C   UNL     1       1.181  -6.545  16.105  0.00  0.00    +0.005 A 
ATOM     24  C   UNL     1       2.440  -6.663  16.665  0.00  0.00    -0.047 A 
ATOM     25  C   UNL     1       3.561  -6.676  15.856  0.00  0.00    -0.046 A 
ATOM     26  C   UNL     1       3.426  -6.578  14.485  0.00  0.00    +0.029 A 
ATOM     27  C   UNL     1       4.931  -6.804  16.471  0.00  0.00    +0.044 C 
ATOM     28  C   UNL     1       2.590  -6.777  18.160  0.00  0.00    +0.044 C 
ENDBRANCH  17  21
ENDBRANCH   7  14
BRANCH   1  29
ATOM     29  C   UNL     1       0.817  -4.762   2.187  0.00  0.00    +0.293 C 
BRANCH  29  30
ATOM     30  O   UNL     1       1.041  -3.351   2.148  0.00  0.00    -0.485 OA
BRANCH  30  36
ATOM     31  C   UNL     1       1.933   0.619  -0.547  0.00  0.00    +0.044 C 
ATOM     32  C   UNL     1       1.690  -0.864  -0.426  0.00  0.00    -0.047 A 
ATOM     33  C   UNL     1       1.681  -1.657  -1.558  0.00  0.00    +0.003 A 
ATOM     34  C   UNL     1       1.459  -3.017  -1.450  0.00  0.00    +0.004 A 
ATOM     35  C   UNL     1       1.244  -3.587  -0.210  0.00  0.00    +0.045 A 
ATOM     36  C   UNL     1       1.252  -2.793   0.927  0.00  0.00    +0.121 A 
ATOM     37  C   UNL     1       1.482  -1.429   0.817  0.00  0.00    +0.049 A 
ENDBRANCH  30  36
ENDBRANCH  29  30
ENDBRANCH   1  29
TORSDOF 5
