REMARK  Name = ZINC39984848
REMARK  6 active torsions:
REMARK  status: ('A' for Active; 'I' for Inactive)
REMARK    1  A    between atoms: C_1  and  C_2
REMARK    2  A    between atoms: C_3  and  C_14
REMARK    3  A    between atoms: C_6  and  C_8
REMARK    4  A    between atoms: N_16  and  N_17
REMARK    5  A    between atoms: C_18  and  C_19
REMARK    6  A    between atoms: C_24  and  O_25
REMARK                            x       y       z     vdW  Elec       q    Type
REMARK                         _______ _______ _______ _____ _____    ______ ____
ROOT
ATOM      1  C   UNL     1      -0.003  -0.391  -2.476  0.00  0.00    +0.283 C 
ATOM      2  O   UNL     1      -0.020   0.796  -2.741  0.00  0.00    -0.267 OA
ATOM      3  N   UNL     1       0.006  -1.303  -3.468  0.00  0.00    -0.202 N 
ATOM      4  H   UNL     1       0.020  -2.250  -3.256  0.00  0.00    +0.178 HD
ENDROOT
BRANCH   1   7
ATOM      5  C   UNL     1      -0.018   1.503   0.010  0.00  0.00    +0.044 C 
ATOM      6  C   UNL     1       0.002  -0.004   0.002  0.00  0.00    -0.013 C 
ATOM      7  C   UNL     1       0.009  -0.832  -1.066  0.00  0.00    +0.148 C 
ATOM      8  N   UNL     1       0.028  -2.129  -0.658  0.00  0.00    -0.173 NA
ATOM      9  N   UNL     1       0.035  -2.279   0.565  0.00  0.00    -0.297 N 
ATOM     10  C   UNL     1       0.026  -0.947   1.192  0.00  0.00    +0.157 C 
ATOM     11  H   UNL     1       0.049  -3.128   1.034  0.00  0.00    +0.183 HD
BRANCH  10  12
ATOM     12  C   UNL     1      -1.208  -0.768   2.037  0.00  0.00    -0.020 A 
ATOM     13  C   UNL     1      -2.397  -1.364   1.659  0.00  0.00    +0.006 A 
ATOM     14  C   UNL     1      -3.530  -1.200   2.435  0.00  0.00    +0.000 A 
ATOM     15  C   UNL     1      -3.473  -0.441   3.589  0.00  0.00    +0.000 A 
ATOM     16  C   UNL     1      -2.284   0.154   3.967  0.00  0.00    +0.000 A 
ATOM     17  C   UNL     1      -1.151  -0.013   3.194  0.00  0.00    +0.006 A 
ENDBRANCH  10  12
ENDBRANCH   1   7
BRANCH   3  18
ATOM     18  N   UNL     1      -0.005  -0.885  -4.805  0.00  0.00    -0.187 NA
ATOM     19  C   UNL     1       0.003  -1.764  -5.760  0.00  0.00    +0.142 C 
BRANCH  19  20
ATOM     20  C   UNL     1      -0.009  -1.324  -7.166  0.00  0.00    +0.037 A 
ATOM     21  C   UNL     1      -0.006  -2.266  -8.197  0.00  0.00    +0.028 A 
ATOM     22  C   UNL     1      -0.018  -1.847  -9.512  0.00  0.00    +0.019 A 
ATOM     23  C   UNL     1      -0.032  -0.495  -9.813  0.00  0.00    +0.019 A 
ATOM     24  C   UNL     1      -0.035   0.447  -8.802  0.00  0.00    +0.047 A 
ATOM     25  C   UNL     1      -0.029   0.043  -7.477  0.00  0.00    +0.126 A 
ATOM     26 BR   UNL     1      -0.014  -3.124 -10.907  0.00  0.00    -0.050 Br
BRANCH  25  27
ATOM     27  O   UNL     1      -0.037   0.968  -6.482  0.00  0.00    -0.506 OA
ATOM     28  H   UNL     1       0.843   1.248  -6.198  0.00  0.00    +0.292 HD
ENDBRANCH  25  27
ENDBRANCH  19  20
ENDBRANCH   3  18
TORSDOF 5
