REMARK  Name = ZINC06301487
REMARK  10 active torsions:
REMARK  status: ('A' for Active; 'I' for Inactive)
REMARK    1  A    between atoms: C_1  and  C_2
REMARK    2  A    between atoms: C_4  and  C_35
REMARK    3  A    between atoms: C_7  and  C_14
REMARK    4  A    between atoms: C_14  and  N_64
REMARK    5  A    between atoms: C_15  and  C_16
REMARK    6  A    between atoms: C_15  and  N_64
REMARK    7  A    between atoms: C_22  and  C_23
REMARK    8  A    between atoms: C_22  and  N_64
REMARK    9  A    between atoms: N_27  and  C_28
REMARK   10  A    between atoms: C_28  and  C_29
REMARK                            x       y       z     vdW  Elec       q    Type
REMARK                         _______ _______ _______ _____ _____    ______ ____
ROOT
ATOM      1  N   UNL     1       1.385   1.763   0.080  0.00  0.00    +0.390 N 
ATOM      2  H   UNL     1       1.992   1.240   0.723  0.00  0.00    -0.080 HD
ENDROOT
BRANCH   1   3
ATOM      3  C   UNL     1       1.245   3.149   0.574  0.00  0.00    -0.036 C 
BRANCH   3  10
ATOM      4  C   UNL     1       1.290   3.067   8.550  0.00  0.00    +0.044 C 
ATOM      5  C   UNL     1       1.513   3.108   7.060  0.00  0.00    -0.048 A 
ATOM      6  C   UNL     1       2.800   3.257   6.562  0.00  0.00    +0.007 A 
ATOM      7  C   UNL     1       3.024   3.297   5.215  0.00  0.00    -0.041 A 
ATOM      8  C   UNL     1       1.947   3.186   4.329  0.00  0.00    +0.002 A 
ATOM      9  C   UNL     1       2.151   3.225   2.880  0.00  0.00    +0.017 A 
ATOM     10  C   UNL     1       1.069   3.113   2.070  0.00  0.00    +0.001 A 
ATOM     11  C   UNL     1      -0.221   2.969   2.624  0.00  0.00    +0.251 A 
ATOM     12  O   UNL     1      -1.180   2.875   1.878  0.00  0.00    -0.268 OA
ATOM     13  N   UNL     1      -0.418   2.927   3.953  0.00  0.00    -0.322 N 
ATOM     14  H   UNL     1      -1.317   2.823   4.300  0.00  0.00    +0.169 HD
ATOM     15  C   UNL     1       0.640   3.035   4.830  0.00  0.00    +0.050 A 
ATOM     16  C   UNL     1       0.437   2.997   6.206  0.00  0.00    +0.029 A 
ATOM     17  C   UNL     1       4.426   3.459   4.686  0.00  0.00    +0.044 C 
ENDBRANCH   3  10
ENDBRANCH   1   3
BRANCH   1  18
ATOM     18  C   UNL     1       1.999   1.765  -1.264  0.00  0.00    -0.042 C 
BRANCH  18  19
ATOM     19  C   UNL     1       3.463   2.095  -1.128  0.00  0.00    -0.064 A 
ATOM     20  C   UNL     1       3.899   3.393  -1.314  0.00  0.00    +0.002 A 
ATOM     21  C   UNL     1       5.242   3.697  -1.183  0.00  0.00    +0.000 A 
ATOM     22  C   UNL     1       6.149   2.700  -0.878  0.00  0.00    +0.000 A 
ATOM     23  C   UNL     1       5.713   1.400  -0.698  0.00  0.00    +0.000 A 
ATOM     24  C   UNL     1       4.370   1.098  -0.823  0.00  0.00    +0.002 A 
ENDBRANCH  18  19
ENDBRANCH   1  18
BRANCH   1  25
ATOM     25  C   UNL     1       0.061   1.108   0.030  0.00  0.00    +0.001 C 
BRANCH  25  26
ATOM     26  C   UNL     1       0.255  -0.358  -0.261  0.00  0.00    +0.135 A 
ATOM     27  N   UNL     1       0.275  -0.925  -1.443  0.00  0.00    -0.115 NA
ATOM     28  N   UNL     1       0.466  -2.188  -1.275  0.00  0.00    -0.023 NA
ATOM     29  N   UNL     1       0.560  -2.443  -0.016  0.00  0.00    -0.044 NA
ATOM     30  N   UNL     1       0.435  -1.340   0.642  0.00  0.00    -0.229 N 
BRANCH  30  31
ATOM     31  C   UNL     1       0.481  -1.186   2.098  0.00  0.00    +0.178 C 
BRANCH  31  32
ATOM     32  C   UNL     1      -0.930  -1.334   2.670  0.00  0.00    +0.140 C 
ATOM     33  C   UNL     1      -0.911  -1.059   4.189  0.00  0.00    +0.035 C 
ATOM     34  C   UNL     1      -1.902  -2.125   4.730  0.00  0.00    +0.031 C 
ATOM     35  C   UNL     1      -1.636  -3.297   3.752  0.00  0.00    +0.160 C 
ATOM     36  O   UNL     1      -1.395  -2.675   2.479  0.00  0.00    -0.375 OA
ENDBRANCH  31  32
ENDBRANCH  30  31
ENDBRANCH  25  26
ENDBRANCH   1  25
TORSDOF 8
