REMARK  Name = ZINC22417329
REMARK  8 active torsions:
REMARK  status: ('A' for Active; 'I' for Inactive)
REMARK    1  A    between atoms: C_1  and  C_2
REMARK    2  A    between atoms: C_4  and  C_9
REMARK    3  A    between atoms: C_5  and  C_8
REMARK    4  A    between atoms: C_9  and  C_11
REMARK    5  A    between atoms: C_11  and  S_12
REMARK    6  A    between atoms: S_12  and  C_13
REMARK    7  A    between atoms: N_23  and  C_24
REMARK    8  A    between atoms: C_27  and  C_30
REMARK                            x       y       z     vdW  Elec       q    Type
REMARK                         _______ _______ _______ _____ _____    ______ ____
ROOT
ATOM      1  C   UNL     1      -1.016  -2.041  -0.499  0.00  0.00    +0.177 A 
ATOM      2  N   UNL     1      -1.029  -0.731  -0.523  0.00  0.00    -0.223 NA
ATOM      3  C   UNL     1       0.015  -0.004  -0.062  0.00  0.00    +0.079 A 
ATOM      4  C   UNL     1       0.004   1.393  -0.087  0.00  0.00    +0.028 A 
ATOM      5  C   UNL     1       1.080   2.087   0.389  0.00  0.00    +0.002 A 
ATOM      6  C   UNL     1       2.188   1.425   0.901  0.00  0.00    +0.001 A 
ATOM      7  C   UNL     1       2.230   0.058   0.938  0.00  0.00    +0.015 A 
ATOM      8  C   UNL     1       1.146  -0.675   0.458  0.00  0.00    +0.065 A 
ATOM      9  C   UNL     1       1.135  -2.144   0.474  0.00  0.00    +0.267 A 
ATOM     10  O   UNL     1       2.079  -2.778   0.909  0.00  0.00    -0.267 OA
ATOM     11  N   UNL     1       0.037  -2.767  -0.014  0.00  0.00    -0.255 N 
ENDROOT
BRANCH  11  12
ATOM     12  C   UNL     1      -0.022  -4.164  -0.021  0.00  0.00    +0.052 A 
ATOM     13  C   UNL     1       0.442  -4.872  -1.125  0.00  0.00    +0.027 A 
ATOM     14  C   UNL     1       0.391  -6.248  -1.133  0.00  0.00    +0.021 A 
ATOM     15  C   UNL     1      -0.139  -6.933  -0.036  0.00  0.00    +0.052 A 
ATOM     16  C   UNL     1      -0.610  -6.217   1.068  0.00  0.00    +0.021 A 
ATOM     17  C   UNL     1      -0.550  -4.841   1.072  0.00  0.00    +0.027 A 
BRANCH  15  18
ATOM     18  C   UNL     1      -0.200  -8.363  -0.044  0.00  0.00    +0.099 C 
ATOM     19  N   UNL     1      -0.249  -9.498  -0.050  0.00  0.00    -0.191 NA
ENDBRANCH  15  18
ENDBRANCH  11  12
BRANCH   1  20
ATOM     20  S   UNL     1      -2.419  -2.907  -1.121  0.00  0.00    -0.079 S 
BRANCH  20  21
ATOM     21  C   UNL     1      -3.460  -1.509  -1.610  0.00  0.00    +0.157 C 
BRANCH  21  22
ATOM     22  C   UNL     1      -4.753  -2.024  -2.186  0.00  0.00    +0.175 C 
ATOM     23  O   UNL     1      -4.952  -3.219  -2.260  0.00  0.00    -0.291 OA
BRANCH  22  27
ATOM     24  C   UNL     1      -7.220   2.277  -3.359  0.00  0.00    +0.063 C 
ATOM     25  C   UNL     1      -6.847   0.830  -3.171  0.00  0.00    +0.014 A 
ATOM     26  C   UNL     1      -5.694   0.385  -2.644  0.00  0.00    +0.034 A 
ATOM     27  C   UNL     1      -5.771  -1.082  -2.658  0.00  0.00    +0.039 A 
ATOM     28  C   UNL     1      -6.998  -1.391  -3.214  0.00  0.00    +0.024 A 
ATOM     29  N   UNL     1      -7.627  -0.239  -3.507  0.00  0.00    -0.362 N 
ATOM     30  H   UNL     1      -8.620  -0.076  -3.952  0.00  0.00    +0.165 HD
ATOM     31  C   UNL     1      -7.539  -2.778  -3.447  0.00  0.00    +0.064 C 
ENDBRANCH  22  27
ENDBRANCH  21  22
ENDBRANCH  20  21
ENDBRANCH   1  20
TORSDOF 6
