REMARK  Name = ZINC02776961
REMARK  9 active torsions:
REMARK  status: ('A' for Active; 'I' for Inactive)
REMARK    1  A    between atoms: C_1  and  C_2
REMARK    2  A    between atoms: C_4  and  C_8
REMARK    3  A    between atoms: N_6  and  C_7
REMARK    4  A    between atoms: N_10  and  N_11
REMARK    5  A    between atoms: C_12  and  C_30
REMARK    6  A    between atoms: C_22  and  C_26
REMARK    7  A    between atoms: C_26  and  C_27
REMARK    8  A    between atoms: C_26  and  C_28
REMARK    9  A    between atoms: C_26  and  C_29
REMARK                            x       y       z     vdW  Elec       q    Type
REMARK                         _______ _______ _______ _____ _____    ______ ____
ROOT
ATOM      1  N   UNL     1       5.537  -0.765  -0.055  0.00  0.00    -0.209 N 
ATOM      2  C   UNL     1       6.196  -1.113   1.080  0.00  0.00    +0.129 A 
ATOM      3  N   UNL     1       7.499  -1.194   1.107  0.00  0.00    -0.225 NA
ATOM      4  C   UNL     1       8.223  -0.937   0.021  0.00  0.00    +0.116 A 
ATOM      5  C   UNL     1       7.632  -0.569  -1.198  0.00  0.00    +0.077 A 
ATOM      6  C   UNL     1       6.200  -0.496  -1.195  0.00  0.00    +0.280 A 
ATOM      7  O   UNL     1       5.594  -0.190  -2.208  0.00  0.00    -0.265 OA
ATOM      8  C   UNL     1       8.553  -0.317  -2.305  0.00  0.00    -0.023 A 
ATOM      9  C   UNL     1       9.870  -0.460  -2.050  0.00  0.00    -0.004 A 
ATOM     10  S   UNL     1       9.960  -0.935  -0.345  0.00  0.00    -0.073 S 
ATOM     11  C   UNL     1      11.007  -0.261  -3.006  0.00  0.00    +0.046 C 
ATOM     12  C   UNL     1      10.479   0.497  -4.234  0.00  0.00    -0.000 C 
ATOM     13  C   UNL     1       9.184  -0.171  -4.704  0.00  0.00    +0.009 C 
ATOM     14  C   UNL     1       8.067   0.092  -3.693  0.00  0.00    +0.037 C 
ATOM     15  C   UNL     1       5.409  -1.411   2.330  0.00  0.00    +0.088 C 
ENDROOT
BRANCH   1  18
ATOM     16  C   UNL     1       3.527   0.510  -0.029  0.00  0.00    +0.284 C 
ATOM     17  O   UNL     1       4.190   1.529  -0.029  0.00  0.00    -0.267 OA
ATOM     18  N   UNL     1       4.138  -0.692  -0.042  0.00  0.00    -0.213 N 
ATOM     19  H   UNL     1       3.610  -1.505  -0.041  0.00  0.00    +0.176 HD
BRANCH  16  23
ATOM     20  C   UNL     1      -1.241   2.231   0.020  0.00  0.00    +0.067 C 
ATOM     21  C   UNL     1      -0.016   1.352   0.009  0.00  0.00    +0.055 A 
ATOM     22  C   UNL     1       1.273   1.769  -0.001  0.00  0.00    +0.094 A 
ATOM     23  C   UNL     1       2.052   0.588  -0.014  0.00  0.00    +0.167 A 
ATOM     24  N   UNL     1       1.214  -0.430  -0.012  0.00  0.00    -0.165 NA
ATOM     25  N   UNL     1       0.002  -0.004   0.002  0.00  0.00    -0.269 N 
ATOM     26  C   UNL     1      -1.187  -0.859   0.008  0.00  0.00    +0.172 C 
ATOM     27 CL   UNL     1       1.847   3.407   0.002  0.00  0.00    -0.079 Cl
ENDBRANCH  16  23
ENDBRANCH   1  18
BRANCH  12  28
ATOM     28  C   UNL     1      11.520   0.445  -5.355  0.00  0.00    -0.035 C 
ATOM     29  C   UNL     1      11.789  -1.012  -5.734  0.00  0.00    +0.011 C 
ATOM     30  C   UNL     1      10.991   1.200  -6.576  0.00  0.00    +0.011 C 
ATOM     31  C   UNL     1      12.819   1.096  -4.875  0.00  0.00    +0.011 C 
ENDBRANCH  12  28
TORSDOF 3
