REMARK  Name = ZINC33924106
REMARK  11 active torsions:
REMARK  status: ('A' for Active; 'I' for Inactive)
REMARK    1  A    between atoms: C_1  and  C_2
REMARK    2  A    between atoms: C_2  and  C_4
REMARK    3  A    between atoms: C_10  and  C_40
REMARK    4  A    between atoms: C_20  and  C_39
REMARK    5  A    between atoms: C_23  and  O_26
REMARK    6  A    between atoms: O_26  and  C_27
REMARK    7  A    between atoms: C_27  and  C_29
REMARK    8  A    between atoms: C_29  and  C_30
REMARK    9  A    between atoms: C_30  and  N_31
REMARK   10  A    between atoms: C_35  and  C_37
REMARK   11  A    between atoms: C_35  and  C_38
REMARK                            x       y       z     vdW  Elec       q    Type
REMARK                         _______ _______ _______ _____ _____    ______ ____
ROOT
ATOM      1  C   UNL     1      -1.273  -0.994  -0.081  0.00  0.00    +0.061 C 
ATOM      2  C   UNL     1      -1.825  -1.187  -1.512  0.00  0.00    +0.012 C 
ATOM      3  C   UNL     1      -2.513  -2.564  -1.535  0.00  0.00    +0.005 C 
ATOM      4  C   UNL     1      -2.390  -3.137  -0.097  0.00  0.00    -0.001 C 
ATOM      5  C   UNL     1      -1.138  -2.433   0.451  0.00  0.00    -0.019 C 
ATOM      6  C   UNL     1      -1.029  -2.490   1.956  0.00  0.00    +0.008 C 
ATOM      7  C   UNL     1      -2.303  -1.968   2.615  0.00  0.00    +0.005 C 
ATOM      8  C   UNL     1      -3.483  -2.841   2.166  0.00  0.00    +0.003 C 
ATOM      9  C   UNL     1      -3.664  -2.721   0.646  0.00  0.00    +0.000 C 
ATOM     10  C   UNL     1      -4.795  -3.655   0.191  0.00  0.00    +0.031 C 
ATOM     11  C   UNL     1      -6.027  -3.411   1.008  0.00  0.00    -0.027 C 
ATOM     12  C   UNL     1      -6.013  -2.860   2.179  0.00  0.00    -0.064 C 
ATOM     13  C   UNL     1      -4.736  -2.353   2.883  0.00  0.00    -0.008 C 
ATOM     14  C   UNL     1      -4.741  -0.832   3.007  0.00  0.00    +0.015 C 
ATOM     15  C   UNL     1      -6.178  -0.316   3.073  0.00  0.00    +0.046 C 
ATOM     16  C   UNL     1      -7.083  -1.301   3.812  0.00  0.00    +0.180 C 
ATOM     17  C   UNL     1      -7.320  -2.631   2.920  0.00  0.00    +0.075 C 
ATOM     18  C   UNL     1      -4.733  -2.932   4.300  0.00  0.00    +0.016 C 
ATOM     19  C   UNL     1       0.108  -3.080  -0.158  0.00  0.00    +0.012 C 
ENDROOT
BRANCH   1  21
ATOM     20  C   UNL     1       0.569   0.436   1.092  0.00  0.00    +0.086 C 
ATOM     21  C   UNL     1       0.071  -0.313  -0.117  0.00  0.00    +0.134 C 
ATOM     22  O   UNL     1       0.749  -0.368  -1.114  0.00  0.00    -0.297 OA
ENDBRANCH   1  21
BRANCH  16  23
ATOM     23  O   UNL     1      -6.468  -1.679   5.045  0.00  0.00    -0.461 OA
BRANCH  23  24
ATOM     24  C   UNL     1      -7.285  -1.995   6.061  0.00  0.00    +0.306 C 
ATOM     25  O   UNL     1      -8.483  -1.953   5.909  0.00  0.00    -0.251 OA
BRANCH  24  26
ATOM     26  C   UNL     1      -6.708  -2.404   7.393  0.00  0.00    +0.102 C 
BRANCH  26  27
ATOM     27  C   UNL     1      -7.846  -2.709   8.369  0.00  0.00    -0.068 C 
BRANCH  27  28
ATOM     28  N   UNL     1      -7.284  -3.107   9.666  0.00  0.00    +0.380 N 
ATOM     29  C   UNL     1      -6.545  -4.366   9.512  0.00  0.00    -0.079 C 
ATOM     30  C   UNL     1      -5.890  -4.743  10.843  0.00  0.00    -0.018 C 
ATOM     31  C   UNL     1      -6.975  -4.914  11.910  0.00  0.00    +0.003 C 
ATOM     32  C   UNL     1      -7.787  -3.619  12.009  0.00  0.00    -0.050 C 
ATOM     33  C   UNL     1      -8.372  -3.284  10.636  0.00  0.00    -0.072 C 
ATOM     34  C   UNL     1      -8.924  -3.805  13.017  0.00  0.00    +0.009 C 
ATOM     35  C   UNL     1      -6.877  -2.479  12.469  0.00  0.00    +0.009 C 
ATOM     36  H   UNL     1      -6.656  -2.389   9.995  0.00  0.00    -0.082 HD
ENDBRANCH  27  28
ENDBRANCH  26  27
ENDBRANCH  24  26
ENDBRANCH  23  24
ENDBRANCH  16  23
TORSDOF 6
