REMARK  Name = ZINC39459359
REMARK  7 active torsions:
REMARK  status: ('A' for Active; 'I' for Inactive)
REMARK    1  A    between atoms: C_1  and  C_2
REMARK    2  A    between atoms: C_3  and  O_34
REMARK    3  A    between atoms: N_6  and  C_7
REMARK    4  A    between atoms: C_12  and  O_13
REMARK    5  A    between atoms: C_16  and  S_20
REMARK    6  A    between atoms: S_20  and  O_23
REMARK    7  A    between atoms: O_23  and  C_24
REMARK                            x       y       z     vdW  Elec       q    Type
REMARK                         _______ _______ _______ _____ _____    ______ ____
ROOT
ATOM      1  C   UNL     1      -0.977   1.132  -0.264  0.00  0.00    +0.068 C 
ATOM      2  C   UNL     1      -0.786  -0.362  -0.211  0.00  0.00    +0.063 A 
ATOM      3  C   UNL     1      -0.720  -1.190  -1.286  0.00  0.00    +0.141 A 
ATOM      4  C   UNL     1      -0.533  -2.491  -0.810  0.00  0.00    +0.022 A 
ATOM      5  C   UNL     1      -0.482  -2.415   0.570  0.00  0.00    +0.080 A 
ATOM      6  N   UNL     1      -0.644  -1.107   0.928  0.00  0.00    -0.305 N 
ATOM      7  C   UNL     1      -0.258  -3.596   1.420  0.00  0.00    +0.100 A 
ATOM      8  C   UNL     1       0.768  -4.488   1.014  0.00  0.00    +0.073 A 
ATOM      9  C   UNL     1       0.988  -5.647   1.758  0.00  0.00    +0.142 A 
ATOM     10  C   UNL     1       0.204  -5.856   2.881  0.00  0.00    +0.051 A 
ATOM     11  C   UNL     1      -0.762  -4.925   3.230  0.00  0.00    +0.113 A 
ATOM     12  N   UNL     1      -0.968  -3.840   2.507  0.00  0.00    -0.253 NA
ATOM     13  C   UNL     1       1.572  -4.144  -0.156  0.00  0.00    +0.168 C 
ATOM     14  O   UNL     1       2.703  -3.733   0.002  0.00  0.00    -0.292 OA
ATOM     15  C   UNL     1       1.028  -4.289  -1.559  0.00  0.00    +0.084 C 
ATOM     16  C   UNL     1      -0.416  -3.767  -1.595  0.00  0.00    +0.049 C 
ENDROOT
BRANCH   6  17
ATOM     17  C   UNL     1      -0.666  -0.613   2.240  0.00  0.00    +0.089 A 
ATOM     18  C   UNL     1      -1.864  -0.535   2.934  0.00  0.00    +0.030 A 
ATOM     19  C   UNL     1      -1.883  -0.047   4.227  0.00  0.00    +0.002 A 
ATOM     20  C   UNL     1      -0.709   0.364   4.832  0.00  0.00    +0.004 A 
ATOM     21  C   UNL     1       0.489   0.289   4.146  0.00  0.00    +0.047 A 
ATOM     22  C   UNL     1       0.517  -0.203   2.851  0.00  0.00    +0.141 A 
BRANCH  22  23
ATOM     23  O   UNL     1       1.695  -0.282   2.177  0.00  0.00    -0.505 OA
ATOM     24  H   UNL     1       1.913   0.513   1.672  0.00  0.00    +0.292 HD
ENDBRANCH  22  23
ENDBRANCH   6  17
BRANCH   9  25
ATOM     25  S   UNL     1       2.226  -6.809   1.286  0.00  0.00    +0.152 S 
ATOM     26  O   UNL     1       1.573  -7.804   0.508  0.00  0.00    -0.131 OA
ATOM     27  O   UNL     1       3.324  -6.055   0.792  0.00  0.00    -0.131 OA
BRANCH  25  28
ATOM     28  O   UNL     1       2.706  -7.496   2.556  0.00  0.00    -0.342 OA
BRANCH  28  29
ATOM     29  C   UNL     1       3.533  -6.733   3.318  0.00  0.00    +0.157 A 
ATOM     30  C   UNL     1       4.892  -6.691   3.041  0.00  0.00    +0.048 A 
ATOM     31  C   UNL     1       5.731  -5.914   3.816  0.00  0.00    +0.004 A 
ATOM     32  C   UNL     1       5.217  -5.179   4.869  0.00  0.00    +0.000 A 
ATOM     33  C   UNL     1       3.863  -5.220   5.148  0.00  0.00    +0.004 A 
ATOM     34  C   UNL     1       3.020  -5.991   4.371  0.00  0.00    +0.048 A 
ENDBRANCH  28  29
ENDBRANCH  25  28
ENDBRANCH   9  25
BRANCH   3  35
ATOM     35  O   UNL     1      -0.817  -0.820  -2.593  0.00  0.00    -0.505 OA
ATOM     36  H   UNL     1       0.030  -0.600  -3.003  0.00  0.00    +0.292 HD
ENDBRANCH   3  35
TORSDOF 6
