REMARK  Name = ZINC16951674
REMARK  2 active torsions:
REMARK  status: ('A' for Active; 'I' for Inactive)
REMARK    1  A    between atoms: C_12  and  C_18
REMARK    2  A    between atoms: C_14  and  C_16
REMARK                            x       y       z     vdW  Elec       q    Type
REMARK                         _______ _______ _______ _____ _____    ______ ____
ROOT
ATOM      1  C   UNL     1       0.039   1.413   0.131  0.00  0.00    +0.001 C 
ATOM      2  C   UNL     1       0.111  -0.131   0.127  0.00  0.00    +0.001 C 
ATOM      3  C   UNL     1       1.469  -0.508  -0.506  0.00  0.00    +0.008 C 
ATOM      4  C   UNL     1       2.162   0.806  -0.801  0.00  0.00    -0.015 C 
ATOM      5  C   UNL     1       1.523   1.873   0.074  0.00  0.00    +0.008 C 
ATOM      6  C   UNL     1       2.175   1.178  -2.305  0.00  0.00    +0.033 C 
ATOM      7  C   UNL     1       3.152   0.109  -2.825  0.00  0.00    -0.026 C 
ATOM      8  C   UNL     1       4.035  -0.142  -1.875  0.00  0.00    -0.026 C 
ATOM      9  C   UNL     1       3.702   0.743  -0.661  0.00  0.00    +0.033 C 
ATOM     10  C   UNL     1       4.089   2.180  -1.151  0.00  0.00    +0.124 C 
ATOM     11  C   UNL     1       3.052   2.475  -2.266  0.00  0.00    +0.124 C 
ENDROOT
BRANCH  11  12
ATOM     12  C   UNL     1       3.739   2.691  -3.589  0.00  0.00    +0.360 C 
ATOM     13  O   UNL     1       3.568   1.908  -4.494  0.00  0.00    -0.246 OA
ATOM     14  O   UNL     1       4.541   3.753  -3.764  0.00  0.00    -0.246 OA
ENDBRANCH  11  12
BRANCH  10  15
ATOM     15  C   UNL     1       3.957   3.176  -0.027  0.00  0.00    +0.360 C 
ATOM     16  O   UNL     1       3.304   4.180  -0.183  0.00  0.00    -0.246 OA
ATOM     17  O   UNL     1       4.566   2.947   1.147  0.00  0.00    -0.246 OA
ENDBRANCH  10  15
TORSDOF 2
