REMARK  Name = ZINC66481559
REMARK  7 active torsions:
REMARK  status: ('A' for Active; 'I' for Inactive)
REMARK    1  A    between atoms: C_1  and  O_2
REMARK    2  A    between atoms: O_2  and  C_3
REMARK    3  A    between atoms: C_6  and  C_9
REMARK    4  A    between atoms: C_12  and  S_15
REMARK    5  A    between atoms: S_15  and  C_16
REMARK    6  A    between atoms: C_16  and  C_17
REMARK    7  A    between atoms: C_17  and  O_23
REMARK                            x       y       z     vdW  Elec       q    Type
REMARK                         _______ _______ _______ _____ _____    ______ ____
ROOT
ATOM      1  C   UNL     1       2.495  -2.494  -4.366  0.00  0.00    +0.182 A 
ATOM      2  N   UNL     1       2.607  -3.818  -4.550  0.00  0.00    -0.201 NA
ATOM      3  H   UNL     1       4.032  -2.728  -7.073  0.00  0.00    +0.191 HD
ATOM      4  C   UNL     1       3.246  -4.056  -5.674  0.00  0.00    +0.185 A 
ATOM      5  N   UNL     1       3.558  -2.868  -6.238  0.00  0.00    -0.253 N 
ATOM      6  N   UNL     1       3.059  -1.876  -5.379  0.00  0.00    -0.152 NA
ENDROOT
BRANCH   1  10
ATOM      7  C   UNL     1       0.606  -0.607  -1.056  0.00  0.00    +0.120 A 
ATOM      8  C   UNL     1       1.173   0.164  -2.062  0.00  0.00    +0.046 A 
ATOM      9  C   UNL     1       1.786  -0.445  -3.136  0.00  0.00    +0.015 A 
ATOM     10  C   UNL     1       1.837  -1.836  -3.211  0.00  0.00    +0.021 A 
ATOM     11  C   UNL     1       1.267  -2.607  -2.200  0.00  0.00    +0.015 A 
ATOM     12  C   UNL     1       0.659  -1.992  -1.125  0.00  0.00    +0.046 A 
BRANCH   7  14
ATOM     13  C   UNL     1      -0.017   1.425   0.010  0.00  0.00    +0.277 C 
ATOM     14  O   UNL     1       0.002  -0.004   0.002  0.00  0.00    -0.495 OA
ENDBRANCH   7  14
ENDBRANCH   1  10
BRANCH   4  15
ATOM     15  S   UNL     1       3.628  -5.646  -6.331  0.00  0.00    -0.084 S 
BRANCH  15  16
ATOM     16  C   UNL     1       2.944  -6.801  -5.112  0.00  0.00    +0.112 C 
BRANCH  16  17
ATOM     17  C   UNL     1       3.210  -8.238  -5.565  0.00  0.00    +0.075 C 
ATOM     18  C   UNL     1       4.708  -8.426  -5.809  0.00  0.00    +0.035 C 
ATOM     19  C   UNL     1       4.974  -9.863  -6.263  0.00  0.00    +0.003 C 
ATOM     20  C   UNL     1       4.508 -10.835  -5.176  0.00  0.00    +0.000 C 
ATOM     21  C   UNL     1       3.010 -10.646  -4.932  0.00  0.00    +0.003 C 
ATOM     22  C   UNL     1       2.744  -9.210  -4.479  0.00  0.00    +0.035 C 
BRANCH  17  23
ATOM     23  O   UNL     1       2.493  -8.496  -6.774  0.00  0.00    -0.388 OA
ATOM     24  H   UNL     1       2.738  -7.916  -7.508  0.00  0.00    +0.210 HD
ENDBRANCH  17  23
ENDBRANCH  16  17
ENDBRANCH  15  16
ENDBRANCH   4  15
TORSDOF 6
