REMARK  Name = ZINC64790086
REMARK  10 active torsions:
REMARK  status: ('A' for Active; 'I' for Inactive)
REMARK    1  A    between atoms: C_1  and  C_2
REMARK    2  A    between atoms: C_4  and  C_15
REMARK    3  A    between atoms: C_5  and  N_7
REMARK    4  A    between atoms: C_8  and  C_10
REMARK    5  A    between atoms: C_15  and  C_17
REMARK    6  A    between atoms: C_15  and  N_27
REMARK    7  A    between atoms: C_21  and  O_25
REMARK    8  A    between atoms: C_22  and  O_23
REMARK    9  A    between atoms: O_23  and  C_24
REMARK   10  A    between atoms: O_25  and  C_26
REMARK                            x       y       z     vdW  Elec       q    Type
REMARK                         _______ _______ _______ _____ _____    ______ ____
ROOT
ATOM      1  C   UNL     1      -1.978  -3.216  -0.042  0.00  0.00    +0.138 C 
ENDROOT
BRANCH   1   2
ATOM      2  N   UNL     1      -3.093  -2.373   0.396  0.00  0.00    -0.319 N 
ATOM      3  C   UNL     1      -4.277  -2.957   0.830  0.00  0.00    +0.097 A 
ATOM      4  C   UNL     1      -4.394  -4.343   0.852  0.00  0.00    +0.041 A 
ATOM      5  C   UNL     1      -5.578  -4.911   1.287  0.00  0.00    +0.005 A 
ATOM      6  C   UNL     1      -6.609  -4.071   1.686  0.00  0.00    +0.018 A 
ATOM      7  C   UNL     1      -6.424  -2.704   1.638  0.00  0.00    +0.084 A 
ATOM      8  N   UNL     1      -5.282  -2.190   1.224  0.00  0.00    -0.350 N 
ATOM      9  H   UNL     1      -3.005  -1.407   0.382  0.00  0.00    +0.148 HD
ATOM     10  H   UNL     1      -5.176  -1.226   1.204  0.00  0.00    +0.166 HD
ENDBRANCH   1   2
BRANCH   1  14
ATOM     11  C   UNL     1       1.916  -0.579  -1.997  0.00  0.00    +0.051 C 
ATOM     12  C   UNL     1       1.074  -1.231  -0.931  0.00  0.00    -0.011 A 
ATOM     13  C   UNL     1      -0.083  -1.923  -1.063  0.00  0.00    +0.018 A 
ATOM     14  C   UNL     1      -0.690  -2.440   0.066  0.00  0.00    +0.006 A 
ATOM     15  C   UNL     1      -0.103  -2.236   1.279  0.00  0.00    +0.078 A 
ATOM     16  S   UNL     1       1.349  -1.298   0.832  0.00  0.00    -0.078 S 
BRANCH  15  17
ATOM     17  N   UNL     1      -0.524  -2.656   2.542  0.00  0.00    -0.273 N 
ATOM     18  C   UNL     1       0.140  -2.250   3.643  0.00  0.00    +0.284 C 
ATOM     19  O   UNL     1       1.106  -1.517   3.536  0.00  0.00    -0.266 OA
ATOM     20  H   UNL     1      -1.294  -3.240   2.627  0.00  0.00    +0.156 HD
BRANCH  18  21
ATOM     21  C   UNL     1      -0.303  -2.691   4.970  0.00  0.00    +0.189 A 
ATOM     22  C   UNL     1       0.272  -2.352   6.161  0.00  0.00    +0.054 A 
ATOM     23  C   UNL     1      -0.471  -2.993   7.165  0.00  0.00    +0.042 A 
ATOM     24  C   UNL     1      -1.454  -3.687   6.550  0.00  0.00    +0.196 A 
ATOM     25  O   UNL     1      -1.353  -3.498   5.227  0.00  0.00    -0.458 OA
ENDBRANCH  18  21
ENDBRANCH  15  17
ENDBRANCH   1  14
BRANCH   1  26
ATOM     26  C   UNL     1      -2.194  -3.633  -1.473  0.00  0.00    +0.022 A 
ATOM     27  C   UNL     1      -3.039  -2.900  -2.287  0.00  0.00    +0.009 A 
ATOM     28  C   UNL     1      -3.241  -3.280  -3.600  0.00  0.00    +0.004 A 
ATOM     29  C   UNL     1      -2.598  -4.395  -4.107  0.00  0.00    +0.049 A 
ATOM     30  C   UNL     1      -1.750  -5.133  -3.297  0.00  0.00    +0.162 A 
ATOM     31  C   UNL     1      -1.543  -4.747  -1.976  0.00  0.00    +0.167 A 
BRANCH  31  32
ATOM     32  O   UNL     1      -0.707  -5.465  -1.179  0.00  0.00    -0.491 OA
ATOM     33  C   UNL     1      -1.284  -6.542  -0.438  0.00  0.00    +0.277 C 
ENDBRANCH  31  32
BRANCH  30  34
ATOM     34  O   UNL     1      -1.117  -6.230  -3.794  0.00  0.00    -0.491 OA
ATOM     35  C   UNL     1      -1.373  -6.563  -5.160  0.00  0.00    +0.277 C 
ENDBRANCH  30  34
ENDBRANCH   1  26
TORSDOF 7
