REMARK  Name = ZINC19869375
REMARK  3 active torsions:
REMARK  status: ('A' for Active; 'I' for Inactive)
REMARK    1  A    between atoms: C_5  and  S_7
REMARK    2  A    between atoms: S_7  and  C_8
REMARK    3  A    between atoms: C_13  and  N_14
REMARK                            x       y       z     vdW  Elec       q    Type
REMARK                         _______ _______ _______ _____ _____    ______ ____
ROOT
ATOM      1  C   UNL     1       1.768   6.075  -0.022  0.00  0.00    +0.038 A 
ATOM      2  C   UNL     1       2.779   5.133  -0.133  0.00  0.00    +0.066 A 
ATOM      3  C   UNL     1       4.105   5.538  -0.176  0.00  0.00    +0.163 A 
ATOM      4  C   UNL     1       4.421   6.889  -0.109  0.00  0.00    +0.164 A 
ATOM      5  C   UNL     1       3.411   7.833   0.003  0.00  0.00    +0.073 A 
ATOM      6  C   UNL     1       2.085   7.431   0.041  0.00  0.00    +0.042 A 
ATOM      7  O   UNL     1       5.718   7.304  -0.154  0.00  0.00    -0.485 OA
ATOM      8  C   UNL     1       6.720   6.316   0.111  0.00  0.00    +0.270 C 
ATOM      9  C   UNL     1       6.377   5.056  -0.695  0.00  0.00    +0.270 C 
ATOM     10  O   UNL     1       5.085   4.597  -0.281  0.00  0.00    -0.485 OA
ENDROOT
BRANCH   6  11
ATOM     11  N   UNL     1       1.064   8.386   0.149  0.00  0.00    -0.357 N 
ATOM     12  H   UNL     1       1.315   9.456   0.199  0.00  0.00    +0.142 HD
ATOM     13  H   UNL     1       0.012   8.066   0.184  0.00  0.00    +0.142 HD
ENDBRANCH   6  11
BRANCH   1  14
ATOM     14  S   UNL     1       0.084   5.559   0.031  0.00  0.00    -0.068 S 
BRANCH  14  19
ATOM     15  C   UNL     1      -2.014   5.655   3.455  0.00  0.00    +0.004 A 
ATOM     16  C   UNL     1      -1.014   5.997   4.357  0.00  0.00    +0.020 A 
ATOM     17  C   UNL     1       0.275   6.184   3.900  0.00  0.00    +0.112 A 
ATOM     18  N   UNL     1       0.565   6.048   2.620  0.00  0.00    -0.248 NA
ATOM     19  C   UNL     1      -0.360   5.728   1.728  0.00  0.00    +0.102 A 
ATOM     20  C   UNL     1      -1.681   5.525   2.119  0.00  0.00    +0.035 A 
ENDBRANCH  14  19
ENDBRANCH   1  14
TORSDOF 3
