REMARK  Name = ZINC03552616
REMARK  15 active torsions:
REMARK  status: ('A' for Active; 'I' for Inactive)
REMARK    1  A    between atoms: C_1  and  C_2
REMARK    2  A    between atoms: C_2  and  C_3
REMARK    3  A    between atoms: C_2  and  C_4
REMARK    4  A    between atoms: C_4  and  C_5
REMARK    5  A    between atoms: C_4  and  C_6
REMARK    6  A    between atoms: C_4  and  N_8
REMARK    7  A    between atoms: C_9  and  C_11
REMARK    8  A    between atoms: C_11  and  S_12
REMARK    9  A    between atoms: S_12  and  C_13
REMARK   10  A    between atoms: C_16  and  C_25
REMARK   11  A    between atoms: N_17  and  C_18
REMARK   12  A    between atoms: C_25  and  C_27
REMARK   13  A    between atoms: C_25  and  N_56
REMARK   14  A    between atoms: C_28  and  N_56
REMARK   15  A    between atoms: C_29  and  N_56
REMARK                            x       y       z     vdW  Elec       q    Type
REMARK                         _______ _______ _______ _____ _____    ______ ____
ROOT
ATOM      1  C   UNL     1       0.122   0.990  -2.724  0.00  0.00    +0.197 A 
ATOM      2  N   UNL     1       1.195   0.253  -2.550  0.00  0.00    -0.122 NA
ATOM      3  N   UNL     1       1.683  -0.085  -3.689  0.00  0.00    -0.135 NA
ATOM      4  C   UNL     1       0.959   0.411  -4.653  0.00  0.00    +0.125 A 
ATOM      5  N   UNL     1      -0.066   1.111  -4.073  0.00  0.00    -0.275 N 
ENDROOT
BRANCH   5   6
ATOM      6  C   UNL     1      -1.093   1.808  -4.727  0.00  0.00    +0.050 A 
ATOM      7  C   UNL     1      -2.018   1.119  -5.500  0.00  0.00    +0.028 A 
ATOM      8  C   UNL     1      -3.030   1.807  -6.139  0.00  0.00    +0.022 A 
ATOM      9  C   UNL     1      -3.117   3.183  -6.018  0.00  0.00    +0.041 A 
ATOM     10  C   UNL     1      -2.193   3.872  -5.252  0.00  0.00    +0.022 A 
ATOM     11  C   UNL     1      -1.181   3.188  -4.607  0.00  0.00    +0.028 A 
ATOM     12 CL   UNL     1      -4.388   4.046  -6.827  0.00  0.00    -0.084 Cl
ENDBRANCH   5   6
BRANCH   4  13
ATOM     13  C   UNL     1       1.202   0.242  -6.130  0.00  0.00    -0.003 C 
ATOM     14  C   UNL     1       2.375   1.125  -6.559  0.00  0.00    -0.005 C 
BRANCH  13  17
ATOM     15  C   UNL     1       1.644  -1.391  -7.862  0.00  0.00    -0.096 C 
ATOM     16  C   UNL     1       2.734  -1.585  -5.709  0.00  0.00    -0.096 C 
ATOM     17  N   UNL     1       1.496  -1.180  -6.407  0.00  0.00    +0.382 N 
ATOM     18  H   UNL     1       0.717  -1.755  -6.064  0.00  0.00    -0.082 HD
ENDBRANCH  13  17
ENDBRANCH   4  13
BRANCH   1  19
ATOM     19  S   UNL     1      -0.888   1.685  -1.458  0.00  0.00    -0.076 S 
BRANCH  19  20
ATOM     20  C   UNL     1      -0.013   1.086   0.008  0.00  0.00    +0.173 C 
BRANCH  20  22
ATOM     21  N   UNL     1      -0.242   1.246   2.466  0.00  0.00    -0.297 N 
ATOM     22  C   UNL     1      -0.718   1.572   1.248  0.00  0.00    +0.224 C 
ATOM     23  O   UNL     1      -1.714   2.256   1.150  0.00  0.00    -0.275 OA
ATOM     24  H   UNL     1       0.555   0.699   2.544  0.00  0.00    +0.150 HD
BRANCH  21  25
ATOM     25  C   UNL     1      -0.927   1.718   3.671  0.00  0.00    +0.121 C 
ATOM     26  C   UNL     1      -2.363   1.189   3.682  0.00  0.00    +0.048 C 
BRANCH  25  28
ATOM     27  C   UNL     1      -0.829   1.806   6.166  0.00  0.00    +0.010 C 
ATOM     28  C   UNL     1      -0.187   1.212   4.911  0.00  0.00    +0.020 C 
ATOM     29  C   UNL     1      -0.274  -0.315   4.968  0.00  0.00    +0.010 C 
ENDBRANCH  25  28
BRANCH  25  30
ATOM     30  C   UNL     1      -0.947   3.190   3.679  0.00  0.00    +0.088 C 
ATOM     31  N   UNL     1      -0.963   4.326   3.685  0.00  0.00    -0.194 NA
ENDBRANCH  25  30
ENDBRANCH  21  25
ENDBRANCH  20  22
ENDBRANCH  19  20
ENDBRANCH   1  19
TORSDOF 9
