REMARK  Name = ZINC36492755
REMARK  14 active torsions:
REMARK  status: ('A' for Active; 'I' for Inactive)
REMARK    1  A    between atoms: C_1  and  C_2
REMARK    2  A    between atoms: C_2  and  C_3
REMARK    3  A    between atoms: C_2  and  C_4
REMARK    4  A    between atoms: C_2  and  C_5
REMARK    5  A    between atoms: C_5  and  C_6
REMARK    6  A    between atoms: C_6  and  C_7
REMARK    7  A    between atoms: C_6  and  C_8
REMARK    8  A    between atoms: C_6  and  N_9
REMARK    9  A    between atoms: C_10  and  C_12
REMARK   10  A    between atoms: C_12  and  C_14
REMARK   11  A    between atoms: C_12  and  N_21
REMARK   12  A    between atoms: N_21  and  C_22
REMARK   13  A    between atoms: C_28  and  C_30
REMARK   14  A    between atoms: C_33  and  N_36
REMARK                            x       y       z     vdW  Elec       q    Type
REMARK                         _______ _______ _______ _____ _____    ______ ____
ROOT
ATOM      1  C   UNL     1       5.235  -0.245  -4.405  0.00  0.00    +0.193 C 
ENDROOT
BRANCH   1   2
ATOM      2  C   UNL     1       4.946  -1.699  -4.675  0.00  0.00    -0.018 A 
ATOM      3  C   UNL     1       4.255  -2.450  -3.742  0.00  0.00    +0.007 A 
ATOM      4  C   UNL     1       3.989  -3.784  -3.989  0.00  0.00    +0.020 A 
ATOM      5  C   UNL     1       4.415  -4.367  -5.169  0.00  0.00    +0.041 A 
ATOM      6  C   UNL     1       5.107  -3.615  -6.101  0.00  0.00    +0.020 A 
ATOM      7  C   UNL     1       5.367  -2.280  -5.856  0.00  0.00    +0.007 A 
ATOM      8 CL   UNL     1       4.082  -6.043  -5.479  0.00  0.00    -0.084 Cl
ENDBRANCH   1   2
BRANCH   1  10
ATOM      9  N   UNL     1       3.498  -0.089  -2.650  0.00  0.00    -0.308 N 
ATOM     10  C   UNL     1       4.782   0.108  -3.012  0.00  0.00    +0.239 C 
ATOM     11  O   UNL     1       5.572   0.569  -2.215  0.00  0.00    -0.273 OA
ATOM     12  H   UNL     1       2.866  -0.458  -3.287  0.00  0.00    +0.149 HD
BRANCH   9  13
ATOM     13  C   UNL     1       3.058   0.253  -1.296  0.00  0.00    +0.030 C 
ATOM     14  C   UNL     1       3.647   1.607  -0.895  0.00  0.00    +0.031 C 
ATOM     15  C   UNL     1       3.536  -0.821  -0.317  0.00  0.00    +0.031 C 
BRANCH  13  16
ATOM     16  C   UNL     1       1.530   0.332  -1.261  0.00  0.00    +0.031 C 
BRANCH  16  18
ATOM     17  C   UNL     1       0.971   0.145  -3.689  0.00  0.00    +0.010 C 
ATOM     18  C   UNL     1       1.030   1.094  -2.490  0.00  0.00    -0.036 C 
ATOM     19  C   UNL     1       1.987   2.247  -2.799  0.00  0.00    +0.010 C 
ATOM     20  C   UNL     1      -0.367   1.651  -2.211  0.00  0.00    +0.010 C 
ENDBRANCH  16  18
ENDBRANCH  13  16
ENDBRANCH   9  13
ENDBRANCH   1  10
BRANCH   1  21
ATOM     21  N   UNL     1       6.675  -0.002  -4.526  0.00  0.00    -0.279 N 
ATOM     22  C   UNL     1       7.133   0.909  -5.407  0.00  0.00    +0.248 C 
ATOM     23  O   UNL     1       6.371   1.418  -6.206  0.00  0.00    -0.270 OA
BRANCH  21  24
ATOM     24  C   UNL     1       7.616  -0.751  -3.690  0.00  0.00    +0.077 C 
ATOM     25  C   UNL     1       6.913  -1.976  -3.102  0.00  0.00    +0.022 C 
ATOM     26  C   UNL     1       7.897  -2.758  -2.228  0.00  0.00    +0.002 C 
ATOM     27  C   UNL     1       8.395  -1.861  -1.093  0.00  0.00    +0.000 C 
ATOM     28  C   UNL     1       9.097  -0.636  -1.681  0.00  0.00    +0.002 C 
ATOM     29  C   UNL     1       8.114   0.146  -2.555  0.00  0.00    +0.022 C 
ENDBRANCH  21  24
BRANCH  22  30
ATOM     30  C   UNL     1       8.561   1.289  -5.402  0.00  0.00    +0.037 A 
ATOM     31  C   UNL     1       9.451   0.658  -4.531  0.00  0.00    +0.015 A 
ATOM     32  C   UNL     1      10.783   1.017  -4.531  0.00  0.00    +0.033 A 
ATOM     33  C   UNL     1      11.238   2.001  -5.391  0.00  0.00    +0.126 A 
ATOM     34  C   UNL     1      10.361   2.631  -6.257  0.00  0.00    +0.033 A 
ATOM     35  C   UNL     1       9.027   2.277  -6.271  0.00  0.00    +0.015 A 
BRANCH  33  36
ATOM     36  N   UNL     1      12.668   2.382  -5.386  0.00  0.00    +0.056 N 
ATOM     37  O   UNL     1      13.436   1.833  -4.631  0.00  0.00    -0.126 OA
ATOM     38  O   UNL     1      13.068   3.241  -6.137  0.00  0.00    -0.126 OA
ENDBRANCH  33  36
ENDBRANCH  22  30
ENDBRANCH   1  21
TORSDOF 9
