REMARK  Name = ZINC26942441
REMARK  9 active torsions:
REMARK  status: ('A' for Active; 'I' for Inactive)
REMARK    1  A    between atoms: C_1  and  C_2
REMARK    2  A    between atoms: C_5  and  N_8
REMARK    3  A    between atoms: N_8  and  C_9
REMARK    4  A    between atoms: N_8  and  S_23
REMARK    5  A    between atoms: C_9  and  C_10
REMARK    6  A    between atoms: C_10  and  C_11
REMARK    7  A    between atoms: N_13  and  C_14
REMARK    8  A    between atoms: S_23  and  C_26
REMARK    9  A    between atoms: C_29  and  C_32
REMARK                            x       y       z     vdW  Elec       q    Type
REMARK                         _______ _______ _______ _____ _____    ______ ____
ROOT
ATOM      1  N   UNL     1       0.253  -4.397   0.323  0.00  0.00    -0.203 N 
ENDROOT
BRANCH   1   6
ATOM      2  C   UNL     1       0.287   1.273   0.262  0.00  0.00    +0.044 C 
ATOM      3  C   UNL     1       0.278  -0.234   0.278  0.00  0.00    -0.050 A 
ATOM      4  C   UNL     1       0.204  -0.936  -0.911  0.00  0.00    +0.005 A 
ATOM      5  C   UNL     1       0.196  -2.317  -0.900  0.00  0.00    +0.025 A 
ATOM      6  C   UNL     1       0.262  -3.001   0.308  0.00  0.00    +0.051 A 
ATOM      7  C   UNL     1       0.337  -2.292   1.500  0.00  0.00    +0.025 A 
ATOM      8  C   UNL     1       0.350  -0.911   1.481  0.00  0.00    +0.005 A 
ENDBRANCH   1   6
BRANCH   1   9
ATOM      9  S   UNL     1      -0.447  -5.234  -0.923  0.00  0.00    +0.075 S 
ATOM     10  O   UNL     1      -0.938  -6.448  -0.371  0.00  0.00    -0.150 OA
ATOM     11  O   UNL     1      -1.285  -4.315  -1.610  0.00  0.00    -0.150 OA
BRANCH   9  12
ATOM     12  C   UNL     1       0.841  -5.676  -2.042  0.00  0.00    +0.109 A 
ATOM     13  C   UNL     1       1.232  -4.790  -3.029  0.00  0.00    +0.029 A 
ATOM     14  C   UNL     1       2.242  -5.136  -3.907  0.00  0.00    +0.005 A 
ATOM     15  C   UNL     1       2.861  -6.367  -3.799  0.00  0.00    -0.050 A 
ATOM     16  C   UNL     1       2.470  -7.253  -2.812  0.00  0.00    +0.005 A 
ATOM     17  C   UNL     1       1.463  -6.905  -1.931  0.00  0.00    +0.029 A 
ATOM     18  C   UNL     1       3.961  -6.745  -4.757  0.00  0.00    +0.044 C 
ENDBRANCH   9  12
ENDBRANCH   1   9
BRANCH   1  19
ATOM     19  C   UNL     1       0.864  -5.122   1.440  0.00  0.00    +0.141 C 
BRANCH  19  20
ATOM     20  C   UNL     1      -0.150  -5.249   2.579  0.00  0.00    +0.117 C 
BRANCH  20  21
ATOM     21  C   UNL     1       0.478  -5.994   3.729  0.00  0.00    +0.219 C 
ATOM     22  O   UNL     1       1.623  -6.385   3.646  0.00  0.00    -0.275 OA
ATOM     23  N   UNL     1      -0.233  -6.227   4.850  0.00  0.00    -0.285 N 
ATOM     24  H   UNL     1      -1.171  -5.980   4.890  0.00  0.00    +0.155 HD
BRANCH  23  25
ATOM     25  C   UNL     1       0.381  -6.825   5.958  0.00  0.00    +0.037 A 
ATOM     26  C   UNL     1      -0.377  -7.566   6.856  0.00  0.00    +0.027 A 
ATOM     27  C   UNL     1       0.228  -8.157   7.949  0.00  0.00    +0.051 A 
ATOM     28  C   UNL     1       1.591  -8.013   8.152  0.00  0.00    +0.166 A 
ATOM     29  C   UNL     1       2.353  -7.271   7.253  0.00  0.00    +0.168 A 
ATOM     30  C   UNL     1       1.748  -6.684   6.154  0.00  0.00    +0.072 A 
ATOM     31  O   UNL     1       3.653  -7.280   7.671  0.00  0.00    -0.453 OA
ATOM     32  C   UNL     1       3.610  -7.689   9.051  0.00  0.00    +0.466 C 
ATOM     33  O   UNL     1       2.413  -8.487   9.134  0.00  0.00    -0.453 OA
ENDBRANCH  23  25
ENDBRANCH  20  21
ENDBRANCH  19  20
ENDBRANCH   1  19
TORSDOF 7
