REMARK  Name = ZINC63558025
REMARK  8 active torsions:
REMARK  status: ('A' for Active; 'I' for Inactive)
REMARK    1  A    between atoms: C_1  and  C_2
REMARK    2  A    between atoms: C_2  and  O_3
REMARK    3  A    between atoms: O_3  and  C_4
REMARK    4  A    between atoms: C_7  and  N_10
REMARK    5  A    between atoms: C_11  and  C_13
REMARK    6  A    between atoms: N_18  and  C_20
REMARK    7  A    between atoms: C_20  and  C_21
REMARK    8  A    between atoms: C_21  and  C_22
REMARK                            x       y       z     vdW  Elec       q    Type
REMARK                         _______ _______ _______ _____ _____    ______ ____
ROOT
ATOM      1  C   UNL     1       1.651  -7.929  -3.195  0.00  0.00    +0.101 C 
ATOM      2  C   UNL     1       0.213  -8.486  -3.314  0.00  0.00    +0.110 C 
ATOM      3  C   UNL     1       0.318  -9.562  -4.373  0.00  0.00    +0.216 C 
ATOM      4  O   UNL     1      -0.510 -10.426  -4.569  0.00  0.00    -0.276 OA
ATOM      5  N   UNL     1       1.462  -9.420  -5.064  0.00  0.00    -0.300 N 
ATOM      6  C   UNL     1       2.237  -8.269  -4.583  0.00  0.00    +0.121 C 
ENDROOT
BRANCH   1   8
ATOM      7  N   UNL     1       1.102  -5.938  -1.834  0.00  0.00    -0.285 N 
ATOM      8  C   UNL     1       1.635  -6.440  -2.966  0.00  0.00    +0.222 C 
ATOM      9  O   UNL     1       2.103  -5.694  -3.799  0.00  0.00    -0.275 OA
ATOM     10  H   UNL     1       0.789  -6.537  -1.138  0.00  0.00    +0.155 HD
BRANCH   7  14
ATOM     11  C   UNL     1       0.797  -1.810  -1.328  0.00  0.00    +0.121 A 
ATOM     12  C   UNL     1       1.882  -2.347  -2.004  0.00  0.00    +0.047 A 
ATOM     13  C   UNL     1       1.984  -3.714  -2.172  0.00  0.00    +0.027 A 
ATOM     14  C   UNL     1       1.000  -4.551  -1.664  0.00  0.00    +0.034 A 
ATOM     15  C   UNL     1      -0.086  -4.013  -0.987  0.00  0.00    +0.027 A 
ATOM     16  C   UNL     1      -0.184  -2.646  -0.814  0.00  0.00    +0.047 A 
BRANCH  11  17
ATOM     17  O   UNL     1       0.698  -0.464  -1.162  0.00  0.00    -0.492 OA
BRANCH  17  19
ATOM     18  C   UNL     1       1.460   1.813  -1.433  0.00  0.00    +0.048 C 
ATOM     19  C   UNL     1       1.743   0.336  -1.717  0.00  0.00    +0.225 C 
ENDBRANCH  17  19
ENDBRANCH  11  17
ENDBRANCH   7  14
ENDBRANCH   1   8
BRANCH   5  20
ATOM     20  C   UNL     1       1.882 -10.300  -6.157  0.00  0.00    +0.112 C 
BRANCH  20  21
ATOM     21  C   UNL     1       1.351  -9.755  -7.484  0.00  0.00    +0.052 C 
BRANCH  21  22
ATOM     22  C   UNL     1       1.783 -10.661  -8.608  0.00  0.00    -0.040 C 
ATOM     23  C   UNL     1       1.071 -11.670  -9.159  0.00  0.00    +0.002 A 
ATOM     24  C   UNL     1      -0.268 -12.206  -8.885  0.00  0.00    +0.048 A 
ATOM     25  C   UNL     1      -0.721 -13.249  -9.620  0.00  0.00    +0.124 A 
ATOM     26  C   UNL     1       0.058 -13.829 -10.635  0.00  0.00    +0.040 A 
ATOM     27  C   UNL     1       1.297 -13.391 -10.943  0.00  0.00    +0.029 A 
ATOM     28  C   UNL     1       1.871 -12.300 -10.233  0.00  0.00    +0.043 A 
ATOM     29  N   UNL     1       3.033 -11.702 -10.343  0.00  0.00    -0.380 N 
ATOM     30  C   UNL     1       3.098 -10.621  -9.354  0.00  0.00    +0.144 C 
ATOM     31  F   UNL     1      -1.952 -13.746  -9.371  0.00  0.00    -0.205 F 
ATOM     32  H   UNL     1       3.731 -11.934 -10.976  0.00  0.00    +0.160 HD
ENDBRANCH  21  22
ENDBRANCH  20  21
ENDBRANCH   5  20
TORSDOF 7
