REMARK  Name = ZINC14471649
REMARK  7 active torsions:
REMARK  status: ('A' for Active; 'I' for Inactive)
REMARK    1  A    between atoms: C_1  and  C_2
REMARK    2  A    between atoms: C_2  and  C_3
REMARK    3  A    between atoms: C_3  and  O_4
REMARK    4  A    between atoms: O_4  and  C_5
REMARK    5  A    between atoms: C_5  and  C_7
REMARK    6  A    between atoms: C_20  and  C_23
REMARK    7  A    between atoms: C_27  and  N_29
REMARK                            x       y       z     vdW  Elec       q    Type
REMARK                         _______ _______ _______ _____ _____    ______ ____
ROOT
ATOM      1  C   UNL     1       5.019  -0.383   0.241  0.00  0.00    +0.059 A 
ATOM      2  C   UNL     1       5.041   0.012  -1.100  0.00  0.00    +0.017 A 
ATOM      3  C   UNL     1       4.510   1.217  -1.459  0.00  0.00    +0.024 A 
ATOM      4  C   UNL     1       3.947   2.053  -0.497  0.00  0.00    +0.031 A 
ATOM      5  C   UNL     1       3.917   1.675   0.841  0.00  0.00    -0.019 A 
ATOM      6  C   UNL     1       4.456   0.455   1.206  0.00  0.00    +0.021 A 
ATOM      7  C   UNL     1       3.323   2.543   1.904  0.00  0.00    +0.049 C 
ATOM      8  C   UNL     1       1.978   2.024   2.353  0.00  0.00    -0.023 C 
ATOM      9  C   UNL     1       1.171   3.022   2.617  0.00  0.00    -0.030 C 
ATOM     10  C   UNL     1       1.871   4.347   2.385  0.00  0.00    +0.033 C 
ATOM     11  C   UNL     1       3.033   3.976   1.416  0.00  0.00    +0.029 C 
ATOM     12  C   UNL     1       2.451   3.937   0.000  0.00  0.00    +0.105 C 
ATOM     13  N   UNL     1       3.410   3.276  -0.890  0.00  0.00    -0.336 N 
ATOM     14  H   UNL     1       3.665   3.682  -1.734  0.00  0.00    +0.147 HD
ENDROOT
BRANCH  12  15
ATOM     15  C   UNL     1       1.156   3.166   0.008  0.00  0.00    -0.025 A 
ATOM     16  C   UNL     1       1.175   1.783   0.000  0.00  0.00    +0.005 A 
ATOM     17  C   UNL     1      -0.013   1.076   0.008  0.00  0.00    +0.003 A 
ATOM     18  C   UNL     1      -1.219   1.751   0.017  0.00  0.00    +0.033 A 
ATOM     19  C   UNL     1      -1.238   3.133   0.029  0.00  0.00    +0.127 A 
ATOM     20  C   UNL     1      -0.050   3.840   0.022  0.00  0.00    +0.038 A 
BRANCH  19  21
ATOM     21  N   UNL     1      -2.530   3.855   0.045  0.00  0.00    +0.056 N 
ATOM     22  O   UNL     1      -2.546   5.073   0.052  0.00  0.00    -0.126 OA
ATOM     23  O   UNL     1      -3.576   3.232   0.051  0.00  0.00    -0.126 OA
ENDBRANCH  19  21
ENDBRANCH  12  15
BRANCH   1  24
ATOM     24  C   UNL     1       5.591  -1.683   0.637  0.00  0.00    +0.339 C 
ATOM     25  O   UNL     1       5.572  -2.025   1.803  0.00  0.00    -0.245 OA
BRANCH  24  26
ATOM     26  O   UNL     1       6.135  -2.491  -0.294  0.00  0.00    -0.461 OA
BRANCH  26  27
ATOM     27  C   UNL     1       6.679  -3.756   0.167  0.00  0.00    +0.232 C 
BRANCH  27  29
ATOM     28  C   UNL     1       7.821  -5.863  -0.536  0.00  0.00    +0.007 C 
ATOM     29  C   UNL     1       7.248  -4.530  -1.023  0.00  0.00    +0.038 C 
ENDBRANCH  27  29
ENDBRANCH  26  27
ENDBRANCH  24  26
ENDBRANCH   1  24
TORSDOF 6
