REMARK  Name = ZINC48564297
REMARK  5 active torsions:
REMARK  status: ('A' for Active; 'I' for Inactive)
REMARK    1  A    between atoms: N_5  and  C_8
REMARK    2  A    between atoms: C_8  and  C_9
REMARK    3  A    between atoms: N_12  and  C_15
REMARK    4  A    between atoms: C_15  and  C_16
REMARK    5  A    between atoms: N_21  and  C_22
REMARK                            x       y       z     vdW  Elec       q    Type
REMARK                         _______ _______ _______ _____ _____    ______ ____
ROOT
ATOM      1  C   UNL     1       2.424  -2.438  -2.067  0.00  0.00    -0.031 C 
ATOM      2  C   UNL     1       3.553  -2.292  -1.044  0.00  0.00    -0.017 C 
ATOM      3  C   UNL     1       3.841  -3.655  -0.411  0.00  0.00    -0.078 C 
ATOM      4  N   UNL     1       4.244  -4.607  -1.453  0.00  0.00    +0.385 N 
ATOM      5  C   UNL     1       3.139  -4.807  -2.398  0.00  0.00    -0.078 C 
ATOM      6  C   UNL     1       2.824  -3.488  -3.108  0.00  0.00    -0.017 C 
ATOM      7  H   UNL     1       5.046  -4.245  -1.946  0.00  0.00    -0.081 HD
ENDROOT
BRANCH   1   8
ATOM      8  C   UNL     1       2.185  -1.096  -2.761  0.00  0.00    -0.076 C 
BRANCH   8  13
ATOM      9  C   UNL     1      -0.019   1.544   0.011  0.00  0.00    -0.002 C 
ATOM     10  C   UNL     1       1.397   2.058  -0.000  0.00  0.00    -0.002 C 
ATOM     11  C   UNL     1       1.946   2.302  -1.420  0.00  0.00    -0.019 C 
ATOM     12  C   UNL     1       1.569   1.179  -2.402  0.00  0.00    -0.079 C 
ATOM     13  N   UNL     1       1.686  -0.121  -1.782  0.00  0.00    +0.380 N 
ATOM     14  C   UNL     1       0.344  -0.518  -1.321  0.00  0.00    -0.079 C 
ATOM     15  C   UNL     1       0.002  -0.004   0.002  0.00  0.00    -0.019 C 
ATOM     16  H   UNL     1       2.317  -0.070  -0.997  0.00  0.00    -0.082 HD
ENDBRANCH   8  13
ENDBRANCH   1   8
BRANCH   4  17
ATOM     17  C   UNL     1       4.593  -5.891  -0.831  0.00  0.00    +0.019 C 
BRANCH  17  18
ATOM     18  C   UNL     1       5.123  -6.831  -1.884  0.00  0.00    +0.204 C 
ATOM     19  O   UNL     1       5.202  -6.466  -3.038  0.00  0.00    -0.277 OA
ATOM     20  N   UNL     1       5.510  -8.076  -1.543  0.00  0.00    -0.242 N 
ATOM     21  C   UNL     1       5.984  -8.916  -2.484  0.00  0.00    +0.306 C 
ATOM     22  O   UNL     1       6.063  -8.550  -3.641  0.00  0.00    -0.252 OA
ATOM     23  N   UNL     1       6.371 -10.161  -2.143  0.00  0.00    -0.296 N 
ATOM     24  H   UNL     1       5.447  -8.367  -0.620  0.00  0.00    +0.159 HD
ATOM     25  H   UNL     1       6.308 -10.453  -1.220  0.00  0.00    +0.151 HD
BRANCH  23  26
ATOM     26  C   UNL     1       6.886 -11.074  -3.167  0.00  0.00    +0.075 C 
ATOM     27  C   UNL     1       6.392 -12.522  -3.135  0.00  0.00    +0.024 C 
ATOM     28  C   UNL     1       7.824 -12.192  -2.708  0.00  0.00    +0.024 C 
ENDBRANCH  23  26
ENDBRANCH  17  18
ENDBRANCH   4  17
TORSDOF 5
