REMARK  Name = ZINC39691255
REMARK  7 active torsions:
REMARK  status: ('A' for Active; 'I' for Inactive)
REMARK    1  A    between atoms: C_1  and  C_2
REMARK    2  A    between atoms: C_7  and  C_8
REMARK    3  A    between atoms: C_8  and  C_9
REMARK    4  A    between atoms: C_9  and  N_10
REMARK    5  A    between atoms: C_11  and  C_13
REMARK    6  A    between atoms: C_24  and  C_26
REMARK    7  A    between atoms: C_29  and  C_31
REMARK                            x       y       z     vdW  Elec       q    Type
REMARK                         _______ _______ _______ _____ _____    ______ ____
ROOT
ATOM      1  C   UNL     1      -2.571   2.266   6.027  0.00  0.00    +0.100 C 
ATOM      2  C   UNL     1      -1.717   3.548   5.913  0.00  0.00    +0.121 C 
ATOM      3  N   UNL     1      -2.690   4.619   5.590  0.00  0.00    -0.294 N 
ATOM      4  C   UNL     1      -3.878   4.299   6.419  0.00  0.00    +0.115 C 
ATOM      5  C   UNL     1      -3.988   2.763   6.362  0.00  0.00    -0.004 C 
ATOM      6  C   UNL     1      -4.433   2.215   7.715  0.00  0.00    -0.010 C 
ATOM      7  C   UNL     1      -5.866   2.675   8.000  0.00  0.00    -0.082 C 
ATOM      8  N   UNL     1      -6.757   2.194   6.937  0.00  0.00    +0.379 N 
ATOM      9  C   UNL     1      -6.378   2.799   5.654  0.00  0.00    -0.082 C 
ATOM     10  C   UNL     1      -4.967   2.344   5.270  0.00  0.00    -0.010 C 
ATOM     11  C   UNL     1      -2.531   5.650   4.737  0.00  0.00    +0.282 C 
ATOM     12  O   UNL     1      -3.431   6.454   4.580  0.00  0.00    -0.267 OA
ATOM     13  H   UNL     1      -6.685   1.190   6.868  0.00  0.00    -0.086 HD
ATOM     14  H   UNL     1      -7.708   2.446   7.158  0.00  0.00    -0.086 HD
ENDROOT
BRANCH  11  15
ATOM     15  C   UNL     1      -1.275   5.803   4.000  0.00  0.00    +0.190 A 
ATOM     16  C   UNL     1      -0.979   6.808   3.105  0.00  0.00    +0.055 A 
ATOM     17  C   UNL     1       0.318   6.567   2.641  0.00  0.00    +0.051 A 
ATOM     18  C   UNL     1       0.763   5.435   3.263  0.00  0.00    +0.139 A 
ATOM     19  O   UNL     1      -0.203   4.987   4.082  0.00  0.00    -0.450 OA
BRANCH  18  20
ATOM     20  C   UNL     1       2.087   4.812   3.070  0.00  0.00    +0.052 A 
ATOM     21  C   UNL     1       2.565   4.564   1.781  0.00  0.00    +0.014 A 
ATOM     22  C   UNL     1       3.803   3.981   1.608  0.00  0.00    +0.001 A 
ATOM     23  C   UNL     1       4.572   3.641   2.707  0.00  0.00    +0.003 A 
ATOM     24  C   UNL     1       4.107   3.882   3.987  0.00  0.00    +0.039 A 
ATOM     25  C   UNL     1       2.871   4.471   4.176  0.00  0.00    +0.134 A 
ATOM     26  F   UNL     1       2.420   4.712   5.427  0.00  0.00    -0.205 F 
ENDBRANCH  18  20
ENDBRANCH  11  15
BRANCH   1  28
ATOM     27  N   UNL     1      -2.734   0.181   4.705  0.00  0.00    -0.315 N 
ATOM     28  C   UNL     1      -2.574   1.519   4.718  0.00  0.00    +0.218 C 
ATOM     29  O   UNL     1      -2.431   2.123   3.675  0.00  0.00    -0.275 OA
ATOM     30  H   UNL     1      -2.849  -0.301   5.539  0.00  0.00    +0.149 HD
BRANCH  27  31
ATOM     31  C   UNL     1      -2.737  -0.544   3.432  0.00  0.00    +0.109 C 
BRANCH  31  32
ATOM     32  C   UNL     1      -2.935  -2.038   3.697  0.00  0.00    +0.054 C 
BRANCH  32  39
ATOM     33  C   UNL     1      -0.438  -2.864   2.501  0.00  0.00    +0.044 C 
ATOM     34  C   UNL     1      -1.743  -3.180   1.816  0.00  0.00    -0.047 A 
ATOM     35  C   UNL     1      -1.745  -3.869   0.618  0.00  0.00    +0.003 A 
ATOM     36  C   UNL     1      -2.942  -4.159  -0.011  0.00  0.00    +0.000 A 
ATOM     37  C   UNL     1      -4.136  -3.760   0.559  0.00  0.00    +0.000 A 
ATOM     38  C   UNL     1      -4.134  -3.071   1.758  0.00  0.00    +0.004 A 
ATOM     39  C   UNL     1      -2.937  -2.785   2.388  0.00  0.00    -0.043 A 
ENDBRANCH  32  39
ENDBRANCH  31  32
ENDBRANCH  27  31
ENDBRANCH   1  28
TORSDOF 6
