REMARK  Name = ZINC39509237
REMARK  11 active torsions:
REMARK  status: ('A' for Active; 'I' for Inactive)
REMARK    1  A    between atoms: C_1  and  C_2
REMARK    2  A    between atoms: C_2  and  O_3
REMARK    3  A    between atoms: O_3  and  C_4
REMARK    4  A    between atoms: C_4  and  C_6
REMARK    5  A    between atoms: N_9  and  C_25
REMARK    6  A    between atoms: C_10  and  C_12
REMARK    7  A    between atoms: C_12  and  N_13
REMARK    8  A    between atoms: N_13  and  C_14
REMARK    9  A    between atoms: C_14  and  C_15
REMARK   10  A    between atoms: C_15  and  C_16
REMARK   11  A    between atoms: N_29  and  C_36
REMARK                            x       y       z     vdW  Elec       q    Type
REMARK                         _______ _______ _______ _____ _____    ______ ____
ROOT
ATOM      1  C   UNL     1      -2.337  -2.246   0.767  0.00  0.00    +0.072 C 
ATOM      2  C   UNL     1      -3.258  -2.427  -0.200  0.00  0.00    +0.100 C 
ATOM      3  N   UNL     1      -4.267  -3.235   0.213  0.00  0.00    -0.270 N 
ATOM      4  N   UNL     1      -4.065  -3.655   1.534  0.00  0.00    -0.247 N 
ATOM      5  C   UNL     1      -2.798  -3.043   1.968  0.00  0.00    +0.115 C 
ATOM      6  H   UNL     1      -5.028  -3.489  -0.334  0.00  0.00    +0.169 HD
ENDROOT
BRANCH   4   7
ATOM      7  C   UNL     1      -4.884  -4.479   2.276  0.00  0.00    +0.062 A 
ATOM      8  C   UNL     1      -5.870  -3.958   3.071  0.00  0.00    +0.095 A 
ATOM      9  C   UNL     1      -6.694  -4.809   3.819  0.00  0.00    +0.253 A 
ATOM     10  O   UNL     1      -7.566  -4.323   4.521  0.00  0.00    -0.268 OA
ATOM     11  N   UNL     1      -6.552  -6.145   3.786  0.00  0.00    -0.311 N 
ATOM     12  C   UNL     1      -5.580  -6.741   3.007  0.00  0.00    +0.054 A 
ATOM     13  C   UNL     1      -4.726  -5.940   2.230  0.00  0.00    +0.021 A 
ATOM     14  C   UNL     1      -3.744  -6.536   1.436  0.00  0.00    +0.012 A 
ATOM     15  C   UNL     1      -3.623  -7.908   1.417  0.00  0.00    +0.001 A 
ATOM     16  C   UNL     1      -4.471  -8.697   2.180  0.00  0.00    +0.002 A 
ATOM     17  C   UNL     1      -5.438  -8.124   2.978  0.00  0.00    +0.026 A 
ATOM     18  C   UNL     1      -7.444  -6.983   4.591  0.00  0.00    +0.152 C 
ENDBRANCH   4   7
BRANCH   1  19
ATOM     19  C   UNL     1      -1.163  -1.467   0.675  0.00  0.00    +0.338 C 
ATOM     20  O   UNL     1      -0.907  -0.872  -0.355  0.00  0.00    -0.245 OA
BRANCH  19  21
ATOM     21  O   UNL     1      -0.325  -1.383   1.729  0.00  0.00    -0.462 OA
BRANCH  21  23
ATOM     22  C   UNL     1       1.666  -0.602   2.856  0.00  0.00    +0.048 C 
ATOM     23  C   UNL     1       0.844  -0.577   1.566  0.00  0.00    +0.229 C 
ENDBRANCH  21  23
ENDBRANCH  19  21
ENDBRANCH   1  19
BRANCH   5  24
ATOM     24  C   UNL     1      -1.772  -4.122   2.320  0.00  0.00    -0.053 C 
BRANCH  24  25
ATOM     25  N   UNL     1      -2.036  -4.626   3.675  0.00  0.00    +0.381 N 
ATOM     26  H   UNL     1      -1.863  -3.893   4.346  0.00  0.00    -0.086 HD
ATOM     27  H   UNL     1      -2.998  -4.923   3.741  0.00  0.00    -0.086 HD
BRANCH  25  28
ATOM     28  C   UNL     1      -1.151  -5.765   3.955  0.00  0.00    -0.078 C 
BRANCH  28  29
ATOM     29  C   UNL     1      -1.426  -6.289   5.365  0.00  0.00    +0.018 C 
BRANCH  29  30
ATOM     30  C   UNL     1      -0.518  -7.457   5.653  0.00  0.00    -0.024 A 
ATOM     31  C   UNL     1       0.856  -7.390   6.156  0.00  0.00    +0.003 A 
ATOM     32  C   UNL     1       1.711  -6.343   6.506  0.00  0.00    +0.010 A 
ATOM     33  C   UNL     1       2.972  -6.619   6.955  0.00  0.00    +0.001 A 
ATOM     34  C   UNL     1       3.410  -7.931   7.066  0.00  0.00    +0.002 A 
ATOM     35  C   UNL     1       2.583  -8.979   6.726  0.00  0.00    +0.026 A 
ATOM     36  C   UNL     1       1.295  -8.722   6.266  0.00  0.00    +0.047 A 
ATOM     37  N   UNL     1       0.256  -9.528   5.858  0.00  0.00    -0.360 N 
ATOM     38  C   UNL     1      -0.818  -8.757   5.502  0.00  0.00    +0.087 A 
ATOM     39  H   UNL     1       0.280 -10.497   5.831  0.00  0.00    +0.165 HD
ENDBRANCH  29  30
ENDBRANCH  28  29
ENDBRANCH  25  28
ENDBRANCH  24  25
ENDBRANCH   5  24
TORSDOF 9
