REMARK  Name = ZINC06301827
REMARK  7 active torsions:
REMARK  status: ('A' for Active; 'I' for Inactive)
REMARK    1  A    between atoms: C_1  and  C_2
REMARK    2  A    between atoms: C_4  and  C_33
REMARK    3  A    between atoms: C_7  and  C_14
REMARK    4  A    between atoms: C_14  and  C_16
REMARK    5  A    between atoms: C_14  and  N_66
REMARK    6  A    between atoms: N_20  and  C_21
REMARK    7  A    between atoms: C_29  and  C_32
REMARK                            x       y       z     vdW  Elec       q    Type
REMARK                         _______ _______ _______ _____ _____    ______ ____
ROOT
ATOM      1  C   UNL     1      -3.729   6.022   0.067  0.00  0.00    +0.039 C 
ENDROOT
BRANCH   1   8
ATOM      2  C   UNL     1       2.636   1.227  -0.254  0.00  0.00    +0.044 C 
ATOM      3  C   UNL     1       1.308   1.938  -0.217  0.00  0.00    -0.048 A 
ATOM      4  C   UNL     1       0.134   1.204  -0.322  0.00  0.00    +0.007 A 
ATOM      5  C   UNL     1      -1.081   1.829  -0.295  0.00  0.00    -0.041 A 
ATOM      6  C   UNL     1      -1.142   3.219  -0.150  0.00  0.00    +0.002 A 
ATOM      7  C   UNL     1      -2.427   3.921  -0.112  0.00  0.00    +0.018 A 
ATOM      8  C   UNL     1      -2.425   5.270   0.025  0.00  0.00    +0.011 A 
ATOM      9  C   UNL     1      -1.204   5.972   0.127  0.00  0.00    +0.251 A 
ATOM     10  O   UNL     1      -1.225   7.184   0.250  0.00  0.00    -0.268 OA
ATOM     11  N   UNL     1      -0.020   5.336   0.094  0.00  0.00    -0.322 N 
ATOM     12  H   UNL     1       0.800   5.849   0.168  0.00  0.00    +0.169 HD
ATOM     13  C   UNL     1       0.046   3.966  -0.043  0.00  0.00    +0.050 A 
ATOM     14  C   UNL     1       1.271   3.308  -0.079  0.00  0.00    +0.029 A 
ATOM     15  C   UNL     1      -2.349   1.024  -0.417  0.00  0.00    +0.044 C 
ENDBRANCH   1   8
BRANCH   1  22
ATOM     16  C   UNL     1      -4.960   7.724   1.271  0.00  0.00    -0.077 C 
ATOM     17  C   UNL     1      -4.896   8.685   2.460  0.00  0.00    -0.015 C 
ATOM     18  C   UNL     1      -4.827   7.878   3.760  0.00  0.00    -0.018 C 
ATOM     19  C   UNL     1      -3.607   6.954   3.713  0.00  0.00    -0.015 C 
ATOM     20  C   UNL     1      -3.708   6.043   2.488  0.00  0.00    -0.077 C 
ATOM     21  C   UNL     1      -4.701   8.832   4.949  0.00  0.00    +0.007 C 
ATOM     22  N   UNL     1      -3.746   6.880   1.270  0.00  0.00    +0.389 N 
ATOM     23  H   UNL     1      -2.918   7.488   1.257  0.00  0.00    -0.080 HD
ENDBRANCH   1  22
BRANCH   1  24
ATOM     24  C   UNL     1      -3.848   6.892  -1.158  0.00  0.00    +0.143 A 
ATOM     25  N   UNL     1      -3.212   8.016  -1.384  0.00  0.00    -0.115 NA
ATOM     26  N   UNL     1      -3.581   8.457  -2.537  0.00  0.00    -0.023 NA
ATOM     27  N   UNL     1      -4.436   7.644  -3.052  0.00  0.00    -0.044 NA
ATOM     28  N   UNL     1      -4.623   6.664  -2.234  0.00  0.00    -0.227 N 
BRANCH  28  29
ATOM     29  C   UNL     1      -5.514   5.519  -2.437  0.00  0.00    +0.111 C 
ATOM     30  C   UNL     1      -5.082   4.753  -3.689  0.00  0.00    +0.027 C 
ATOM     31  C   UNL     1      -6.013   3.557  -3.902  0.00  0.00    +0.002 C 
ATOM     32  C   UNL     1      -7.449   4.053  -4.077  0.00  0.00    +0.000 C 
ATOM     33  C   UNL     1      -7.881   4.820  -2.825  0.00  0.00    +0.002 C 
ATOM     34  C   UNL     1      -6.950   6.015  -2.613  0.00  0.00    +0.027 C 
ENDBRANCH  28  29
ENDBRANCH   1  24
TORSDOF 4
