REMARK  Name = ZINC14273295
REMARK  9 active torsions:
REMARK  status: ('A' for Active; 'I' for Inactive)
REMARK    1  A    between atoms: C_1  and  C_2
REMARK    2  A    between atoms: C_2  and  C_3
REMARK    3  A    between atoms: C_2  and  C_4
REMARK    4  A    between atoms: C_2  and  C_5
REMARK    5  A    between atoms: C_12  and  N_16
REMARK    6  A    between atoms: C_13  and  C_14
REMARK    7  A    between atoms: C_17  and  C_19
REMARK    8  A    between atoms: C_20  and  C_21
REMARK    9  A    between atoms: C_25  and  N_27
REMARK                            x       y       z     vdW  Elec       q    Type
REMARK                         _______ _______ _______ _____ _____    ______ ____
ROOT
ATOM      1  N   UNL     1       2.465   1.698  -0.012  0.00  0.00    -0.275 N 
ATOM      2  C   UNL     1       3.491   2.572  -0.017  0.00  0.00    +0.241 C 
ATOM      3  O   UNL     1       3.271   3.769  -0.009  0.00  0.00    -0.270 OA
ATOM      4  H   UNL     1       2.640   0.745  -0.019  0.00  0.00    +0.156 HD
ENDROOT
BRANCH   1  11
ATOM      5  C   UNL     1      -3.554   3.801   0.436  0.00  0.00    -0.000 C 
ATOM      6  C   UNL     1      -3.686   2.529  -0.408  0.00  0.00    +0.009 C 
ATOM      7  C   UNL     1      -2.642   1.502   0.034  0.00  0.00    +0.037 C 
ATOM      8  C   UNL     1      -1.270   2.164   0.020  0.00  0.00    -0.018 A 
ATOM      9  C   UNL     1      -1.146   3.510   0.033  0.00  0.00    -0.004 A 
ATOM     10  S   UNL     1       0.600   3.803   0.017  0.00  0.00    -0.077 S 
ATOM     11  C   UNL     1       1.159   2.163   0.003  0.00  0.00    +0.090 A 
ATOM     12  C   UNL     1      -0.017   1.428   0.010  0.00  0.00    +0.084 A 
ATOM     13  C   UNL     1      -2.252   4.518   0.050  0.00  0.00    +0.047 C 
BRANCH   5  15
ATOM     14  C   UNL     1      -4.786   5.082  -1.321  0.00  0.00    +0.011 C 
ATOM     15  C   UNL     1      -4.746   4.721   0.165  0.00  0.00    -0.035 C 
ATOM     16  C   UNL     1      -6.042   4.004   0.551  0.00  0.00    +0.011 C 
ATOM     17  C   UNL     1      -4.604   5.998   0.996  0.00  0.00    +0.011 C 
ENDBRANCH   5  15
BRANCH  12  18
ATOM     18  C   UNL     1       0.002  -0.004   0.002  0.00  0.00    +0.102 C 
ATOM     19  N   UNL     1       0.018  -1.140  -0.004  0.00  0.00    -0.191 NA
ENDBRANCH  12  18
ENDBRANCH   1  11
BRANCH   2  20
ATOM     20  C   UNL     1       4.870   2.082  -0.033  0.00  0.00    +0.068 C 
ATOM     21  C   UNL     1       5.897   2.956  -0.038  0.00  0.00    +0.013 C 
BRANCH  21  22
ATOM     22  C   UNL     1       7.283   2.463  -0.054  0.00  0.00    -0.023 A 
ATOM     23  C   UNL     1       7.540   1.088  -0.058  0.00  0.00    +0.009 A 
ATOM     24  C   UNL     1       8.840   0.633  -0.078  0.00  0.00    +0.023 A 
ATOM     25  C   UNL     1       9.893   1.535  -0.084  0.00  0.00    +0.071 A 
ATOM     26  C   UNL     1       9.646   2.898  -0.074  0.00  0.00    +0.145 A 
ATOM     27  C   UNL     1       8.350   3.367  -0.059  0.00  0.00    +0.042 A 
ATOM     28 CL   UNL     1      11.528   0.953  -0.103  0.00  0.00    -0.081 Cl
BRANCH  26  29
ATOM     29  N   UNL     1      10.777   3.853  -0.080  0.00  0.00    +0.058 N 
ATOM     30  O   UNL     1      10.562   5.051  -0.071  0.00  0.00    -0.126 OA
ATOM     31  O   UNL     1      11.923   3.440  -0.093  0.00  0.00    -0.126 OA
ENDBRANCH  26  29
ENDBRANCH  21  22
ENDBRANCH   2  20
TORSDOF 6
