REMARK  Name = ZINC02319685
REMARK  12 active torsions:
REMARK  status: ('A' for Active; 'I' for Inactive)
REMARK    1  A    between atoms: C_1  and  C_2
REMARK    2  A    between atoms: C_2  and  C_3
REMARK    3  A    between atoms: C_2  and  C_4
REMARK    4  A    between atoms: C_7  and  C_10
REMARK    5  A    between atoms: C_11  and  C_12
REMARK    6  A    between atoms: C_11  and  C_13
REMARK    7  A    between atoms: N_14  and  N_15
REMARK    8  A    between atoms: C_16  and  C_18
REMARK    9  A    between atoms: C_18  and  S_19
REMARK   10  A    between atoms: S_19  and  C_20
REMARK   11  A    between atoms: C_23  and  C_26
REMARK   12  A    between atoms: N_24  and  C_25
REMARK                            x       y       z     vdW  Elec       q    Type
REMARK                         _______ _______ _______ _____ _____    ______ ____
ROOT
ATOM      1  N   UNL     1      -2.207   5.269   7.996  0.00  0.00    -0.206 N 
ATOM      2  C   UNL     1      -2.209   6.598   8.218  0.00  0.00    +0.242 C 
ATOM      3  O   UNL     1      -1.707   7.349   7.408  0.00  0.00    -0.273 OA
ATOM      4  H   UNL     1      -2.608   4.668   8.644  0.00  0.00    +0.177 HD
ENDROOT
BRANCH   1   6
ATOM      5  C   UNL     1      -1.622   3.469   6.616  0.00  0.00    +0.133 C 
ATOM      6  N   UNL     1      -1.625   4.754   6.830  0.00  0.00    -0.188 NA
BRANCH   5   8
ATOM      7  C   UNL     1      -1.031   1.618   5.215  0.00  0.00    +0.012 C 
ATOM      8  C   UNL     1      -1.033   2.948   5.436  0.00  0.00    -0.030 C 
ATOM      9  C   UNL     1      -0.410   3.881   4.430  0.00  0.00    +0.045 C 
BRANCH   7  13
ATOM     10  C   UNL     1       0.332   0.088   1.500  0.00  0.00    -0.045 A 
ATOM     11  C   UNL     1      -0.367   1.282   1.538  0.00  0.00    +0.004 A 
ATOM     12  C   UNL     1      -0.818   1.783   2.741  0.00  0.00    +0.008 A 
ATOM     13  C   UNL     1      -0.558   1.087   3.926  0.00  0.00    -0.025 A 
ATOM     14  C   UNL     1       0.154  -0.116   3.880  0.00  0.00    +0.008 A 
ATOM     15  C   UNL     1       0.593  -0.607   2.668  0.00  0.00    +0.004 A 
BRANCH  10  17
ATOM     16  C   UNL     1       1.762   0.557  -0.471  0.00  0.00    +0.012 C 
ATOM     17  C   UNL     1       0.817  -0.455   0.180  0.00  0.00    +0.013 C 
ATOM     18  C   UNL     1      -0.380  -0.701  -0.740  0.00  0.00    +0.012 C 
ENDBRANCH  10  17
ENDBRANCH   7  13
ENDBRANCH   5   8
ENDBRANCH   1   6
BRANCH   2  19
ATOM     19  C   UNL     1      -2.835   7.152   9.472  0.00  0.00    +0.174 C 
BRANCH  19  20
ATOM     20  S   UNL     1      -2.680   8.955   9.478  0.00  0.00    -0.077 S 
BRANCH  20  21
ATOM     21  C   UNL     1      -3.471   9.325  11.008  0.00  0.00    +0.192 A 
ATOM     22  N   UNL     1      -4.002   8.458  11.841  0.00  0.00    -0.122 NA
ATOM     23  N   UNL     1      -4.491   9.068  12.861  0.00  0.00    -0.128 NA
ATOM     24  C   UNL     1      -4.311  10.362  12.738  0.00  0.00    +0.165 A 
ATOM     25  N   UNL     1      -3.652  10.567  11.547  0.00  0.00    -0.305 N 
ATOM     26  C   UNL     1      -3.232  11.849  10.977  0.00  0.00    +0.153 C 
BRANCH  24  27
ATOM     27  C   UNL     1      -4.735  11.404  13.697  0.00  0.00    +0.019 A 
ATOM     28  C   UNL     1      -5.053  11.058  15.011  0.00  0.00    +0.013 A 
ATOM     29  C   UNL     1      -5.444  12.035  15.903  0.00  0.00    +0.021 A 
ATOM     30  C   UNL     1      -5.531  13.355  15.494  0.00  0.00    +0.041 A 
ATOM     31  C   UNL     1      -5.222  13.704  14.190  0.00  0.00    +0.021 A 
ATOM     32  C   UNL     1      -4.825  12.736  13.290  0.00  0.00    +0.013 A 
ATOM     33 CL   UNL     1      -6.030  14.578  16.621  0.00  0.00    -0.084 Cl
ENDBRANCH  24  27
ENDBRANCH  20  21
ENDBRANCH  19  20
ENDBRANCH   2  19
TORSDOF 8
