REMARK  Name = ZINC36370348
REMARK  7 active torsions:
REMARK  status: ('A' for Active; 'I' for Inactive)
REMARK    1  A    between atoms: C_1  and  C_2
REMARK    2  A    between atoms: C_2  and  C_4
REMARK    3  A    between atoms: C_6  and  C_18
REMARK    4  A    between atoms: C_12  and  C_13
REMARK    5  A    between atoms: C_12  and  O_17
REMARK    6  A    between atoms: N_20  and  C_29
REMARK    7  A    between atoms: C_22  and  C_23
REMARK                            x       y       z     vdW  Elec       q    Type
REMARK                         _______ _______ _______ _____ _____    ______ ____
ROOT
ATOM      1  C   UNL     1      -2.151  -0.673  -0.240  0.00  0.00    +0.139 C 
ATOM      2  C   UNL     1      -1.538  -1.810   0.586  0.00  0.00    +0.123 C 
ATOM      3  N   UNL     1      -0.390  -2.362  -0.135  0.00  0.00    -0.292 N 
ATOM      4  C   UNL     1      -0.329  -2.336  -1.474  0.00  0.00    +0.302 C 
ATOM      5  O   UNL     1       0.642  -2.818  -2.024  0.00  0.00    -0.253 OA
ATOM      6  N   UNL     1      -1.297  -1.798  -2.232  0.00  0.00    -0.264 N 
ATOM      7  C   UNL     1      -2.501  -1.211  -1.632  0.00  0.00    +0.243 C 
ATOM      8  H   UNL     1       0.341  -2.755   0.367  0.00  0.00    +0.151 HD
ATOM      9  H   UNL     1      -1.200  -1.798  -3.197  0.00  0.00    +0.153 HD
ENDROOT
BRANCH   2  10
ATOM     10  C   UNL     1      -2.568  -2.889   0.799  0.00  0.00    +0.019 A 
ATOM     11  C   UNL     1      -2.646  -4.057   0.125  0.00  0.00    +0.120 A 
ATOM     12  N   UNL     1      -3.708  -4.750   0.613  0.00  0.00    -0.239 N 
ATOM     13  N   UNL     1      -4.301  -3.979   1.621  0.00  0.00    -0.166 NA
ATOM     14  C   UNL     1      -3.615  -2.862   1.741  0.00  0.00    +0.098 A 
BRANCH  14  15
ATOM     15  C   UNL     1      -3.898  -1.764   2.698  0.00  0.00    +0.002 A 
ATOM     16  C   UNL     1      -5.209  -1.343   2.912  0.00  0.00    +0.010 A 
ATOM     17  C   UNL     1      -5.466  -0.321   3.803  0.00  0.00    +0.001 A 
ATOM     18  C   UNL     1      -4.426   0.285   4.484  0.00  0.00    +0.000 A 
ATOM     19  C   UNL     1      -3.122  -0.129   4.276  0.00  0.00    +0.001 A 
ATOM     20  C   UNL     1      -2.854  -1.154   3.391  0.00  0.00    +0.010 A 
ENDBRANCH  14  15
BRANCH  12  21
ATOM     21  C   UNL     1      -4.136  -6.012   0.182  0.00  0.00    +0.065 A 
ATOM     22  C   UNL     1      -3.451  -6.672  -0.829  0.00  0.00    +0.028 A 
ATOM     23  C   UNL     1      -3.875  -7.916  -1.251  0.00  0.00    +0.002 A 
ATOM     24  C   UNL     1      -4.981  -8.506  -0.668  0.00  0.00    +0.000 A 
ATOM     25  C   UNL     1      -5.666  -7.852   0.340  0.00  0.00    +0.002 A 
ATOM     26  C   UNL     1      -5.243  -6.610   0.770  0.00  0.00    +0.028 A 
ENDBRANCH  12  21
ENDBRANCH   2  10
BRANCH   7  27
ATOM     27  C   UNL     1      -3.010  -0.065  -2.509  0.00  0.00    +0.436 C 
ATOM     28  F   UNL     1      -1.973   0.848  -2.731  0.00  0.00    -0.166 F 
ATOM     29  F   UNL     1      -3.451  -0.576  -3.734  0.00  0.00    -0.166 F 
ATOM     30  F   UNL     1      -4.070   0.581  -1.864  0.00  0.00    -0.166 F 
ENDBRANCH   7  27
BRANCH   1  32
ATOM     31  C   UNL     1      -1.473   1.805   0.219  0.00  0.00    +0.086 C 
ATOM     32  C   UNL     1      -1.158   0.453  -0.367  0.00  0.00    +0.140 C 
ATOM     33  O   UNL     1      -0.109   0.272  -0.938  0.00  0.00    -0.297 OA
ENDBRANCH   1  32
BRANCH   7  34
ATOM     34  O   UNL     1      -3.514  -2.212  -1.517  0.00  0.00    -0.364 OA
ATOM     35  H   UNL     1      -3.784  -2.597  -2.362  0.00  0.00    +0.212 HD
ENDBRANCH   7  34
TORSDOF 6
