REMARK  Name = ZINC36013877
REMARK  10 active torsions:
REMARK  status: ('A' for Active; 'I' for Inactive)
REMARK    1  A    between atoms: C_1  and  C_2
REMARK    2  A    between atoms: C_2  and  N_3
REMARK    3  A    between atoms: C_4  and  C_23
REMARK    4  A    between atoms: C_5  and  C_18
REMARK    5  A    between atoms: C_6  and  C_11
REMARK    6  A    between atoms: C_18  and  O_20
REMARK    7  A    between atoms: O_20  and  C_21
REMARK    8  A    between atoms: C_21  and  C_22
REMARK    9  A    between atoms: C_23  and  N_24
REMARK   10  A    between atoms: C_31  and  C_33
REMARK                            x       y       z     vdW  Elec       q    Type
REMARK                         _______ _______ _______ _____ _____    ______ ____
ROOT
ATOM      1  N   UNL     1       1.099  -0.319  -1.608  0.00  0.00    -0.261 N 
ATOM      2  C   UNL     1       0.245  -0.771  -2.573  0.00  0.00    +0.010 C 
ATOM      3  C   UNL     1       0.704  -1.442  -3.651  0.00  0.00    +0.076 C 
ATOM      4  C   UNL     1       2.198  -1.675  -3.753  0.00  0.00    +0.143 C 
ATOM      5  N   UNL     1       3.032  -1.147  -2.660  0.00  0.00    -0.288 N 
ATOM      6  C   UNL     1       2.426  -0.492  -1.650  0.00  0.00    +0.307 C 
ATOM      7  O   UNL     1       3.105  -0.049  -0.745  0.00  0.00    -0.252 OA
ATOM      8  H   UNL     1       3.995  -1.264  -2.669  0.00  0.00    +0.151 HD
ENDROOT
BRANCH   4   9
ATOM      9  C   UNL     1       2.432  -3.161  -3.838  0.00  0.00    -0.022 A 
ATOM     10  C   UNL     1       2.400  -3.932  -2.692  0.00  0.00    +0.007 A 
ATOM     11  C   UNL     1       2.614  -5.295  -2.769  0.00  0.00    +0.020 A 
ATOM     12  C   UNL     1       2.861  -5.888  -3.994  0.00  0.00    +0.041 A 
ATOM     13  C   UNL     1       2.893  -5.116  -5.142  0.00  0.00    +0.020 A 
ATOM     14  C   UNL     1       2.673  -3.753  -5.064  0.00  0.00    +0.007 A 
ATOM     15 CL   UNL     1       3.131  -7.600  -4.093  0.00  0.00    -0.084 Cl
ENDBRANCH   4   9
BRANCH   1  17
ATOM     16  C   UNL     1       0.587   1.907  -0.732  0.00  0.00    +0.025 C 
ATOM     17  C   UNL     1       0.531   0.401  -0.465  0.00  0.00    +0.111 C 
ENDBRANCH   1  17
BRANCH   3  18
ATOM     18  C   UNL     1      -0.179  -1.911  -4.651  0.00  0.00    +0.339 C 
ATOM     19  O   UNL     1      -1.366  -1.651  -4.586  0.00  0.00    -0.245 OA
BRANCH  18  20
ATOM     20  O   UNL     1       0.295  -2.649  -5.678  0.00  0.00    -0.462 OA
BRANCH  20  21
ATOM     21  C   UNL     1      -0.654  -3.090  -6.652  0.00  0.00    +0.229 C 
ATOM     22  C   UNL     1       0.064  -3.904  -7.730  0.00  0.00    +0.048 C 
ENDBRANCH  20  21
ENDBRANCH  18  20
ENDBRANCH   3  18
BRANCH   2  23
ATOM     23  C   UNL     1      -1.234  -0.518  -2.432  0.00  0.00    -0.026 C 
BRANCH  23  24
ATOM     24  N   UNL     1      -1.889  -1.722  -1.903  0.00  0.00    +0.384 N 
ATOM     25  C   UNL     1      -3.336  -1.535  -1.990  0.00  0.00    -0.077 C 
ATOM     26  C   UNL     1      -4.003  -2.882  -2.161  0.00  0.00    +0.000 C 
ATOM     27  C   UNL     1      -4.411  -3.431  -0.782  0.00  0.00    +0.106 C 
ATOM     28  N   UNL     1      -3.371  -3.153   0.229  0.00  0.00    -0.299 N 
ATOM     29  C   UNL     1      -1.958  -3.293  -0.053  0.00  0.00    +0.089 C 
ATOM     30  C   UNL     1      -1.396  -1.961  -0.601  0.00  0.00    -0.059 C 
ATOM     31  C   UNL     1      -3.751  -2.753   1.459  0.00  0.00    +0.247 C 
ATOM     32  O   UNL     1      -2.915  -2.415   2.273  0.00  0.00    -0.270 OA
ATOM     33  H   UNL     1      -1.635  -2.504  -2.488  0.00  0.00    -0.081 HD
BRANCH  31  34
ATOM     34  C   UNL     1      -5.186  -2.724   1.816  0.00  0.00    +0.037 A 
ATOM     35  C   UNL     1      -6.050  -3.704   1.325  0.00  0.00    +0.013 A 
ATOM     36  C   UNL     1      -7.387  -3.673   1.663  0.00  0.00    +0.001 A 
ATOM     37  C   UNL     1      -7.872  -2.672   2.487  0.00  0.00    +0.000 A 
ATOM     38  C   UNL     1      -7.021  -1.698   2.977  0.00  0.00    +0.001 A 
ATOM     39  C   UNL     1      -5.680  -1.721   2.651  0.00  0.00    +0.013 A 
ENDBRANCH  31  34
ENDBRANCH  23  24
ENDBRANCH   2  23
TORSDOF 8
