REMARK  Name = ZINC19593915
REMARK  14 active torsions:
REMARK  status: ('A' for Active; 'I' for Inactive)
REMARK    1  A    between atoms: C_1  and  C_2
REMARK    2  A    between atoms: C_2  and  C_3
REMARK    3  A    between atoms: C_2  and  C_4
REMARK    4  A    between atoms: C_4  and  C_5
REMARK    5  A    between atoms: C_5  and  N_6
REMARK    6  A    between atoms: N_6  and  C_7
REMARK    7  A    between atoms: N_6  and  C_8
REMARK    8  A    between atoms: C_11  and  C_14
REMARK    9  A    between atoms: C_15  and  C_16
REMARK   10  A    between atoms: C_15  and  C_18
REMARK   11  A    between atoms: C_19  and  C_28
REMARK   12  A    between atoms: C_20  and  N_27
REMARK   13  A    between atoms: C_21  and  C_25
REMARK   14  A    between atoms: C_22  and  N_24
REMARK                            x       y       z     vdW  Elec       q    Type
REMARK                         _______ _______ _______ _____ _____    ______ ____
ROOT
ATOM      1  C   UNL     1      -2.497   1.016   0.019  0.00  0.00    +0.029 C 
ATOM      2  C   UNL     1      -2.536  -0.258   0.512  0.00  0.00    +0.079 C 
ENDROOT
BRANCH   1   6
ATOM      3  C   UNL     1       1.164   3.128  -0.096  0.00  0.00    +0.029 A 
ATOM      4  C   UNL     1       1.160   1.740  -0.211  0.00  0.00    +0.024 A 
ATOM      5  C   UNL     1      -0.019   1.053  -0.170  0.00  0.00    +0.010 A 
ATOM      6  C   UNL     1      -1.228   1.747  -0.019  0.00  0.00    -0.024 A 
ATOM      7  C   UNL     1      -1.218   3.145   0.101  0.00  0.00    +0.010 A 
ATOM      8  C   UNL     1      -0.033   3.823   0.059  0.00  0.00    +0.024 A 
BRANCH   3   9
ATOM      9  N   UNL     1       2.368   3.823  -0.138  0.00  0.00    -0.333 N 
ATOM     10  C   UNL     1       3.629   3.095  -0.302  0.00  0.00    +0.129 C 
BRANCH   9  11
ATOM     11  C   UNL     1       2.375   5.283  -0.018  0.00  0.00    +0.105 C 
BRANCH  11  12
ATOM     12  C   UNL     1       2.496   5.673   1.456  0.00  0.00    +0.022 C 
BRANCH  12  14
ATOM     13  C   UNL     1       1.153   7.754   1.125  0.00  0.00    +0.007 C 
ATOM     14  C   UNL     1       2.503   7.198   1.582  0.00  0.00    -0.016 C 
ATOM     15  C   UNL     1       2.749   7.589   3.041  0.00  0.00    +0.007 C 
ENDBRANCH  12  14
ENDBRANCH  11  12
ENDBRANCH   9  11
ENDBRANCH   3   9
ENDBRANCH   1   6
BRANCH   2  16
ATOM     16  C   UNL     1      -3.777  -1.048   0.414  0.00  0.00    +0.102 A 
ATOM     17  C   UNL     1      -3.807  -2.363   0.921  0.00  0.00    +0.100 A 
ATOM     18  C   UNL     1      -5.000  -3.104   0.825  0.00  0.00    +0.065 A 
ATOM     19  C   UNL     1      -6.112  -2.495   0.213  0.00  0.00    +0.113 A 
ATOM     20  C   UNL     1      -5.990  -1.179  -0.270  0.00  0.00    +0.136 A 
ATOM     21  N   UNL     1      -4.852  -0.514  -0.156  0.00  0.00    -0.229 NA
BRANCH  20  22
ATOM     22  N   UNL     1      -7.074  -0.572  -0.872  0.00  0.00    -0.342 N 
ATOM     23  H   UNL     1      -6.988   0.456  -1.253  0.00  0.00    +0.144 HD
ATOM     24  H   UNL     1      -8.024  -1.117  -0.972  0.00  0.00    +0.144 HD
ENDBRANCH  20  22
BRANCH  18  25
ATOM     25  N   UNL     1      -5.076  -4.394   1.312  0.00  0.00    -0.356 N 
ATOM     26  H   UNL     1      -6.016  -4.958   1.229  0.00  0.00    +0.142 HD
ATOM     27  H   UNL     1      -4.197  -4.856   1.783  0.00  0.00    +0.142 HD
ENDBRANCH  18  25
BRANCH  19  28
ATOM     28  C   UNL     1      -7.348  -3.204   0.083  0.00  0.00    +0.104 C 
ATOM     29  N   UNL     1      -8.330  -3.767  -0.020  0.00  0.00    -0.191 NA
ENDBRANCH  19  28
BRANCH  17  30
ATOM     30  C   UNL     1      -2.643  -2.935   1.528  0.00  0.00    +0.103 C 
ATOM     31  N   UNL     1      -1.720  -3.388   2.011  0.00  0.00    -0.191 NA
ENDBRANCH  17  30
ENDBRANCH   2  16
BRANCH   2  32
ATOM     32  C   UNL     1      -1.373  -0.825   1.125  0.00  0.00    +0.101 C 
ATOM     33  N   UNL     1      -0.449  -1.274   1.611  0.00  0.00    -0.191 NA
ENDBRANCH   2  32
TORSDOF 11
