REMARK  Name = ZINC15857414
REMARK  15 active torsions:
REMARK  status: ('A' for Active; 'I' for Inactive)
REMARK    1  A    between atoms: C_1  and  C_2
REMARK    2  A    between atoms: C_2  and  O_3
REMARK    3  A    between atoms: O_3  and  C_4
REMARK    4  A    between atoms: C_4  and  C_6
REMARK    5  A    between atoms: C_8  and  C_34
REMARK    6  A    between atoms: C_15  and  C_26
REMARK    7  A    between atoms: C_17  and  C_21
REMARK    8  A    between atoms: C_18  and  C_20
REMARK    9  A    between atoms: C_21  and  O_23
REMARK   10  A    between atoms: O_23  and  C_24
REMARK   11  A    between atoms: C_24  and  C_25
REMARK   12  A    between atoms: C_31  and  O_32
REMARK   13  A    between atoms: O_32  and  C_33
REMARK   14  A    between atoms: C_39  and  O_40
REMARK   15  A    between atoms: O_40  and  C_41
REMARK                            x       y       z     vdW  Elec       q    Type
REMARK                         _______ _______ _______ _____ _____    ______ ____
ROOT
ATOM      1  C   UNL     1       0.828   4.037  -1.093  0.00  0.00    +0.176 C 
ATOM      2  C   UNL     1       1.565   3.658   0.195  0.00  0.00    +0.049 C 
ATOM      3  C   UNL     1       0.726   4.121   1.389  0.00  0.00    +0.060 C 
ATOM      4  C   UNL     1       0.502   5.611   1.302  0.00  0.00    +0.016 C 
ATOM      5  C   UNL     1       0.427   6.234   0.108  0.00  0.00    +0.025 C 
ATOM      6  C   UNL     1       0.572   5.519  -1.094  0.00  0.00    +0.176 C 
ATOM      7  O   UNL     1       0.489   6.110  -2.153  0.00  0.00    -0.291 OA
ATOM      8  C   UNL     1       0.179   7.720   0.029  0.00  0.00    +0.096 C 
ATOM      9  C   UNL     1       0.474   8.385   1.341  0.00  0.00    +0.065 C 
ATOM     10  C   UNL     1       0.554   7.676   2.480  0.00  0.00    +0.016 C 
ATOM     11  N   UNL     1       0.374   6.321   2.466  0.00  0.00    -0.321 N 
ATOM     12  C   UNL     1       0.845   8.379   3.780  0.00  0.00    +0.061 C 
ATOM     13  H   UNL     1       0.122   5.801   3.402  0.00  0.00    +0.152 HD
ENDROOT
BRANCH   8  14
ATOM     14  C   UNL     1      -1.264   7.962  -0.335  0.00  0.00    +0.006 A 
ATOM     15  C   UNL     1      -2.272   7.494   0.485  0.00  0.00    +0.008 A 
ATOM     16  C   UNL     1      -3.595   7.716   0.152  0.00  0.00    +0.001 A 
ATOM     17  C   UNL     1      -3.913   8.407  -1.003  0.00  0.00    +0.004 A 
ATOM     18  C   UNL     1      -2.909   8.877  -1.826  0.00  0.00    +0.046 A 
ATOM     19  C   UNL     1      -1.580   8.660  -1.492  0.00  0.00    +0.124 A 
BRANCH  19  20
ATOM     20  O   UNL     1      -0.590   9.126  -2.298  0.00  0.00    -0.495 OA
ATOM     21  C   UNL     1      -0.990   9.835  -3.472  0.00  0.00    +0.277 C 
ENDBRANCH  19  20
ENDBRANCH   8  14
BRANCH   2  22
ATOM     22  C   UNL     1       1.747   2.163   0.254  0.00  0.00    -0.001 A 
ATOM     23  C   UNL     1       0.643   1.332   0.247  0.00  0.00    +0.007 A 
ATOM     24  C   UNL     1       0.809  -0.040   0.300  0.00  0.00    +0.001 A 
ATOM     25  C   UNL     1       2.080  -0.583   0.361  0.00  0.00    +0.004 A 
ATOM     26  C   UNL     1       3.186   0.244   0.368  0.00  0.00    +0.046 A 
ATOM     27  C   UNL     1       3.022   1.621   0.314  0.00  0.00    +0.124 A 
BRANCH  27  28
ATOM     28  O   UNL     1       4.109   2.437   0.320  0.00  0.00    -0.495 OA
ATOM     29  C   UNL     1       5.391   1.809   0.384  0.00  0.00    +0.277 C 
ENDBRANCH  27  28
ENDBRANCH   2  22
BRANCH   1  30
ATOM     30  C   UNL     1       1.674   3.669  -2.285  0.00  0.00    +0.318 C 
ATOM     31  O   UNL     1       2.756   3.156  -2.122  0.00  0.00    -0.250 OA
BRANCH  30  32
ATOM     32  O   UNL     1       1.226   3.911  -3.527  0.00  0.00    -0.464 OA
BRANCH  32  34
ATOM     33  C   UNL     1       1.419   3.881  -5.954  0.00  0.00    +0.048 C 
ATOM     34  C   UNL     1       2.095   3.531  -4.627  0.00  0.00    +0.229 C 
ENDBRANCH  32  34
ENDBRANCH  30  32
ENDBRANCH   1  30
BRANCH   9  35
ATOM     35  C   UNL     1       0.671   9.785   1.380  0.00  0.00    +0.338 C 
ATOM     36  O   UNL     1       1.708  10.265   0.961  0.00  0.00    -0.245 OA
BRANCH  35  37
ATOM     37  O   UNL     1      -0.290  10.588   1.882  0.00  0.00    -0.462 OA
BRANCH  37  38
ATOM     38  C   UNL     1      -0.023  11.992   1.891  0.00  0.00    +0.229 C 
ATOM     39  C   UNL     1      -1.218  12.735   2.492  0.00  0.00    +0.048 C 
ENDBRANCH  37  38
ENDBRANCH  35  37
ENDBRANCH   9  35
TORSDOF 10
