REMARK  Name = ZINC02218406
REMARK  8 active torsions:
REMARK  status: ('A' for Active; 'I' for Inactive)
REMARK    1  A    between atoms: C_1  and  C_2
REMARK    2  A    between atoms: C_5  and  C_8
REMARK    3  A    between atoms: C_11  and  S_19
REMARK    4  A    between atoms: N_12  and  C_13
REMARK    5  A    between atoms: S_19  and  C_20
REMARK    6  A    between atoms: C_20  and  C_21
REMARK    7  A    between atoms: N_23  and  N_24
REMARK    8  A    between atoms: C_25  and  C_26
REMARK                            x       y       z     vdW  Elec       q    Type
REMARK                         _______ _______ _______ _____ _____    ______ ____
ROOT
ATOM      1  C   UNL     1      -5.283  -9.597  -0.001  0.00  0.00    +0.165 A 
ATOM      2  N   UNL     1      -5.824  -8.458  -0.365  0.00  0.00    -0.128 NA
ATOM      3  N   UNL     1      -4.971  -7.506  -0.233  0.00  0.00    -0.122 NA
ATOM      4  C   UNL     1      -3.831  -7.980   0.216  0.00  0.00    +0.193 A 
ATOM      5  N   UNL     1      -3.990  -9.326   0.383  0.00  0.00    -0.299 N 
ENDROOT
BRANCH   1  10
ATOM      6  C   UNL     1      -7.841 -14.753  -0.002  0.00  0.00    +0.044 C 
ATOM      7  C   UNL     1      -7.171 -13.402  -0.002  0.00  0.00    -0.050 A 
ATOM      8  C   UNL     1      -7.919 -12.263   0.234  0.00  0.00    +0.004 A 
ATOM      9  C   UNL     1      -7.312 -11.024   0.236  0.00  0.00    +0.012 A 
ATOM     10  C   UNL     1      -5.940 -10.922  -0.001  0.00  0.00    +0.019 A 
ATOM     11  C   UNL     1      -5.193 -12.075  -0.244  0.00  0.00    +0.012 A 
ATOM     12  C   UNL     1      -5.811 -13.308  -0.238  0.00  0.00    +0.004 A 
ENDBRANCH   1  10
BRANCH   5  13
ATOM     13  C   UNL     1      -2.992 -10.282   0.869  0.00  0.00    +0.091 C 
ATOM     14  C   UNL     1      -2.456  -9.815   2.224  0.00  0.00    +0.025 C 
ATOM     15  C   UNL     1      -1.414 -10.814   2.731  0.00  0.00    +0.002 C 
ATOM     16  C   UNL     1      -0.261 -10.901   1.729  0.00  0.00    +0.000 C 
ATOM     17  C   UNL     1      -0.797 -11.368   0.374  0.00  0.00    +0.002 C 
ATOM     18  C   UNL     1      -1.839 -10.370  -0.133  0.00  0.00    +0.025 C 
ENDBRANCH   5  13
BRANCH   4  19
ATOM     19  S   UNL     1      -2.370  -7.052   0.547  0.00  0.00    -0.077 S 
BRANCH  19  20
ATOM     20  C   UNL     1      -2.940  -5.396   0.088  0.00  0.00    +0.174 C 
BRANCH  20  21
ATOM     21  C   UNL     1      -1.823  -4.405   0.296  0.00  0.00    +0.242 C 
ATOM     22  O   UNL     1      -0.748  -4.782   0.714  0.00  0.00    -0.273 OA
ATOM     23  N   UNL     1      -2.019  -3.101   0.018  0.00  0.00    -0.206 N 
ATOM     24  H   UNL     1      -2.994  -2.760  -0.360  0.00  0.00    +0.177 HD
BRANCH  23  25
ATOM     25  N   UNL     1      -0.982  -2.180   0.211  0.00  0.00    -0.187 NA
ATOM     26  C   UNL     1      -1.171  -0.921  -0.057  0.00  0.00    +0.145 C 
BRANCH  26  27
ATOM     27  C   UNL     1      -0.085   0.043   0.145  0.00  0.00    +0.033 A 
ATOM     28  C   UNL     1      -0.078   1.409  -0.076  0.00  0.00    +0.018 A 
ATOM     29  C   UNL     1       1.075   2.109   0.191  0.00  0.00    +0.023 A 
ATOM     30  C   UNL     1       2.164   1.443   0.660  0.00  0.00    +0.055 A 
ATOM     31  S   UNL     1       1.575  -0.240   0.740  0.00  0.00    -0.080 S 
ATOM     32 BR   UNL     1       3.868   2.126   1.112  0.00  0.00    -0.043 Br
ENDBRANCH  26  27
ENDBRANCH  23  25
ENDBRANCH  20  21
ENDBRANCH  19  20
ENDBRANCH   4  19
TORSDOF 7
