REMARK  Name = ZINC22283898
REMARK  10 active torsions:
REMARK  status: ('A' for Active; 'I' for Inactive)
REMARK    1  A    between atoms: C_1  and  C_2
REMARK    2  A    between atoms: C_7  and  C_8
REMARK    3  A    between atoms: C_8  and  N_9
REMARK    4  A    between atoms: N_9  and  C_10
REMARK    5  A    between atoms: C_11  and  C_13
REMARK    6  A    between atoms: C_13  and  C_15
REMARK    7  A    between atoms: C_13  and  S_16
REMARK    8  A    between atoms: S_16  and  C_17
REMARK    9  A    between atoms: C_20  and  C_22
REMARK   10  A    between atoms: C_27  and  C_28
REMARK                            x       y       z     vdW  Elec       q    Type
REMARK                         _______ _______ _______ _____ _____    ______ ____
ROOT
ATOM      1  C   UNL     1       4.023  -1.133  -0.348  0.00  0.00    +0.139 C 
ATOM      2  C   UNL     1       3.314  -1.867   0.792  0.00  0.00    +0.029 C 
ENDROOT
BRANCH   1   5
ATOM      3  N   UNL     1       5.988  -2.539  -0.878  0.00  0.00    -0.299 N 
ATOM      4  C   UNL     1       5.083  -3.462  -1.567  0.00  0.00    +0.132 C 
ATOM      5  C   UNL     1       5.500  -1.427  -0.293  0.00  0.00    +0.229 C 
ATOM      6  O   UNL     1       6.249  -0.663   0.278  0.00  0.00    -0.274 OA
BRANCH   3   7
ATOM      7  C   UNL     1       7.424  -2.824  -0.824  0.00  0.00    +0.142 C 
BRANCH   7  14
ATOM      8  C   UNL     1      10.172  -3.365  -0.117  0.00  0.00    +0.044 C 
ATOM      9  C   UNL     1       9.058  -3.817   0.791  0.00  0.00    -0.046 A 
ATOM     10  C   UNL     1       9.351  -4.490   1.962  0.00  0.00    +0.003 A 
ATOM     11  C   UNL     1       8.328  -4.905   2.795  0.00  0.00    +0.000 A 
ATOM     12  C   UNL     1       7.013  -4.646   2.457  0.00  0.00    +0.000 A 
ATOM     13  C   UNL     1       6.721  -3.968   1.288  0.00  0.00    +0.005 A 
ATOM     14  C   UNL     1       7.743  -3.558   0.452  0.00  0.00    -0.027 A 
ENDBRANCH   7  14
ENDBRANCH   3   7
ENDBRANCH   1   5
BRANCH   1  15
ATOM     15  S   UNL     1       3.755   0.648  -0.177  0.00  0.00    -0.053 S 
BRANCH  15  16
ATOM     16  C   UNL     1       2.012   0.721  -0.422  0.00  0.00    +0.278 A 
ATOM     17  N   UNL     1       1.217  -0.297  -0.658  0.00  0.00    -0.101 NA
ATOM     18  N   UNL     1       0.008   0.123  -0.785  0.00  0.00    -0.106 NA
ATOM     19  C   UNL     1      -0.018   1.425  -0.636  0.00  0.00    +0.249 A 
ATOM     20  O   UNL     1       1.250   1.831  -0.403  0.00  0.00    -0.411 OA
BRANCH  19  21
ATOM     21  C   UNL     1      -1.213   2.291  -0.714  0.00  0.00    +0.041 A 
ATOM     22  C   UNL     1      -1.094   3.670  -0.529  0.00  0.00    +0.013 A 
ATOM     23  C   UNL     1      -2.212   4.472  -0.608  0.00  0.00    +0.001 A 
ATOM     24  C   UNL     1      -3.453   3.913  -0.861  0.00  0.00    +0.000 A 
ATOM     25  C   UNL     1      -3.579   2.547  -1.040  0.00  0.00    +0.004 A 
ATOM     26  C   UNL     1      -2.467   1.733  -0.968  0.00  0.00    -0.038 A 
ATOM     27  C   UNL     1      -2.607   0.245  -1.164  0.00  0.00    +0.044 C 
ENDBRANCH  19  21
ENDBRANCH  15  16
ENDBRANCH   1  15
TORSDOF 6
