REMARK  Name = ZINC25360015
REMARK  11 active torsions:
REMARK  status: ('A' for Active; 'I' for Inactive)
REMARK    1  A    between atoms: C_1  and  C_2
REMARK    2  A    between atoms: C_2  and  O_3
REMARK    3  A    between atoms: O_3  and  C_4
REMARK    4  A    between atoms: C_7  and  C_11
REMARK    5  A    between atoms: C_11  and  N_12
REMARK    6  A    between atoms: N_12  and  C_13
REMARK    7  A    between atoms: C_13  and  C_14
REMARK    8  A    between atoms: C_14  and  N_15
REMARK    9  A    between atoms: C_16  and  C_18
REMARK   10  A    between atoms: C_18  and  C_19
REMARK   11  A    between atoms: C_18  and  C_20
REMARK                            x       y       z     vdW  Elec       q    Type
REMARK                         _______ _______ _______ _____ _____    ______ ____
ROOT
ATOM      1  C   UNL     1      -1.128   7.562   1.862  0.00  0.00    -0.047 C 
ENDROOT
BRANCH   1   5
ATOM      2  C   UNL     1      -0.793   3.332   1.349  0.00  0.00    +0.148 A 
ATOM      3  C   UNL     1       0.195   4.030   2.027  0.00  0.00    +0.061 A 
ATOM      4  C   UNL     1       0.087   5.399   2.187  0.00  0.00    +0.020 A 
ATOM      5  C   UNL     1      -1.010   6.071   1.681  0.00  0.00    -0.062 A 
ATOM      6  C   UNL     1      -1.999   5.377   1.008  0.00  0.00    +0.020 A 
ATOM      7  C   UNL     1      -1.893   4.009   0.841  0.00  0.00    +0.061 A 
ATOM      8 BR   UNL     1      -3.246   3.061  -0.079  0.00  0.00    -0.046 Br
ATOM      9 BR   UNL     1       1.692   3.111   2.728  0.00  0.00    -0.046 Br
BRANCH   2  10
ATOM     10  O   UNL     1      -0.688   1.987   1.186  0.00  0.00    -0.490 OA
BRANCH  10  12
ATOM     11  C   UNL     1       0.002  -0.004   0.002  0.00  0.00    +0.048 C 
ATOM     12  C   UNL     1      -0.019   1.526   0.010  0.00  0.00    +0.226 C 
ENDBRANCH  10  12
ENDBRANCH   2  10
ENDBRANCH   1   5
BRANCH   1  13
ATOM     13  N   UNL     1      -1.839   7.848   3.115  0.00  0.00    +0.383 N 
ATOM     14  H   UNL     1      -2.844   7.403   3.076  0.00  0.00    -0.085 HD
ATOM     15  H   UNL     1      -1.280   7.419   3.960  0.00  0.00    -0.085 HD
BRANCH  13  16
ATOM     16  C   UNL     1      -1.973   9.296   3.326  0.00  0.00    -0.063 C 
BRANCH  16  17
ATOM     17  C   UNL     1      -2.717   9.554   4.638  0.00  0.00    +0.085 C 
BRANCH  17  18
ATOM     18  N   UNL     1      -2.851  10.998   4.848  0.00  0.00    -0.317 N 
ATOM     19  C   UNL     1      -3.476  11.463   5.947  0.00  0.00    +0.216 C 
ATOM     20  O   UNL     1      -3.929  10.688   6.762  0.00  0.00    -0.276 OA
ATOM     21  H   UNL     1      -2.440  11.701   4.109  0.00  0.00    +0.149 HD
BRANCH  19  22
ATOM     22  C   UNL     1      -3.614  12.949   6.163  0.00  0.00    +0.069 C 
ATOM     23  C   UNL     1      -4.399  13.562   5.002  0.00  0.00    +0.017 C 
ATOM     24  C   UNL     1      -4.358  13.206   7.475  0.00  0.00    +0.017 C 
ENDBRANCH  19  22
ENDBRANCH  17  18
ENDBRANCH  16  17
ENDBRANCH  13  16
ENDBRANCH   1  13
TORSDOF 8
