REMARK  Name = ZINC38650929
REMARK  12 active torsions:
REMARK  status: ('A' for Active; 'I' for Inactive)
REMARK    1  A    between atoms: C_1  and  C_2
REMARK    2  A    between atoms: C_2  and  O_3
REMARK    3  A    between atoms: O_3  and  C_4
REMARK    4  A    between atoms: C_7  and  C_10
REMARK    5  A    between atoms: C_10  and  O_12
REMARK    6  A    between atoms: O_12  and  C_13
REMARK    7  A    between atoms: C_20  and  N_40
REMARK    8  A    between atoms: C_21  and  C_38
REMARK    9  A    between atoms: C_22  and  C_24
REMARK   10  A    between atoms: C_27  and  O_30
REMARK   11  A    between atoms: O_30  and  C_31
REMARK   12  A    between atoms: C_31  and  C_32
REMARK                            x       y       z     vdW  Elec       q    Type
REMARK                         _______ _______ _______ _____ _____    ______ ____
ROOT
ATOM      1  C   UNL     1       1.736  -7.869  -2.980  0.00  0.00    +0.135 A 
ATOM      2  C   UNL     1       1.092  -8.604  -1.995  0.00  0.00    +0.047 A 
ATOM      3  C   UNL     1       1.097  -9.984  -2.049  0.00  0.00    +0.012 A 
ATOM      4  C   UNL     1       1.743 -10.639  -3.083  0.00  0.00    +0.008 A 
ATOM      5  C   UNL     1       2.388  -9.909  -4.070  0.00  0.00    +0.138 A 
ATOM      6  C   UNL     1       2.379  -8.521  -4.019  0.00  0.00    +0.093 A 
ATOM      7  O   UNL     1       3.026 -10.532  -5.091  0.00  0.00    -0.441 OA
ATOM      8  C   UNL     1       3.377 -11.824  -4.973  0.00  0.00    +0.199 C 
ATOM      9  C   UNL     1       2.804 -12.642  -4.059  0.00  0.00    +0.098 C 
ATOM     10  C   UNL     1       1.737 -12.144  -3.125  0.00  0.00    +0.098 C 
ENDROOT
BRANCH  10  11
ATOM     11  C   UNL     1       0.391 -12.625  -3.602  0.00  0.00    -0.034 A 
ATOM     12  C   UNL     1      -0.070 -12.256  -4.852  0.00  0.00    +0.008 A 
ATOM     13  C   UNL     1      -1.304 -12.695  -5.291  0.00  0.00    +0.046 A 
ATOM     14  C   UNL     1      -2.080 -13.507  -4.477  0.00  0.00    +0.121 A 
ATOM     15  C   UNL     1      -1.615 -13.876  -3.223  0.00  0.00    +0.046 A 
ATOM     16  C   UNL     1      -0.378 -13.438  -2.791  0.00  0.00    +0.008 A 
BRANCH  14  17
ATOM     17  O   UNL     1      -3.295 -13.940  -4.907  0.00  0.00    -0.487 OA
BRANCH  17  18
ATOM     18  C   UNL     1      -4.039 -14.773  -4.016  0.00  0.00    +0.264 C 
BRANCH  18  19
ATOM     19  C   UNL     1      -5.349 -15.152  -4.658  0.00  0.00    -0.010 A 
ATOM     20  C   UNL     1      -6.463 -14.352  -4.481  0.00  0.00    +0.007 A 
ATOM     21  C   UNL     1      -7.664 -14.700  -5.070  0.00  0.00    +0.000 A 
ATOM     22  C   UNL     1      -7.751 -15.846  -5.837  0.00  0.00    +0.000 A 
ATOM     23  C   UNL     1      -6.637 -16.645  -6.015  0.00  0.00    +0.000 A 
ATOM     24  C   UNL     1      -5.435 -16.296  -5.429  0.00  0.00    +0.007 A 
ENDBRANCH  18  19
ENDBRANCH  17  18
ENDBRANCH  14  17
ENDBRANCH  10  11
BRANCH   8  25
ATOM     25  N   UNL     1       4.346 -12.329  -5.804  0.00  0.00    -0.328 N 
ATOM     26  H   UNL     1       4.766 -11.755  -6.464  0.00  0.00    +0.145 HD
ATOM     27  H   UNL     1       4.610 -13.259  -5.732  0.00  0.00    +0.145 HD
ENDBRANCH   8  25
BRANCH   9  28
ATOM     28  C   UNL     1       3.222 -14.009  -3.982  0.00  0.00    +0.101 C 
ATOM     29  N   UNL     1       3.554 -15.094  -3.920  0.00  0.00    -0.191 NA
ENDBRANCH   9  28
BRANCH   1  30
ATOM     30  O   UNL     1       1.732  -6.511  -2.928  0.00  0.00    -0.422 OA
BRANCH  30  31
ATOM     31  C   UNL     1       0.893  -5.849  -3.749  0.00  0.00    +0.344 C 
ATOM     32  O   UNL     1       0.237  -6.461  -4.569  0.00  0.00    -0.245 OA
BRANCH  31  36
ATOM     33  C   UNL     1       0.545  -1.627  -3.475  0.00  0.00    +0.121 A 
ATOM     34  C   UNL     1      -0.206  -2.325  -4.413  0.00  0.00    +0.046 A 
ATOM     35  C   UNL     1      -0.097  -3.694  -4.505  0.00  0.00    +0.018 A 
ATOM     36  C   UNL     1       0.773  -4.382  -3.654  0.00  0.00    +0.060 A 
ATOM     37  C   UNL     1       1.527  -3.677  -2.712  0.00  0.00    +0.018 A 
ATOM     38  C   UNL     1       1.415  -2.307  -2.630  0.00  0.00    +0.046 A 
BRANCH  33  39
ATOM     39  O   UNL     1       0.434  -0.277  -3.387  0.00  0.00    -0.492 OA
BRANCH  39  41
ATOM     40  C   UNL     1      -0.467   1.868  -4.039  0.00  0.00    +0.048 C 
ATOM     41  C   UNL     1      -0.478   0.358  -4.285  0.00  0.00    +0.225 C 
ENDBRANCH  39  41
ENDBRANCH  33  39
ENDBRANCH  31  36
ENDBRANCH  30  31
ENDBRANCH   1  30
TORSDOF 11
