REMARK  Name = ZINC39672289
REMARK  9 active torsions:
REMARK  status: ('A' for Active; 'I' for Inactive)
REMARK    1  A    between atoms: C_1  and  C_2
REMARK    2  A    between atoms: C_2  and  C_3
REMARK    3  A    between atoms: C_3  and  C_5
REMARK    4  A    between atoms: C_3  and  C_6
REMARK    5  A    between atoms: C_6  and  C_7
REMARK    6  A    between atoms: C_11  and  C_20
REMARK    7  A    between atoms: N_22  and  C_23
REMARK    8  A    between atoms: C_23  and  C_24
REMARK    9  A    between atoms: N_33  and  C_34
REMARK                            x       y       z     vdW  Elec       q    Type
REMARK                         _______ _______ _______ _____ _____    ______ ____
ROOT
ATOM      1  C   UNL     1      -2.524  -2.583  -0.324  0.00  0.00    +0.216 C 
ATOM      2  O   UNL     1      -3.385  -1.729  -0.324  0.00  0.00    -0.276 OA
ATOM      3  N   UNL     1      -2.865  -3.884  -0.417  0.00  0.00    -0.300 N 
ATOM      4  C   UNL     1      -1.965  -5.060  -0.427  0.00  0.00    +0.121 C 
ATOM      5  C   UNL     1      -2.701  -6.123   0.420  0.00  0.00    +0.100 C 
ATOM      6  C   UNL     1      -4.184  -5.724   0.345  0.00  0.00    -0.004 C 
ATOM      7  C   UNL     1      -4.227  -4.460  -0.526  0.00  0.00    +0.115 C 
ATOM      8  C   UNL     1      -4.719  -5.415   1.740  0.00  0.00    -0.010 C 
ATOM      9  C   UNL     1      -6.210  -5.077   1.647  0.00  0.00    -0.082 C 
ATOM     10  N   UNL     1      -6.935  -6.212   1.064  0.00  0.00    +0.379 N 
ATOM     11  C   UNL     1      -6.479  -6.444  -0.312  0.00  0.00    -0.082 C 
ATOM     12  C   UNL     1      -5.000  -6.840  -0.301  0.00  0.00    -0.010 C 
ATOM     13  H   UNL     1      -6.765  -7.038   1.617  0.00  0.00    -0.086 HD
ATOM     14  H   UNL     1      -7.924  -6.011   1.060  0.00  0.00    -0.086 HD
ENDROOT
BRANCH   5  15
ATOM     15  C   UNL     1      -2.216  -6.085   1.846  0.00  0.00    +0.218 C 
ATOM     16  O   UNL     1      -1.823  -5.043   2.326  0.00  0.00    -0.275 OA
ATOM     17  N   UNL     1      -2.220  -7.210   2.589  0.00  0.00    -0.311 N 
ATOM     18  H   UNL     1      -2.534  -8.044   2.205  0.00  0.00    +0.149 HD
BRANCH  17  19
ATOM     19  C   UNL     1      -1.748  -7.174   3.975  0.00  0.00    +0.139 C 
BRANCH  19  20
ATOM     20  C   UNL     1      -1.855  -8.551   4.578  0.00  0.00    -0.030 A 
ATOM     21  C   UNL     1      -3.018  -8.935   5.221  0.00  0.00    +0.007 A 
ATOM     22  C   UNL     1      -3.114 -10.195   5.774  0.00  0.00    +0.024 A 
ATOM     23  C   UNL     1      -2.044 -11.079   5.685  0.00  0.00    +0.033 A 
ATOM     24  C   UNL     1      -0.880 -10.694   5.038  0.00  0.00    -0.026 A 
ATOM     25  C   UNL     1      -0.792  -9.429   4.483  0.00  0.00    +0.010 A 
ATOM     26  C   UNL     1       0.295 -11.628   4.913  0.00  0.00    +0.038 C 
ATOM     27  C   UNL     1       0.220 -12.729   5.970  0.00  0.00    +0.024 C 
ATOM     28  C   UNL     1      -1.169 -13.378   5.911  0.00  0.00    +0.105 C 
ATOM     29  N   UNL     1      -2.160 -12.350   6.257  0.00  0.00    -0.333 N 
ATOM     30  C   UNL     1      -3.253 -12.652   7.185  0.00  0.00    +0.129 C 
ENDBRANCH  19  20
ENDBRANCH  17  19
ENDBRANCH   5  15
BRANCH   1  31
ATOM     31  C   UNL     1      -1.073  -2.190  -0.221  0.00  0.00    +0.099 C 
BRANCH  31  32
ATOM     32  C   UNL     1      -0.962  -0.667  -0.128  0.00  0.00    -0.006 C 
ATOM     33  C   UNL     1      -1.605  -0.187   1.175  0.00  0.00    +0.008 C 
BRANCH  32  35
ATOM     34  C   UNL     1       0.621   1.265  -0.182  0.00  0.00    +0.004 C 
ATOM     35  C   UNL     1       0.513  -0.261  -0.149  0.00  0.00    +0.000 C 
ENDBRANCH  32  35
ENDBRANCH  31  32
ENDBRANCH   1  31
TORSDOF 6
