REMARK  Name = ZINC63165321
REMARK  6 active torsions:
REMARK  status: ('A' for Active; 'I' for Inactive)
REMARK    1  A    between atoms: C_6  and  C_10
REMARK    2  A    between atoms: C_10  and  S_11
REMARK    3  A    between atoms: S_11  and  C_12
REMARK    4  A    between atoms: C_16  and  C_25
REMARK    5  A    between atoms: N_18  and  C_19
REMARK    6  A    between atoms: C_19  and  C_20
REMARK                            x       y       z     vdW  Elec       q    Type
REMARK                         _______ _______ _______ _____ _____    ______ ____
ROOT
ATOM      1  C   UNL     1       3.627  -2.939   4.061  0.00  0.00    +0.200 C 
ATOM      2  N   UNL     1       5.106  -3.048   3.962  0.00  0.00    -0.229 NA
ATOM      3  N   UNL     1       5.434  -4.272   4.697  0.00  0.00    -0.233 NA
ATOM      4  C   UNL     1       4.219  -5.112   4.695  0.00  0.00    +0.172 C 
ATOM      5  N   UNL     1       3.180  -4.353   3.957  0.00  0.00    -0.250 NA
ATOM      6  H   UNL     1       5.400  -3.115   2.999  0.00  0.00    +0.143 HD
ATOM      7  H   UNL     1       6.209  -4.756   4.268  0.00  0.00    +0.143 HD
ENDROOT
BRANCH   4   8
ATOM      8  C   UNL     1       4.497  -6.421   4.002  0.00  0.00    -0.013 A 
ATOM      9  C   UNL     1       3.490  -7.061   3.304  0.00  0.00    +0.006 A 
ATOM     10  C   UNL     1       3.745  -8.262   2.669  0.00  0.00    +0.002 A 
ATOM     11  C   UNL     1       5.006  -8.824   2.731  0.00  0.00    +0.020 A 
ATOM     12  C   UNL     1       6.014  -8.183   3.429  0.00  0.00    +0.041 A 
ATOM     13  C   UNL     1       5.761  -6.978   4.060  0.00  0.00    +0.026 A 
ATOM     14 CL   UNL     1       7.599  -8.888   3.508  0.00  0.00    -0.084 Cl
ENDBRANCH   4   8
BRANCH   1  15
ATOM     15  S   UNL     1       2.962  -1.952   2.692  0.00  0.00    -0.121 S 
BRANCH  15  16
ATOM     16  C   UNL     1       3.566  -2.800   1.206  0.00  0.00    +0.118 C 
BRANCH  16  22
ATOM     17  C   UNL     1      -0.016   1.344   0.009  0.00  0.00    +0.002 A 
ATOM     18  C   UNL     1       1.158   2.118   0.002  0.00  0.00    +0.002 A 
ATOM     19  C   UNL     1       2.389   1.570  -0.013  0.00  0.00    +0.027 A 
ATOM     20  C   UNL     1       2.533   0.108  -0.022  0.00  0.00    +0.060 A 
ATOM     21  N   UNL     1       3.569  -0.680  -0.036  0.00  0.00    -0.363 N 
ATOM     22  C   UNL     1       3.071  -2.062  -0.039  0.00  0.00    +0.184 C 
ATOM     23  N   UNL     1       1.606  -1.974  -0.024  0.00  0.00    -0.363 N 
ATOM     24  C   UNL     1       1.290  -0.712  -0.014  0.00  0.00    +0.060 A 
ATOM     25  C   UNL     1       0.002  -0.004   0.002  0.00  0.00    +0.027 A 
ATOM     26  H   UNL     1       4.499  -0.405  -0.045  0.00  0.00    +0.162 HD
ATOM     27  H   UNL     1       0.987  -2.721  -0.022  0.00  0.00    +0.162 HD
ENDBRANCH  16  22
ENDBRANCH  15  16
ENDBRANCH   1  15
BRANCH   5  28
ATOM     28  C   UNL     1       1.857  -4.534   4.568  0.00  0.00    +0.163 C 
BRANCH  28  29
ATOM     29  C   UNL     1       0.815  -3.851   3.720  0.00  0.00    +0.119 A 
ATOM     30  C   UNL     1       0.128  -4.416   2.711  0.00  0.00    +0.046 A 
ATOM     31  C   UNL     1      -0.737  -3.422   2.197  0.00  0.00    +0.041 A 
ATOM     32  C   UNL     1      -0.527  -2.310   2.924  0.00  0.00    +0.195 A 
ATOM     33  O   UNL     1       0.409  -2.577   3.849  0.00  0.00    -0.467 OA
ENDBRANCH  28  29
ENDBRANCH   5  28
TORSDOF 6
