REMARK  Name = ZINC12894707
REMARK  9 active torsions:
REMARK  status: ('A' for Active; 'I' for Inactive)
REMARK    1  A    between atoms: C_1  and  C_2
REMARK    2  A    between atoms: C_3  and  C_28
REMARK    3  A    between atoms: C_4  and  C_27
REMARK    4  A    between atoms: C_5  and  S_10
REMARK    5  A    between atoms: C_6  and  C_9
REMARK    6  A    between atoms: C_7  and  C_8
REMARK    7  A    between atoms: S_10  and  N_13
REMARK    8  A    between atoms: N_13  and  N_14
REMARK    9  A    between atoms: C_15  and  C_17
REMARK                            x       y       z     vdW  Elec       q    Type
REMARK                         _______ _______ _______ _____ _____    ______ ____
ROOT
ATOM      1  N   UNL     1       5.402  -2.966   0.227  0.00  0.00    -0.108 NA
ATOM      2  H   UNL     1       6.185  -2.870  -0.336  0.00  0.00    +0.172 HD
ENDROOT
BRANCH   1   3
ATOM      3  N   UNL     1       4.274  -2.165   0.001  0.00  0.00    -0.228 N 
ATOM      4  C   UNL     1       4.394  -0.823  -0.022  0.00  0.00    +0.259 C 
ATOM      5  O   UNL     1       5.481  -0.307   0.154  0.00  0.00    -0.269 OA
ATOM      6  H   UNL     1       3.407  -2.577  -0.139  0.00  0.00    +0.171 HD
BRANCH   4   7
ATOM      7  C   UNL     1       3.207   0.020  -0.260  0.00  0.00    +0.042 A 
ATOM      8  C   UNL     1       1.957  -0.571  -0.462  0.00  0.00    +0.017 A 
ATOM      9  C   UNL     1       0.851   0.219  -0.685  0.00  0.00    +0.050 A 
ATOM     10  C   UNL     1       0.972   1.603  -0.710  0.00  0.00    +0.162 A 
ATOM     11  C   UNL     1       2.214   2.199  -0.507  0.00  0.00    +0.163 A 
ATOM     12  C   UNL     1       3.329   1.411  -0.284  0.00  0.00    +0.062 A 
ATOM     13  O   UNL     1       2.348   3.554  -0.520  0.00  0.00    -0.485 OA
ATOM     14  C   UNL     1       1.281   4.299  -1.116  0.00  0.00    +0.270 C 
ATOM     15  C   UNL     1      -0.048   3.747  -0.583  0.00  0.00    +0.270 C 
ATOM     16  O   UNL     1      -0.133   2.362  -0.941  0.00  0.00    -0.485 OA
ENDBRANCH   4   7
ENDBRANCH   1   3
BRANCH   1  17
ATOM     17  S   UNL     1       5.396  -4.075   1.457  0.00  0.00    +0.074 S 
ATOM     18  O   UNL     1       6.602  -4.818   1.339  0.00  0.00    -0.152 OA
ATOM     19  O   UNL     1       5.048  -3.369   2.640  0.00  0.00    -0.152 OA
BRANCH  17  24
ATOM     20  C   UNL     1       0.886  -7.931   0.361  0.00  0.00    +0.044 C 
ATOM     21  C   UNL     1       2.013  -6.968   0.635  0.00  0.00    -0.044 A 
ATOM     22  C   UNL     1       3.221  -7.114  -0.020  0.00  0.00    -0.043 A 
ATOM     23  C   UNL     1       4.254  -6.231   0.231  0.00  0.00    -0.021 A 
ATOM     24  C   UNL     1       4.079  -5.201   1.137  0.00  0.00    +0.113 A 
ATOM     25  C   UNL     1       2.872  -5.058   1.795  0.00  0.00    -0.021 A 
ATOM     26  C   UNL     1       1.837  -5.939   1.541  0.00  0.00    -0.043 A 
ATOM     27  C   UNL     1       0.520  -5.779   2.255  0.00  0.00    +0.044 C 
ATOM     28  C   UNL     1       2.683  -3.939   2.787  0.00  0.00    +0.046 C 
ATOM     29  C   UNL     1       5.572  -6.390  -0.483  0.00  0.00    +0.046 C 
ATOM     30  C   UNL     1       3.412  -8.236  -1.008  0.00  0.00    +0.044 C 
ENDBRANCH  17  24
ENDBRANCH   1  17
TORSDOF 4
