REMARK  Name = ZINC00751851
REMARK  7 active torsions:
REMARK  status: ('A' for Active; 'I' for Inactive)
REMARK    1  A    between atoms: C_1  and  C_2
REMARK    2  A    between atoms: C_2  and  C_35
REMARK    3  A    between atoms: C_8  and  N_22
REMARK    4  A    between atoms: N_12  and  S_13
REMARK    5  A    between atoms: S_13  and  C_16
REMARK    6  A    between atoms: N_22  and  S_23
REMARK    7  A    between atoms: S_23  and  C_26
REMARK                            x       y       z     vdW  Elec       q    Type
REMARK                         _______ _______ _______ _____ _____    ______ ____
ROOT
ATOM      1  C   UNL     1      -0.006   1.806  -0.173  0.00  0.00    +0.011 C 
ATOM      2  C   UNL     1      -0.045   0.277  -0.137  0.00  0.00    -0.022 C 
ATOM      3  C   UNL     1       0.662  -0.277  -1.380  0.00  0.00    +0.062 C 
ATOM      4  C   UNL     1       2.118   0.119  -1.306  0.00  0.00    +0.055 A 
ATOM      5  C   UNL     1       2.755   0.358  -0.093  0.00  0.00    +0.048 A 
ATOM      6  C   UNL     1       4.126   0.718  -0.411  0.00  0.00    +0.014 A 
ATOM      7  C   UNL     1       5.224   1.065   0.375  0.00  0.00    +0.035 A 
ATOM      8  C   UNL     1       6.409   1.355  -0.293  0.00  0.00    +0.049 A 
ATOM      9  C   UNL     1       6.496   1.302  -1.680  0.00  0.00    +0.026 A 
ATOM     10  C   UNL     1       5.415   0.959  -2.472  0.00  0.00    +0.030 A 
ATOM     11  C   UNL     1       4.218   0.664  -1.824  0.00  0.00    +0.073 A 
ATOM     12  N   UNL     1       2.989   0.298  -2.312  0.00  0.00    -0.214 N 
ATOM     13  C   UNL     1       2.088   0.234   1.151  0.00  0.00    +0.166 C 
ATOM     14  O   UNL     1       2.656   0.481   2.194  0.00  0.00    -0.292 OA
ATOM     15  C   UNL     1       0.644  -0.217   1.135  0.00  0.00    +0.086 C 
ATOM     16  C   UNL     1      -1.502  -0.192  -0.138  0.00  0.00    +0.011 C 
ENDROOT
BRANCH  12  17
ATOM     17  S   UNL     1       2.630   0.105  -3.917  0.00  0.00    +0.084 S 
ATOM     18  O   UNL     1       3.857  -0.169  -4.578  0.00  0.00    -0.148 OA
ATOM     19  O   UNL     1       1.517  -0.776  -3.982  0.00  0.00    -0.148 OA
BRANCH  17  20
ATOM     20  C   UNL     1       2.072   1.665  -4.518  0.00  0.00    +0.111 A 
ATOM     21  C   UNL     1       0.729   1.988  -4.461  0.00  0.00    +0.029 A 
ATOM     22  C   UNL     1       0.291   3.212  -4.932  0.00  0.00    +0.002 A 
ATOM     23  C   UNL     1       1.197   4.113  -5.459  0.00  0.00    +0.000 A 
ATOM     24  C   UNL     1       2.540   3.791  -5.515  0.00  0.00    +0.002 A 
ATOM     25  C   UNL     1       2.978   2.569  -5.040  0.00  0.00    +0.029 A 
ENDBRANCH  17  20
ENDBRANCH  12  17
BRANCH   8  26
ATOM     26  N   UNL     1       7.541   1.709   0.448  0.00  0.00    -0.216 N 
ATOM     27  H   UNL     1       7.468   2.361   1.163  0.00  0.00    +0.174 HD
BRANCH  26  28
ATOM     28  S   UNL     1       9.005   1.017   0.105  0.00  0.00    +0.072 S 
ATOM     29  O   UNL     1       9.223   1.196  -1.287  0.00  0.00    -0.150 OA
ATOM     30  O   UNL     1       9.918   1.490   1.087  0.00  0.00    -0.150 OA
BRANCH  28  31
ATOM     31  C   UNL     1       8.837  -0.717   0.369  0.00  0.00    +0.108 A 
ATOM     32  C   UNL     1       8.995  -1.241   1.639  0.00  0.00    +0.029 A 
ATOM     33  C   UNL     1       8.863  -2.602   1.846  0.00  0.00    +0.002 A 
ATOM     34  C   UNL     1       8.572  -3.437   0.784  0.00  0.00    +0.000 A 
ATOM     35  C   UNL     1       8.412  -2.913  -0.485  0.00  0.00    +0.002 A 
ATOM     36  C   UNL     1       8.541  -1.552  -0.691  0.00  0.00    +0.029 A 
ENDBRANCH  28  31
ENDBRANCH  26  28
ENDBRANCH   8  26
TORSDOF 5
