REMARK  Name = ZINC12858013
REMARK  8 active torsions:
REMARK  status: ('A' for Active; 'I' for Inactive)
REMARK    1  A    between atoms: C_1  and  C_2
REMARK    2  A    between atoms: C_2  and  C_3
REMARK    3  A    between atoms: C_9  and  C_23
REMARK    4  A    between atoms: C_11  and  N_22
REMARK    5  A    between atoms: C_12  and  C_16
REMARK    6  A    between atoms: N_18  and  C_19
REMARK    7  A    between atoms: C_19  and  C_20
REMARK    8  A    between atoms: C_19  and  C_21
REMARK                            x       y       z     vdW  Elec       q    Type
REMARK                         _______ _______ _______ _____ _____    ______ ____
ROOT
ATOM      1  C   UNL     1       2.185   1.228   2.374  0.00  0.00    -0.007 C 
ATOM      2  C   UNL     1       1.986  -0.150   3.016  0.00  0.00    +0.010 C 
ATOM      3  C   UNL     1       0.995  -0.940   2.164  0.00  0.00    +0.056 C 
ATOM      4  C   UNL     1      -0.250  -0.130   1.911  0.00  0.00    +0.046 A 
ATOM      5  C   UNL     1      -0.293   1.241   2.087  0.00  0.00    -0.013 A 
ATOM      6  C   UNL     1      -1.462   1.933   1.836  0.00  0.00    +0.071 A 
ATOM      7  C   UNL     1      -2.610   1.232   1.398  0.00  0.00    +0.041 A 
ATOM      8  C   UNL     1      -3.930   1.752   1.076  0.00  0.00    +0.054 A 
ATOM      9  C   UNL     1      -4.901   0.864   0.670  0.00  0.00    +0.097 A 
ATOM     10  S   UNL     1      -4.064  -0.708   0.707  0.00  0.00    -0.062 S 
ATOM     11  C   UNL     1      -2.463  -0.166   1.253  0.00  0.00    +0.112 A 
ATOM     12  N   UNL     1      -1.331  -0.781   1.505  0.00  0.00    -0.244 NA
ATOM     13  C   UNL     1       0.900   2.034   2.554  0.00  0.00    +0.041 C 
ENDROOT
BRANCH   9  14
ATOM     14  C   UNL     1      -6.244   1.136   0.308  0.00  0.00    +0.253 C 
ATOM     15  O   UNL     1      -6.663   2.279   0.337  0.00  0.00    -0.270 OA
ATOM     16  N   UNL     1      -7.058   0.129  -0.067  0.00  0.00    -0.309 N 
ATOM     17  H   UNL     1      -6.724  -0.781  -0.090  0.00  0.00    +0.149 HD
BRANCH  16  18
ATOM     18  C   UNL     1      -8.446   0.410  -0.441  0.00  0.00    +0.067 C 
ATOM     19  C   UNL     1      -8.506   0.813  -1.915  0.00  0.00    +0.027 C 
ATOM     20  C   UNL     1      -9.297  -0.842  -0.219  0.00  0.00    +0.027 C 
ENDBRANCH  16  18
ENDBRANCH   9  14
BRANCH   6  21
ATOM     21  C   UNL     1      -1.512   3.428   2.022  0.00  0.00    +0.418 C 
ATOM     22  F   UNL     1      -0.456   3.831   2.846  0.00  0.00    -0.166 F 
ATOM     23  F   UNL     1      -1.400   4.057   0.778  0.00  0.00    -0.166 F 
ATOM     24  F   UNL     1      -2.728   3.783   2.616  0.00  0.00    -0.166 F 
ENDBRANCH   6  21
BRANCH   8  25
ATOM     25  N   UNL     1      -4.204   3.109   1.176  0.00  0.00    -0.356 N 
ATOM     26  H   UNL     1      -3.528   3.760   0.929  0.00  0.00    +0.142 HD
ATOM     27  H   UNL     1      -5.071   3.407   1.493  0.00  0.00    +0.142 HD
ENDBRANCH   8  25
BRANCH   1  29
ATOM     28  C   UNL     1       4.648   1.191   2.790  0.00  0.00    +0.004 C 
ATOM     29  C   UNL     1       3.347   1.951   3.056  0.00  0.00    +0.000 C 
ENDBRANCH   1  29
TORSDOF 5
