REMARK  Name = ZINC01804877
REMARK  8 active torsions:
REMARK  status: ('A' for Active; 'I' for Inactive)
REMARK    1  A    between atoms: C_1  and  C_2
REMARK    2  A    between atoms: C_9  and  N_14
REMARK    3  A    between atoms: C_10  and  C_11
REMARK    4  A    between atoms: C_15  and  C_17
REMARK    5  A    between atoms: C_17  and  C_33
REMARK    6  A    between atoms: C_18  and  C_19
REMARK    7  A    between atoms: C_22  and  C_24
REMARK    8  A    between atoms: C_28  and  N_30
REMARK                            x       y       z     vdW  Elec       q    Type
REMARK                         _______ _______ _______ _____ _____    ______ ____
ROOT
ATOM      1  N   UNL     1       5.058   9.370   0.013  0.00  0.00    -0.275 N 
ATOM      2  C   UNL     1       3.720   9.534   0.026  0.00  0.00    +0.259 C 
ATOM      3  O   UNL     1       3.245  10.655   0.037  0.00  0.00    -0.269 OA
ATOM      4  H   UNL     1       5.437   8.477   0.004  0.00  0.00    +0.156 HD
ENDROOT
BRANCH   1  12
ATOM      5  C   UNL     1       9.411  15.867  -0.077  0.00  0.00    +0.008 C 
ATOM      6  C   UNL     1       8.922  14.447  -0.369  0.00  0.00    -0.009 C 
ATOM      7  C   UNL     1       9.736  13.444   0.455  0.00  0.00    +0.008 C 
ATOM      8  C   UNL     1       9.429  12.019  -0.008  0.00  0.00    +0.037 C 
ATOM      9  C   UNL     1       7.919  11.815   0.003  0.00  0.00    -0.023 A 
ATOM     10  C   UNL     1       7.074  12.869   0.017  0.00  0.00    -0.004 A 
ATOM     11  S   UNL     1       5.455  12.153   0.027  0.00  0.00    -0.077 S 
ATOM     12  C   UNL     1       5.892  10.476   0.012  0.00  0.00    +0.085 A 
ATOM     13  C   UNL     1       7.279  10.510   0.006  0.00  0.00    +0.068 A 
ATOM     14  C   UNL     1       7.442  14.321   0.022  0.00  0.00    +0.046 C 
BRANCH  13  15
ATOM     15  C   UNL     1       8.070   9.276  -0.003  0.00  0.00    +0.244 C 
ATOM     16  O   UNL     1       8.394   8.768  -1.060  0.00  0.00    -0.270 OA
ATOM     17  N   UNL     1       8.439   8.704   1.161  0.00  0.00    -0.325 N 
ATOM     18  H   UNL     1       8.181   9.110   2.004  0.00  0.00    +0.145 HD
ATOM     19  H   UNL     1       8.962   7.888   1.156  0.00  0.00    +0.145 HD
ENDBRANCH  13  15
ENDBRANCH   1  12
BRANCH   2  20
ATOM     20  C   UNL     1       2.837   8.363   0.026  0.00  0.00    +0.117 C 
ATOM     21  C   UNL     1       1.459   8.532   0.039  0.00  0.00    +0.070 C 
BRANCH  21  22
ATOM     22  C   UNL     1       0.614   7.410   0.040  0.00  0.00    +0.130 A 
ATOM     23  C   UNL     1      -0.773   7.436   0.052  0.00  0.00    +0.050 A 
ATOM     24  C   UNL     1      -1.201   6.110   0.048  0.00  0.00    +0.050 A 
ATOM     25  C   UNL     1      -0.070   5.321   0.033  0.00  0.00    +0.136 A 
ATOM     26  O   UNL     1       1.011   6.120   0.034  0.00  0.00    -0.455 OA
BRANCH  25  27
ATOM     27  C   UNL     1      -0.050   3.845   0.024  0.00  0.00    +0.019 A 
ATOM     28  C   UNL     1      -1.249   3.127   0.031  0.00  0.00    +0.012 A 
ATOM     29  C   UNL     1      -1.222   1.748   0.017  0.00  0.00    +0.003 A 
ATOM     30  C   UNL     1      -0.013   1.076   0.008  0.00  0.00    +0.033 A 
ATOM     31  C   UNL     1       1.178   1.781   0.000  0.00  0.00    +0.127 A 
ATOM     32  C   UNL     1       1.167   3.160   0.008  0.00  0.00    +0.044 A 
BRANCH  31  33
ATOM     33  N   UNL     1       2.467   1.053  -0.016  0.00  0.00    +0.056 N 
ATOM     34  O   UNL     1       2.478  -0.165  -0.022  0.00  0.00    -0.126 OA
ATOM     35  O   UNL     1       3.516   1.671  -0.022  0.00  0.00    -0.126 OA
ENDBRANCH  31  33
ENDBRANCH  25  27
ENDBRANCH  21  22
BRANCH  20  36
ATOM     36  C   UNL     1       3.397   7.044   0.013  0.00  0.00    +0.104 C 
ATOM     37  N   UNL     1       3.840   5.999   0.002  0.00  0.00    -0.191 NA
ENDBRANCH  20  36
ENDBRANCH   2  20
TORSDOF 7
