REMARK  Name = ZINC06545744
REMARK  10 active torsions:
REMARK  status: ('A' for Active; 'I' for Inactive)
REMARK    1  A    between atoms: C_1  and  C_2
REMARK    2  A    between atoms: C_2  and  O_3
REMARK    3  A    between atoms: O_3  and  C_4
REMARK    4  A    between atoms: C_4  and  C_6
REMARK    5  A    between atoms: C_7  and  C_32
REMARK    6  A    between atoms: C_9  and  N_31
REMARK    7  A    between atoms: C_10  and  C_29
REMARK    8  A    between atoms: C_11  and  C_13
REMARK    9  A    between atoms: C_17  and  C_28
REMARK   10  A    between atoms: C_21  and  N_22
REMARK                            x       y       z     vdW  Elec       q    Type
REMARK                         _______ _______ _______ _____ _____    ______ ____
ROOT
ATOM      1  C   UNL     1      -3.171   2.329   2.939  0.00  0.00    +0.004 A 
ATOM      2  C   UNL     1      -4.110   3.240   2.559  0.00  0.00    +0.018 A 
ATOM      3  C   UNL     1      -5.276   2.771   1.920  0.00  0.00    -0.001 A 
ATOM      4  C   UNL     1      -6.280   3.655   1.498  0.00  0.00    +0.013 A 
ATOM      5  C   UNL     1      -7.396   3.166   0.888  0.00  0.00    -0.050 A 
ATOM      6  C   UNL     1      -7.553   1.798   0.678  0.00  0.00    +0.005 A 
ATOM      7  C   UNL     1      -6.598   0.912   1.075  0.00  0.00    +0.026 A 
ATOM      8  C   UNL     1      -5.433   1.380   1.707  0.00  0.00    +0.048 A 
ATOM      9  C   UNL     1      -3.385   0.964   2.701  0.00  0.00    +0.103 A 
ATOM     10  C   UNL     1      -8.474   4.116   0.436  0.00  0.00    +0.044 C 
ATOM     11  N   UNL     1      -4.488   0.456   2.096  0.00  0.00    -0.343 N 
ATOM     12  H   UNL     1      -4.610  -0.551   1.937  0.00  0.00    +0.167 HD
ENDROOT
BRANCH   1  18
ATOM     13  C   UNL     1      -1.202   3.788   2.747  0.00  0.00    +0.087 C 
ATOM     14  C   UNL     1      -1.241   5.098   3.025  0.00  0.00    +0.115 C 
ATOM     15  O   UNL     1      -1.913   5.586   4.078  0.00  0.00    -0.445 OA
ATOM     16  C   UNL     1      -2.234   4.765   5.093  0.00  0.00    +0.198 C 
ATOM     17  C   UNL     1      -2.252   3.418   4.943  0.00  0.00    +0.098 C 
ATOM     18  C   UNL     1      -1.907   2.787   3.621  0.00  0.00    +0.108 C 
ATOM     19  C   UNL     1      -0.510   6.056   2.120  0.00  0.00    +0.087 C 
BRANCH  16  20
ATOM     20  N   UNL     1      -2.552   5.305   6.314  0.00  0.00    -0.328 N 
ATOM     21  H   UNL     1      -2.785   4.724   7.055  0.00  0.00    +0.145 HD
ATOM     22  H   UNL     1      -2.544   6.267   6.436  0.00  0.00    +0.145 HD
ENDBRANCH  16  20
BRANCH  13  23
ATOM     23  C   UNL     1      -0.481   3.338   1.614  0.00  0.00    +0.339 C 
ATOM     24  O   UNL     1       0.616   2.831   1.754  0.00  0.00    -0.245 OA
BRANCH  23  25
ATOM     25  O   UNL     1      -1.010   3.472   0.380  0.00  0.00    -0.462 OA
BRANCH  25  27
ATOM     26  C   UNL     1      -0.977   3.232  -2.024  0.00  0.00    +0.048 C 
ATOM     27  C   UNL     1      -0.285   2.888  -0.704  0.00  0.00    +0.229 C 
ENDBRANCH  25  27
ENDBRANCH  23  25
ENDBRANCH  13  23
BRANCH  17  28
ATOM     28  C   UNL     1      -2.603   2.587   6.054  0.00  0.00    +0.101 C 
ATOM     29  N   UNL     1      -2.881   1.927   6.936  0.00  0.00    -0.191 NA
ENDBRANCH  17  28
ENDBRANCH   1  18
BRANCH   9  30
ATOM     30  N   UNL     1      -2.423   0.048   3.099  0.00  0.00    -0.316 N 
ATOM     31  C   UNL     1      -1.792  -0.591   1.937  0.00  0.00    +0.106 C 
ATOM     32  C   UNL     1      -0.641  -1.484   2.406  0.00  0.00    +0.019 C 
ATOM     33  C   UNL     1      -1.185  -2.547   3.364  0.00  0.00    +0.003 C 
ATOM     34  C   UNL     1      -1.879  -1.856   4.541  0.00  0.00    +0.019 C 
ATOM     35  C   UNL     1      -2.994  -0.953   4.010  0.00  0.00    +0.106 C 
ENDBRANCH   9  30
TORSDOF 7
