REMARK  Name = ZINC35072237
REMARK  11 active torsions:
REMARK  status: ('A' for Active; 'I' for Inactive)
REMARK    1  A    between atoms: C_1  and  C_2
REMARK    2  A    between atoms: C_2  and  C_3
REMARK    3  A    between atoms: C_3  and  C_5
REMARK    4  A    between atoms: C_3  and  N_23
REMARK    5  A    between atoms: N_15  and  C_16
REMARK    6  A    between atoms: N_23  and  C_24
REMARK    7  A    between atoms: C_24  and  C_25
REMARK    8  A    between atoms: C_25  and  N_26
REMARK    9  A    between atoms: N_26  and  C_27
REMARK   10  A    between atoms: N_26  and  C_28
REMARK   11  A    between atoms: C_29  and  C_31
REMARK                            x       y       z     vdW  Elec       q    Type
REMARK                         _______ _______ _______ _____ _____    ______ ____
ROOT
ATOM      1  C   UNL     1       0.687  -1.365  -1.250  0.00  0.00    +0.138 A 
ATOM      2  N   UNL     1       0.265  -2.415  -0.613  0.00  0.00    -0.231 NA
ATOM      3  C   UNL     1      -0.165  -3.520  -1.271  0.00  0.00    +0.078 A 
ATOM      4  C   UNL     1      -0.619  -4.650  -0.587  0.00  0.00    +0.028 A 
ATOM      5  C   UNL     1      -1.048  -5.750  -1.295  0.00  0.00    +0.002 A 
ATOM      6  C   UNL     1      -1.034  -5.752  -2.684  0.00  0.00    +0.001 A 
ATOM      7  C   UNL     1      -0.591  -4.650  -3.382  0.00  0.00    +0.015 A 
ATOM      8  C   UNL     1      -0.153  -3.526  -2.684  0.00  0.00    +0.065 A 
ATOM      9  C   UNL     1       0.330  -2.321  -3.375  0.00  0.00    +0.266 A 
ATOM     10  O   UNL     1       0.366  -2.261  -4.590  0.00  0.00    -0.267 OA
ATOM     11  N   UNL     1       0.728  -1.280  -2.607  0.00  0.00    -0.263 N 
ENDROOT
BRANCH  11  12
ATOM     12  C   UNL     1       1.192  -0.107  -3.216  0.00  0.00    +0.053 A 
ATOM     13  C   UNL     1       2.412  -0.103  -3.881  0.00  0.00    +0.026 A 
ATOM     14  C   UNL     1       2.867   1.054  -4.480  0.00  0.00    +0.003 A 
ATOM     15  C   UNL     1       2.110   2.210  -4.419  0.00  0.00    +0.020 A 
ATOM     16  C   UNL     1       0.895   2.211  -3.757  0.00  0.00    +0.043 A 
ATOM     17  C   UNL     1       0.432   1.053  -3.160  0.00  0.00    +0.046 A 
ATOM     18 CL   UNL     1      -0.052   3.664  -3.683  0.00  0.00    -0.083 Cl
ENDBRANCH  11  12
BRANCH   1  19
ATOM     19  C   UNL     1       1.148  -0.177  -0.445  0.00  0.00    +0.142 C 
BRANCH  19  20
ATOM     20  N   UNL     1       2.610  -0.091  -0.495  0.00  0.00    -0.293 N 
ATOM     21  C   UNL     1       3.361  -1.114  -0.041  0.00  0.00    +0.219 C 
ATOM     22  O   UNL     1       2.830  -2.141   0.324  0.00  0.00    -0.275 OA
BRANCH  21  23
ATOM     23  C   UNL     1       4.861  -0.981   0.012  0.00  0.00    +0.075 C 
ATOM     24  C   UNL     1       5.471  -1.328  -1.362  0.00  0.00    +0.013 C 
ATOM     25  C   UNL     1       6.786  -2.071  -1.017  0.00  0.00    +0.001 C 
ATOM     26  C   UNL     1       6.388  -2.912   0.221  0.00  0.00    +0.001 C 
ATOM     27  C   UNL     1       5.444  -1.989   1.018  0.00  0.00    +0.013 C 
ENDBRANCH  21  23
BRANCH  20  28
ATOM     28  C   UNL     1       3.255   1.107  -1.038  0.00  0.00    +0.090 C 
BRANCH  28  29
ATOM     29  C   UNL     1       3.494   2.113   0.089  0.00  0.00    -0.060 C 
BRANCH  29  30
ATOM     30  N   UNL     1       4.140   3.314  -0.455  0.00  0.00    +0.377 N 
ATOM     31  C   UNL     1       4.262   4.327   0.602  0.00  0.00    -0.097 C 
ATOM     32  C   UNL     1       5.477   2.967  -0.956  0.00  0.00    -0.097 C 
ATOM     33  H   UNL     1       3.583   3.683  -1.212  0.00  0.00    -0.083 HD
ENDBRANCH  29  30
ENDBRANCH  28  29
ENDBRANCH  20  28
ENDBRANCH  19  20
BRANCH  19  35
ATOM     34  C   UNL     1       1.077   0.910   1.803  0.00  0.00    +0.006 C 
ATOM     35  C   UNL     1       0.696  -0.340   1.008  0.00  0.00    +0.027 C 
ENDBRANCH  19  35
ENDBRANCH   1  19
TORSDOF 8
