REMARK  Name = ZINC38766280
REMARK  8 active torsions:
REMARK  status: ('A' for Active; 'I' for Inactive)
REMARK    1  A    between atoms: C_1  and  O_2
REMARK    2  A    between atoms: O_2  and  C_3
REMARK    3  A    between atoms: C_6  and  C_9
REMARK    4  A    between atoms: C_13  and  C_15
REMARK    5  A    between atoms: C_18  and  O_22
REMARK    6  A    between atoms: C_20  and  O_21
REMARK    7  A    between atoms: O_22  and  C_23
REMARK    8  A    between atoms: C_23  and  C_24
REMARK                            x       y       z     vdW  Elec       q    Type
REMARK                         _______ _______ _______ _____ _____    ______ ____
ROOT
ATOM      1  C   UNL     1       3.619  -4.614   3.400  0.00  0.00    +0.022 A 
ATOM      2  C   UNL     1       3.230  -5.805   3.983  0.00  0.00    +0.013 A 
ATOM      3  C   UNL     1       3.038  -6.928   3.203  0.00  0.00    +0.046 A 
ATOM      4  C   UNL     1       3.236  -6.864   1.831  0.00  0.00    +0.124 A 
ATOM      5  C   UNL     1       3.626  -5.670   1.243  0.00  0.00    +0.091 A 
ATOM      6  C   UNL     1       3.813  -4.543   2.028  0.00  0.00    +0.126 A 
ENDROOT
BRANCH   1  11
ATOM      7  C   UNL     1       2.572  -2.535   4.285  0.00  0.00    +0.008 C 
ATOM      8  C   UNL     1       2.219  -2.535   5.593  0.00  0.00    +0.139 C 
ATOM      9  N   UNL     1       3.085  -3.256   6.314  0.00  0.00    -0.185 NA
ATOM     10  N   UNL     1       4.005  -3.762   5.669  0.00  0.00    -0.297 N 
ATOM     11  C   UNL     1       3.828  -3.390   4.254  0.00  0.00    +0.164 C 
ATOM     12  H   UNL     1       4.719  -4.312   6.028  0.00  0.00    +0.183 HD
BRANCH   7  16
ATOM     13  C   UNL     1       0.625  -0.618   1.040  0.00  0.00    +0.120 A 
ATOM     14  C   UNL     1       1.202   0.144   2.050  0.00  0.00    +0.046 A 
ATOM     15  C   UNL     1       1.835  -0.474   3.106  0.00  0.00    +0.012 A 
ATOM     16  C   UNL     1       1.897  -1.871   3.161  0.00  0.00    -0.018 A 
ATOM     17  C   UNL     1       1.315  -2.633   2.142  0.00  0.00    +0.012 A 
ATOM     18  C   UNL     1       0.680  -2.006   1.093  0.00  0.00    +0.046 A 
BRANCH  13  20
ATOM     19  C   UNL     1      -0.017   1.425   0.010  0.00  0.00    +0.277 C 
ATOM     20  O   UNL     1       0.002  -0.004   0.002  0.00  0.00    -0.495 OA
ENDBRANCH  13  20
ENDBRANCH   7  16
ENDBRANCH   1  11
BRANCH   6  21
ATOM     21  O   UNL     1       4.189  -3.370   1.454  0.00  0.00    -0.506 OA
ATOM     22  H   UNL     1       5.147  -3.250   1.397  0.00  0.00    +0.292 HD
ENDBRANCH   6  21
BRANCH   4  23
ATOM     23  O   UNL     1       3.048  -7.970   1.064  0.00  0.00    -0.487 OA
BRANCH  23  24
ATOM     24  C   UNL     1       2.646  -9.165   1.736  0.00  0.00    +0.264 C 
BRANCH  24  25
ATOM     25  C   UNL     1       2.487 -10.277   0.732  0.00  0.00    -0.010 A 
ATOM     26  C   UNL     1       1.267 -10.483   0.116  0.00  0.00    +0.008 A 
ATOM     27  C   UNL     1       1.121 -11.502  -0.806  0.00  0.00    +0.015 A 
ATOM     28  C   UNL     1       2.196 -12.317  -1.112  0.00  0.00    +0.018 A 
ATOM     29  C   UNL     1       3.417 -12.111  -0.495  0.00  0.00    +0.015 A 
ATOM     30  C   UNL     1       3.564 -11.088   0.422  0.00  0.00    +0.008 A 
ATOM     31 BR   UNL     1       1.997 -13.713  -2.372  0.00  0.00    -0.050 Br
ENDBRANCH  24  25
ENDBRANCH  23  24
ENDBRANCH   4  23
TORSDOF 7
