REMARK  Name = ZINC12507746
REMARK  1 active torsions:
REMARK  status: ('A' for Active; 'I' for Inactive)
REMARK    1  A    between atoms: C_6  and  C_7
REMARK                            x       y       z     vdW  Elec       q    Type
REMARK                         _______ _______ _______ _____ _____    ______ ____
ROOT
ATOM      1  C   UNL     1      -1.293  -0.775   0.010  0.00  0.00    +0.209 C 
ATOM      2  N   UNL     1      -1.180  -1.951  -0.873  0.00  0.00    -0.294 N 
ATOM      3  C   UNL     1      -0.545  -3.078  -0.373  0.00  0.00    +0.159 C 
ATOM      4  N   UNL     1      -0.998  -3.554   0.858  0.00  0.00    -0.259 N 
ATOM      5  C   UNL     1      -1.422  -2.571   1.751  0.00  0.00    +0.205 A 
ATOM      6  N   UNL     1      -1.574  -1.260   1.365  0.00  0.00    -0.288 N 
ATOM      7  C   UNL     1      -2.016  -0.553   2.463  0.00  0.00    +0.076 A 
ATOM      8  C   UNL     1      -2.345   0.777   2.689  0.00  0.00    +0.077 A 
ATOM      9  C   UNL     1      -2.770   1.175   3.942  0.00  0.00    +0.164 A 
ATOM     10  C   UNL     1      -2.870   0.254   4.980  0.00  0.00    +0.164 A 
ATOM     11  C   UNL     1      -2.543  -1.070   4.773  0.00  0.00    +0.079 A 
ATOM     12  C   UNL     1      -2.112  -1.487   3.510  0.00  0.00    +0.095 A 
ATOM     13  N   UNL     1      -1.731  -2.699   3.008  0.00  0.00    -0.214 NA
ATOM     14  O   UNL     1      -3.296   0.667   6.210  0.00  0.00    -0.488 OA
ATOM     15  C   UNL     1      -2.406   1.529   6.922  0.00  0.00    +0.232 C 
ATOM     16  C   UNL     1      -2.599   2.975   6.494  0.00  0.00    +0.082 C 
ATOM     17  C   UNL     1      -2.222   3.203   5.039  0.00  0.00    +0.232 C 
ATOM     18  O   UNL     1      -3.097   2.482   4.169  0.00  0.00    -0.488 OA
ATOM     19  N   UNL     1       0.424  -3.663  -1.019  0.00  0.00    -0.375 N 
ATOM     20  H   UNL     1      -1.539  -1.937  -1.774  0.00  0.00    +0.151 HD
ATOM     21  H   UNL     1       0.719  -3.311  -1.874  0.00  0.00    +0.158 HD
ATOM     22  H   UNL     1      -1.016  -4.499   1.076  0.00  0.00    +0.158 HD
ATOM     23  H   UNL     1       0.850  -4.450  -0.646  0.00  0.00    +0.158 HD
ENDROOT
BRANCH   1  29
ATOM     24  C   UNL     1      -0.017   1.378   0.010  0.00  0.00    +0.008 A 
ATOM     25  C   UNL     1       1.171   2.086   0.002  0.00  0.00    +0.015 A 
ATOM     26  C   UNL     1       2.378   1.411  -0.013  0.00  0.00    +0.018 A 
ATOM     27  C   UNL     1       2.396   0.027  -0.021  0.00  0.00    +0.015 A 
ATOM     28  C   UNL     1       1.208  -0.679  -0.013  0.00  0.00    +0.008 A 
ATOM     29  C   UNL     1       0.002  -0.004   0.002  0.00  0.00    -0.007 A 
ATOM     30 BR   UNL     1       4.003   2.378  -0.024  0.00  0.00    -0.050 Br
ENDBRANCH   1  29
TORSDOF 1
