REMARK  Name = ZINC08782281
REMARK  4 active torsions:
REMARK  status: ('A' for Active; 'I' for Inactive)
REMARK    1  A    between atoms: C_3  and  N_9
REMARK    2  A    between atoms: C_6  and  C_7
REMARK    3  A    between atoms: N_16  and  C_19
REMARK    4  A    between atoms: C_22  and  C_24
REMARK                            x       y       z     vdW  Elec       q    Type
REMARK                         _______ _______ _______ _____ _____    ______ ____
ROOT
ATOM      1  N   UNL     1       0.770  -6.763  -2.015  0.00  0.00    -0.273 N 
ATOM      2  C   UNL     1      -0.107  -7.683  -2.759  0.00  0.00    +0.134 C 
ATOM      3  C   UNL     1      -1.472  -6.968  -2.735  0.00  0.00    +0.134 C 
ATOM      4  C   UNL     1       0.026  -5.682  -1.621  0.00  0.00    +0.164 C 
ATOM      5  N   UNL     1       0.552  -4.636  -0.902  0.00  0.00    -0.302 N 
ATOM      6  C   UNL     1      -0.236  -3.967   0.144  0.00  0.00    +0.126 C 
ATOM      7  C   UNL     1      -0.199  -2.456  -0.109  0.00  0.00    +0.125 C 
ATOM      8  N   UNL     1       1.198  -2.014  -0.212  0.00  0.00    -0.313 N 
ATOM      9  C   UNL     1       1.871  -2.637  -1.359  0.00  0.00    +0.125 C 
ATOM     10  C   UNL     1       1.919  -4.155  -1.157  0.00  0.00    +0.126 C 
ATOM     11  N   UNL     1      -1.218  -5.731  -1.979  0.00  0.00    -0.359 N 
ATOM     12  H   UNL     1      -1.921  -5.013  -1.768  0.00  0.00    +0.162 HD
ENDROOT
BRANCH   8  13
ATOM     13  C   UNL     1       1.279  -0.628  -0.279  0.00  0.00    +0.118 A 
ATOM     14  C   UNL     1       1.899   0.078   0.749  0.00  0.00    +0.079 A 
ATOM     15  C   UNL     1       1.972   1.458   0.668  0.00  0.00    +0.037 A 
ATOM     16  C   UNL     1       1.421   2.087  -0.441  0.00  0.00    +0.072 A 
ATOM     17  C   UNL     1       0.822   1.325  -1.422  0.00  0.00    +0.096 A 
ATOM     18 CL   UNL     1       2.570  -0.760   2.113  0.00  0.00    -0.080 Cl
ATOM     19  N   UNL     1       0.731  -0.032  -1.377  0.00  0.00    -0.348 N 
ATOM     20  H   UNL     1       0.279  -0.574  -2.123  0.00  0.00    +0.167 HD
BRANCH  16  21
ATOM     21  C   UNL     1       1.478   3.587  -0.571  0.00  0.00    +0.419 C 
ATOM     22  F   UNL     1       0.861   3.975  -1.765  0.00  0.00    -0.166 F 
ATOM     23  F   UNL     1       0.813   4.175   0.510  0.00  0.00    -0.166 F 
ATOM     24  F   UNL     1       2.814   4.004  -0.579  0.00  0.00    -0.166 F 
ENDBRANCH  16  21
ENDBRANCH   8  13
BRANCH   1  27
ATOM     25  C   UNL     1       3.895  -7.361  -0.188  0.00  0.00    +0.017 A 
ATOM     26  C   UNL     1       2.558  -7.167  -0.449  0.00  0.00    +0.024 A 
ATOM     27  C   UNL     1       2.124  -6.959  -1.755  0.00  0.00    +0.036 A 
ATOM     28  C   UNL     1       3.041  -6.952  -2.803  0.00  0.00    +0.024 A 
ATOM     29  C   UNL     1       4.380  -7.141  -2.549  0.00  0.00    +0.017 A 
ATOM     30  C   UNL     1       4.819  -7.349  -1.238  0.00  0.00    +0.063 A 
BRANCH  30  31
ATOM     31  C   UNL     1       6.253  -7.556  -0.963  0.00  0.00    +0.387 C 
ATOM     32  O   UNL     1       6.632  -7.737   0.177  0.00  0.00    -0.241 OA
ATOM     33  O   UNL     1       7.141  -7.545  -1.975  0.00  0.00    -0.241 OA
ENDBRANCH  30  31
ENDBRANCH   1  27
TORSDOF 4
