REMARK  Name = ZINC02705501
REMARK  6 active torsions:
REMARK  status: ('A' for Active; 'I' for Inactive)
REMARK    1  A    between atoms: C_4  and  N_7
REMARK    2  A    between atoms: C_17  and  S_18
REMARK    3  A    between atoms: S_18  and  C_19
REMARK    4  A    between atoms: C_19  and  C_20
REMARK    5  A    between atoms: N_22  and  N_23
REMARK    6  A    between atoms: C_24  and  C_25
REMARK                            x       y       z     vdW  Elec       q    Type
REMARK                         _______ _______ _______ _____ _____    ______ ____
ROOT
ATOM      1  S   UNL     1      -1.818  -2.975  -1.835  0.00  0.00    -0.078 S 
ENDROOT
BRANCH   1  12
ATOM      2  N   UNL     1       0.216  -2.771  -0.076  0.00  0.00    -0.255 N 
ATOM      3  C   UNL     1       1.110  -2.120   0.703  0.00  0.00    +0.267 A 
ATOM      4  O   UNL     1       1.912  -2.728   1.388  0.00  0.00    -0.267 OA
ATOM      5  C   UNL     1       1.079  -0.651   0.692  0.00  0.00    +0.065 A 
ATOM      6  C   UNL     1       1.959   0.110   1.460  0.00  0.00    +0.015 A 
ATOM      7  C   UNL     1       1.887   1.475   1.413  0.00  0.00    +0.001 A 
ATOM      8  C   UNL     1       0.949   2.109   0.608  0.00  0.00    +0.002 A 
ATOM      9  C   UNL     1       0.074   1.387  -0.154  0.00  0.00    +0.028 A 
ATOM     10  C   UNL     1       0.122  -0.010  -0.127  0.00  0.00    +0.079 A 
ATOM     11  N   UNL     1      -0.725  -0.763  -0.866  0.00  0.00    -0.223 NA
ATOM     12  C   UNL     1      -0.678  -2.072  -0.840  0.00  0.00    +0.177 A 
BRANCH   2  16
ATOM     13  C   UNL     1       0.186  -6.938  -0.147  0.00  0.00    +0.000 A 
ATOM     14  C   UNL     1       0.868  -6.236  -1.124  0.00  0.00    +0.002 A 
ATOM     15  C   UNL     1       0.880  -4.855  -1.103  0.00  0.00    +0.026 A 
ATOM     16  C   UNL     1       0.206  -4.171  -0.100  0.00  0.00    +0.052 A 
ATOM     17  C   UNL     1      -0.474  -4.879   0.882  0.00  0.00    +0.026 A 
ATOM     18  C   UNL     1      -0.487  -6.260   0.853  0.00  0.00    +0.002 A 
ENDBRANCH   2  16
ENDBRANCH   1  12
BRANCH   1  19
ATOM     19  C   UNL     1      -2.721  -1.605  -2.599  0.00  0.00    +0.174 C 
BRANCH  19  20
ATOM     20  C   UNL     1      -3.780  -2.153  -3.520  0.00  0.00    +0.242 C 
ATOM     21  O   UNL     1      -3.912  -3.352  -3.647  0.00  0.00    -0.273 OA
ATOM     22  N   UNL     1      -4.581  -1.310  -4.203  0.00  0.00    -0.206 N 
ATOM     23  H   UNL     1      -4.461  -0.223  -4.088  0.00  0.00    +0.177 HD
BRANCH  22  24
ATOM     24  N   UNL     1      -5.566  -1.820  -5.059  0.00  0.00    -0.188 NA
ATOM     25  C   UNL     1      -6.338  -1.008  -5.717  0.00  0.00    +0.139 C 
BRANCH  25  26
ATOM     26  C   UNL     1      -7.372  -1.543  -6.616  0.00  0.00    +0.002 A 
ATOM     27  C   UNL     1      -8.274  -0.694  -7.246  0.00  0.00    +0.010 A 
ATOM     28  C   UNL     1      -9.248  -1.202  -8.093  0.00  0.00    +0.001 A 
ATOM     29  C   UNL     1      -9.361  -2.535  -8.341  0.00  0.00    +0.008 A 
ATOM     30  C   UNL     1      -8.484  -3.453  -7.738  0.00  0.00    -0.017 A 
ATOM     31  C   UNL     1      -7.469  -2.979  -6.871  0.00  0.00    -0.009 A 
ATOM     32  C   UNL     1      -6.597  -3.891  -6.264  0.00  0.00    +0.009 A 
ATOM     33  C   UNL     1      -6.727  -5.223  -6.524  0.00  0.00    +0.001 A 
ATOM     34  C   UNL     1      -7.720  -5.691  -7.381  0.00  0.00    +0.001 A 
ATOM     35  C   UNL     1      -8.588  -4.833  -7.984  0.00  0.00    +0.008 A 
ENDBRANCH  25  26
ENDBRANCH  22  24
ENDBRANCH  19  20
ENDBRANCH   1  19
TORSDOF 6
