REMARK  Name = ZINC09968972
REMARK  8 active torsions:
REMARK  status: ('A' for Active; 'I' for Inactive)
REMARK    1  A    between atoms: C_1  and  C_2
REMARK    2  A    between atoms: C_2  and  C_3
REMARK    3  A    between atoms: C_3  and  C_4
REMARK    4  A    between atoms: C_4  and  N_5
REMARK    5  A    between atoms: C_6  and  C_24
REMARK    6  A    between atoms: N_16  and  C_17
REMARK    7  A    between atoms: C_17  and  C_18
REMARK    8  A    between atoms: C_24  and  N_62
REMARK                            x       y       z     vdW  Elec       q    Type
REMARK                         _______ _______ _______ _____ _____    ______ ____
ROOT
ATOM      1  N   UNL     1      -1.413  -1.998   0.005  0.00  0.00    -0.324 N 
ATOM      2  C   UNL     1      -1.392  -2.806   1.083  0.00  0.00    +0.096 A 
ATOM      3  N   UNL     1      -1.379  -4.056   0.698  0.00  0.00    -0.216 NA
ATOM      4  C   UNL     1      -1.391  -4.120  -0.635  0.00  0.00    +0.169 A 
ATOM      5  C   UNL     1      -1.419  -2.814  -1.109  0.00  0.00    +0.151 A 
ATOM      6  C   UNL     1      -1.442  -2.588  -2.502  0.00  0.00    +0.280 A 
ATOM      7  O   UNL     1      -1.464  -1.452  -2.942  0.00  0.00    -0.265 OA
ATOM      8  N   UNL     1      -1.441  -3.645  -3.341  0.00  0.00    -0.273 N 
ATOM      9  H   UNL     1      -1.457  -3.490  -4.329  0.00  0.00    +0.173 HD
ATOM     10  C   UNL     1      -1.417  -4.903  -2.869  0.00  0.00    +0.331 A 
ATOM     11  O   UNL     1      -1.416  -5.831  -3.655  0.00  0.00    -0.246 OA
ATOM     12  N   UNL     1      -1.386  -5.162  -1.548  0.00  0.00    -0.272 N 
ENDROOT
BRANCH   1  13
ATOM     13  C   UNL     1      -1.433  -0.534   0.013  0.00  0.00    +0.124 C 
BRANCH  13  14
ATOM     14  C   UNL     1       0.002  -0.004   0.002  0.00  0.00    +0.021 C 
BRANCH  14  16
ATOM     15  C   UNL     1       1.417   2.055  -0.000  0.00  0.00    +0.004 C 
ATOM     16  C   UNL     1      -0.019   1.526   0.010  0.00  0.00    -0.002 C 
ENDBRANCH  14  16
ENDBRANCH  13  14
ENDBRANCH   1  13
BRANCH  12  17
ATOM     17  C   UNL     1      -1.363  -6.548  -1.075  0.00  0.00    +0.163 C 
BRANCH  17  18
ATOM     18  C   UNL     1      -2.776  -7.042  -0.899  0.00  0.00    -0.028 A 
ATOM     19  C   UNL     1      -3.416  -6.887   0.317  0.00  0.00    +0.005 A 
ATOM     20  C   UNL     1      -4.714  -7.336   0.476  0.00  0.00    +0.000 A 
ATOM     21  C   UNL     1      -5.367  -7.950  -0.576  0.00  0.00    +0.000 A 
ATOM     22  C   UNL     1      -4.726  -8.110  -1.789  0.00  0.00    +0.000 A 
ATOM     23  C   UNL     1      -3.430  -7.656  -1.951  0.00  0.00    +0.005 A 
ENDBRANCH  17  18
ENDBRANCH  12  17
BRANCH   2  24
ATOM     24  C   UNL     1      -1.384  -2.339   2.516  0.00  0.00    -0.003 C 
BRANCH  24  34
ATOM     25  C   UNL     1      -2.807  -1.550   4.312  0.00  0.00    -0.073 C 
ATOM     26  C   UNL     1      -4.244  -1.109   4.591  0.00  0.00    +0.017 C 
ATOM     27  C   UNL     1      -5.189  -2.260   4.360  0.00  0.00    -0.048 A 
ATOM     28  C   UNL     1      -6.469  -2.180   4.887  0.00  0.00    +0.004 A 
ATOM     29  C   UNL     1      -7.368  -3.210   4.695  0.00  0.00    +0.000 A 
ATOM     30  C   UNL     1      -6.989  -4.327   3.975  0.00  0.00    +0.000 A 
ATOM     31  C   UNL     1      -5.715  -4.409   3.452  0.00  0.00    +0.002 A 
ATOM     32  C   UNL     1      -4.810  -3.375   3.645  0.00  0.00    -0.061 A 
ATOM     33  C   UNL     1      -3.429  -3.512   3.058  0.00  0.00    -0.042 C 
ATOM     34  N   UNL     1      -2.781  -2.192   2.982  0.00  0.00    +0.387 N 
ATOM     35  H   UNL     1      -3.295  -1.603   2.316  0.00  0.00    -0.081 HD
ENDBRANCH  24  34
ENDBRANCH   2  24
TORSDOF 7
