REMARK  Name = ZINC16724417
REMARK  11 active torsions:
REMARK  status: ('A' for Active; 'I' for Inactive)
REMARK    1  A    between atoms: C_1  and  C_2
REMARK    2  A    between atoms: C_2  and  N_3
REMARK    3  A    between atoms: C_12  and  S_13
REMARK    4  A    between atoms: S_13  and  C_14
REMARK    5  A    between atoms: C_14  and  C_16
REMARK    6  A    between atoms: C_14  and  C_17
REMARK    7  A    between atoms: N_19  and  C_20
REMARK    8  A    between atoms: C_22  and  C_28
REMARK    9  A    between atoms: C_25  and  O_26
REMARK   10  A    between atoms: O_26  and  C_27
REMARK   11  A    between atoms: C_30  and  C_34
REMARK                            x       y       z     vdW  Elec       q    Type
REMARK                         _______ _______ _______ _____ _____    ______ ____
ROOT
ATOM      1  N   UNL     1      -0.703   2.049   1.216  0.00  0.00    -0.288 N 
ATOM      2  C   UNL     1      -2.031   2.267   1.182  0.00  0.00    +0.263 A 
ATOM      3  O   UNL     1      -2.662   2.073   0.157  0.00  0.00    -0.267 OA
ATOM      4  C   UNL     1      -2.692   2.724   2.366  0.00  0.00    +0.076 A 
ATOM      5  C   UNL     1      -4.114   3.017   2.555  0.00  0.00    -0.023 A 
ATOM      6  C   UNL     1      -4.493   3.443   3.777  0.00  0.00    -0.004 A 
ATOM      7  S   UNL     1      -3.002   3.481   4.735  0.00  0.00    -0.073 S 
ATOM      8  C   UNL     1      -1.870   2.921   3.488  0.00  0.00    +0.117 A 
ATOM      9  N   UNL     1      -0.562   2.693   3.455  0.00  0.00    -0.216 NA
ATOM     10  C   UNL     1       0.021   2.266   2.353  0.00  0.00    +0.173 A 
ATOM     11  C   UNL     1      -5.877   3.804   4.223  0.00  0.00    +0.046 C 
ATOM     12  C   UNL     1      -6.876   3.264   3.190  0.00  0.00    -0.009 C 
ATOM     13  C   UNL     1      -6.391   3.652   1.790  0.00  0.00    +0.008 C 
ATOM     14  C   UNL     1      -5.136   2.853   1.434  0.00  0.00    +0.037 C 
ATOM     15  C   UNL     1      -8.256   3.874   3.442  0.00  0.00    +0.008 C 
ENDROOT
BRANCH   1  17
ATOM     16  C   UNL     1      -0.013   0.045  -0.004  0.00  0.00    +0.027 C 
ATOM     17  C   UNL     1      -0.021   1.575   0.009  0.00  0.00    +0.124 C 
ENDBRANCH   1  17
BRANCH  10  18
ATOM     18  S   UNL     1       1.758   1.973   2.346  0.00  0.00    -0.075 S 
BRANCH  18  19
ATOM     19  C   UNL     1       2.158   2.415   4.055  0.00  0.00    +0.137 C 
ATOM     20  C   UNL     1       1.892   3.906   4.271  0.00  0.00    +0.029 C 
BRANCH  19  21
ATOM     21  C   UNL     1       3.612   2.120   4.323  0.00  0.00    +0.230 C 
ATOM     22  O   UNL     1       4.405   2.099   3.406  0.00  0.00    -0.274 OA
ATOM     23  N   UNL     1       4.030   1.880   5.581  0.00  0.00    -0.282 N 
ATOM     24  H   UNL     1       3.409   1.961   6.322  0.00  0.00    +0.155 HD
BRANCH  23  25
ATOM     25  C   UNL     1       5.361   1.515   5.820  0.00  0.00    +0.076 A 
ATOM     26  C   UNL     1       6.378   2.045   5.040  0.00  0.00    +0.030 A 
ATOM     27  C   UNL     1       7.691   1.683   5.277  0.00  0.00    -0.048 A 
ATOM     28  C   UNL     1       7.994   0.793   6.291  0.00  0.00    +0.007 A 
ATOM     29  C   UNL     1       6.985   0.260   7.072  0.00  0.00    +0.048 A 
ATOM     30  C   UNL     1       5.667   0.622   6.844  0.00  0.00    +0.141 A 
ATOM     31  C   UNL     1       8.795   2.260   4.429  0.00  0.00    +0.044 C 
BRANCH  30  32
ATOM     32  O   UNL     1       4.675   0.103   7.616  0.00  0.00    -0.493 OA
ATOM     33  C   UNL     1       5.063  -0.805   8.648  0.00  0.00    +0.277 C 
ENDBRANCH  30  32
ENDBRANCH  23  25
ENDBRANCH  19  21
ENDBRANCH  18  19
ENDBRANCH  10  18
TORSDOF 6
