REMARK  Name = ZINC09463260
REMARK  9 active torsions:
REMARK  status: ('A' for Active; 'I' for Inactive)
REMARK    1  A    between atoms: C_1  and  C_2
REMARK    2  A    between atoms: C_2  and  C_3
REMARK    3  A    between atoms: C_3  and  N_4
REMARK    4  A    between atoms: N_4  and  C_5
REMARK    5  A    between atoms: C_5  and  C_6
REMARK    6  A    between atoms: C_9  and  C_11
REMARK    7  A    between atoms: C_16  and  C_18
REMARK    8  A    between atoms: N_21  and  C_24
REMARK    9  A    between atoms: C_27  and  C_29
REMARK                            x       y       z     vdW  Elec       q    Type
REMARK                         _______ _______ _______ _____ _____    ______ ____
ROOT
ATOM      1  C   UNL     1      -4.118   2.355   1.411  0.00  0.00    +0.078 C 
ATOM      2  C   UNL     1      -4.307   1.050   0.633  0.00  0.00    +0.032 C 
ATOM      3  C   UNL     1      -3.182   0.077   0.995  0.00  0.00    +0.107 C 
ATOM      4  N   UNL     1      -1.886   0.682   0.664  0.00  0.00    -0.315 N 
ATOM      5  C   UNL     1      -1.661   1.912   1.434  0.00  0.00    +0.107 C 
ATOM      6  C   UNL     1      -2.740   2.939   1.085  0.00  0.00    +0.032 C 
ENDROOT
BRANCH   4   7
ATOM      7  C   UNL     1      -0.849  -0.225   0.858  0.00  0.00    +0.117 A 
ATOM      8  C   UNL     1      -0.063  -0.617  -0.223  0.00  0.00    +0.079 A 
ATOM      9  C   UNL     1       0.961  -1.524  -0.015  0.00  0.00    +0.037 A 
ATOM     10  C   UNL     1       1.165  -2.010   1.269  0.00  0.00    +0.072 A 
ATOM     11  C   UNL     1       0.348  -1.578   2.294  0.00  0.00    +0.096 A 
ATOM     12 CL   UNL     1      -0.365   0.024  -1.808  0.00  0.00    -0.080 Cl
ATOM     13  N   UNL     1      -0.667  -0.688   2.128  0.00  0.00    -0.348 N 
ATOM     14  H   UNL     1      -1.260  -0.385   2.909  0.00  0.00    +0.167 HD
BRANCH  10  15
ATOM     15  C   UNL     1       2.269  -3.000   1.542  0.00  0.00    +0.419 C 
ATOM     16  F   UNL     1       2.271  -3.334   2.900  0.00  0.00    -0.166 F 
ATOM     17  F   UNL     1       2.060  -4.153   0.778  0.00  0.00    -0.166 F 
ATOM     18  F   UNL     1       3.500  -2.431   1.200  0.00  0.00    -0.166 F 
ENDBRANCH  10  15
ENDBRANCH   4   7
BRANCH   1  20
ATOM     19  N   UNL     1      -5.397   4.444   1.756  0.00  0.00    -0.292 N 
ATOM     20  C   UNL     1      -5.188   3.338   1.013  0.00  0.00    +0.219 C 
ATOM     21  O   UNL     1      -5.862   3.135   0.025  0.00  0.00    -0.275 OA
BRANCH  19  22
ATOM     22  C   UNL     1      -4.487   4.770   2.856  0.00  0.00    +0.108 C 
BRANCH  22  24
ATOM     23  C   UNL     1      -2.410   6.015   3.473  0.00  0.00    +0.005 C 
ATOM     24  C   UNL     1      -3.458   5.798   2.379  0.00  0.00    +0.016 C 
ENDBRANCH  22  24
ENDBRANCH  19  22
BRANCH  19  25
ATOM     25  C   UNL     1      -6.535   5.319   1.462  0.00  0.00    +0.205 C 
BRANCH  25  26
ATOM     26  C   UNL     1      -7.734   4.866   2.255  0.00  0.00    +0.235 A 
ATOM     27  N   UNL     1      -8.063   5.269   3.450  0.00  0.00    -0.110 NA
ATOM     28  N   UNL     1      -9.143   4.678   3.822  0.00  0.00    -0.104 NA
ATOM     29  C   UNL     1      -9.546   3.869   2.867  0.00  0.00    +0.284 A 
ATOM     30  O   UNL     1      -8.661   3.978   1.854  0.00  0.00    -0.416 OA
BRANCH  29  31
ATOM     31  C   UNL     1     -10.738   3.010   2.895  0.00  0.00    +0.191 A 
ATOM     32  C   UNL     1     -11.629   2.910   3.922  0.00  0.00    +0.055 A 
ATOM     33  C   UNL     1     -12.605   1.979   3.522  0.00  0.00    +0.042 A 
ATOM     34  C   UNL     1     -12.270   1.559   2.285  0.00  0.00    +0.196 A 
ATOM     35  O   UNL     1     -11.146   2.188   1.907  0.00  0.00    -0.458 OA
ENDBRANCH  29  31
ENDBRANCH  25  26
ENDBRANCH  19  25
ENDBRANCH   1  20
TORSDOF 8
