REMARK  Name = ZINC39943983
REMARK  10 active torsions:
REMARK  status: ('A' for Active; 'I' for Inactive)
REMARK    1  A    between atoms: C_1  and  C_2
REMARK    2  A    between atoms: C_8  and  C_34
REMARK    3  A    between atoms: C_12  and  C_13
REMARK    4  A    between atoms: C_13  and  O_15
REMARK    5  A    between atoms: O_15  and  C_16
REMARK    6  A    between atoms: C_16  and  C_17
REMARK    7  A    between atoms: C_17  and  C_19
REMARK    8  A    between atoms: C_20  and  C_33
REMARK    9  A    between atoms: N_21  and  C_26
REMARK   10  A    between atoms: C_22  and  C_25
REMARK                            x       y       z     vdW  Elec       q    Type
REMARK                         _______ _______ _______ _____ _____    ______ ____
ROOT
ATOM      1  C   UNL     1       0.486  -0.588   4.904  0.00  0.00    +0.311 C 
ENDROOT
BRANCH   1   2
ATOM      2  C   UNL     1       0.568  -1.616   6.003  0.00  0.00    +0.198 C 
ATOM      3  O   UNL     1       0.849  -2.768   5.737  0.00  0.00    -0.289 OA
BRANCH   2   4
ATOM      4  C   UNL     1       0.318  -1.244   7.331  0.00  0.00    +0.017 C 
ATOM      5  C   UNL     1       0.260  -2.081   8.388  0.00  0.00    +0.015 C 
ATOM      6  N   UNL     1       0.004  -1.458   9.562  0.00  0.00    -0.300 N 
ATOM      7  C   UNL     1      -0.140  -0.012   9.341  0.00  0.00    +0.080 C 
ATOM      8  C   UNL     1       0.075   0.165   7.826  0.00  0.00    +0.062 C 
ATOM      9  C   UNL     1      -1.540   0.454   9.748  0.00  0.00    +0.029 C 
ATOM     10  C   UNL     1       0.461  -3.570   8.272  0.00  0.00    +0.061 C 
BRANCH   6  11
ATOM     11  C   UNL     1      -0.107  -2.095  10.801  0.00  0.00    +0.034 A 
ATOM     12  C   UNL     1      -1.170  -2.955  11.049  0.00  0.00    +0.025 A 
ATOM     13  C   UNL     1      -1.277  -3.583  12.274  0.00  0.00    +0.022 A 
ATOM     14  C   UNL     1      -0.327  -3.356  13.255  0.00  0.00    +0.041 A 
ATOM     15  C   UNL     1       0.733  -2.500  13.011  0.00  0.00    +0.022 A 
ATOM     16  C   UNL     1       0.848  -1.874  11.786  0.00  0.00    +0.025 A 
ATOM     17 CL   UNL     1      -0.465  -4.147  14.794  0.00  0.00    -0.084 Cl
ENDBRANCH   6  11
ENDBRANCH   2   4
ENDBRANCH   1   2
BRANCH   1  18
ATOM     18  O   UNL     1       0.779  -1.206   3.650  0.00  0.00    -0.453 OA
BRANCH  18  19
ATOM     19  C   UNL     1       0.748  -0.417   2.556  0.00  0.00    +0.347 C 
ATOM     20  O   UNL     1       0.480   0.764   2.666  0.00  0.00    -0.244 OA
BRANCH  19  32
ATOM     21  C   UNL     1       0.751   1.119  -0.065  0.00  0.00    +0.046 C 
ATOM     22  C   UNL     1       1.057  -0.353   0.026  0.00  0.00    -0.015 A 
ATOM     23  C   UNL     1       1.365  -1.077  -1.128  0.00  0.00    +0.076 A 
ATOM     24  C   UNL     1       1.451  -0.609  -2.531  0.00  0.00    +0.260 A 
ATOM     25  O   UNL     1       1.238   0.556  -2.815  0.00  0.00    -0.267 OA
ATOM     26  N   UNL     1       1.770  -1.506  -3.484  0.00  0.00    -0.311 N 
ATOM     27  H   UNL     1       1.831  -1.216  -4.408  0.00  0.00    +0.170 HD
ATOM     28  C   UNL     1       2.010  -2.805  -3.179  0.00  0.00    +0.108 A 
ATOM     29  N   UNL     1       1.943  -3.250  -1.953  0.00  0.00    -0.227 NA
ATOM     30  C   UNL     1       1.637  -2.451  -0.939  0.00  0.00    +0.116 A 
ATOM     31  S   UNL     1       1.450  -2.667   0.813  0.00  0.00    -0.062 S 
ATOM     32  C   UNL     1       1.038  -0.983   1.237  0.00  0.00    +0.102 A 
ATOM     33  C   UNL     1       2.363  -3.764  -4.287  0.00  0.00    +0.086 C 
ENDBRANCH  19  32
ENDBRANCH  18  19
ENDBRANCH   1  18
TORSDOF 6
