REMARK  Name = ZINC63587178
REMARK  12 active torsions:
REMARK  status: ('A' for Active; 'I' for Inactive)
REMARK    1  A    between atoms: C_1  and  C_2
REMARK    2  A    between atoms: C_2  and  C_3
REMARK    3  A    between atoms: C_3  and  C_4
REMARK    4  A    between atoms: C_4  and  C_5
REMARK    5  A    between atoms: C_5  and  C_6
REMARK    6  A    between atoms: C_6  and  C_7
REMARK    7  A    between atoms: C_9  and  O_26
REMARK    8  A    between atoms: N_12  and  C_15
REMARK    9  A    between atoms: C_15  and  C_16
REMARK   10  A    between atoms: C_16  and  C_17
REMARK   11  A    between atoms: O_26  and  C_27
REMARK   12  A    between atoms: C_30  and  C_33
REMARK                            x       y       z     vdW  Elec       q    Type
REMARK                         _______ _______ _______ _____ _____    ______ ____
ROOT
ATOM      1  C   UNL     1       2.145  -4.554  -3.655  0.00  0.00    +0.141 C 
ATOM      2  C   UNL     1       2.089  -6.039  -3.864  0.00  0.00    +0.117 C 
ATOM      3  C   UNL     1       3.109  -6.821  -3.639  0.00  0.00    +0.034 C 
ATOM      4  C   UNL     1       4.434  -6.320  -3.150  0.00  0.00    +0.138 C 
ATOM      5  N   UNL     1       4.596  -4.895  -3.402  0.00  0.00    -0.297 N 
ATOM      6  C   UNL     1       3.567  -4.074  -3.629  0.00  0.00    +0.226 C 
ATOM      7  O   UNL     1       3.790  -2.897  -3.821  0.00  0.00    -0.275 OA
ENDROOT
BRANCH   1   8
ATOM      8  C   UNL     1       1.472  -4.207  -2.326  0.00  0.00    +0.020 C 
BRANCH   8   9
ATOM      9  C   UNL     1       1.401  -2.686  -2.173  0.00  0.00    +0.001 C 
BRANCH   9  10
ATOM     10  C   UNL     1       0.727  -2.338  -0.844  0.00  0.00    +0.000 C 
BRANCH  10  11
ATOM     11  C   UNL     1       0.656  -0.818  -0.691  0.00  0.00    -0.000 C 
BRANCH  11  13
ATOM     12  C   UNL     1      -0.089   1.051   0.791  0.00  0.00    +0.004 C 
ATOM     13  C   UNL     1      -0.018  -0.470   0.638  0.00  0.00    -0.003 C 
ENDBRANCH  11  13
ENDBRANCH  10  11
ENDBRANCH   9  10
ENDBRANCH   8   9
ENDBRANCH   1   8
BRANCH   5  14
ATOM     14  C   UNL     1       5.950  -4.336  -3.407  0.00  0.00    +0.112 C 
BRANCH  14  15
ATOM     15  C   UNL     1       6.525  -4.404  -4.823  0.00  0.00    +0.052 C 
BRANCH  15  16
ATOM     16  C   UNL     1       7.918  -3.829  -4.827  0.00  0.00    -0.040 C 
ATOM     17  C   UNL     1       9.080  -4.513  -4.717  0.00  0.00    -0.001 A 
ATOM     18  C   UNL     1       9.383  -5.941  -4.565  0.00  0.00    +0.010 A 
ATOM     19  C   UNL     1      10.675  -6.332  -4.478  0.00  0.00    +0.001 A 
ATOM     20  C   UNL     1      11.729  -5.409  -4.530  0.00  0.00    +0.002 A 
ATOM     21  C   UNL     1      11.530  -4.081  -4.668  0.00  0.00    +0.026 A 
ATOM     22  C   UNL     1      10.211  -3.559  -4.769  0.00  0.00    +0.043 A 
ATOM     23  N   UNL     1       9.766  -2.333  -4.906  0.00  0.00    -0.380 N 
ATOM     24  C   UNL     1       8.300  -2.372  -4.963  0.00  0.00    +0.144 C 
ATOM     25  H   UNL     1      10.314  -1.535  -4.964  0.00  0.00    +0.160 HD
ENDBRANCH  15  16
ENDBRANCH  14  15
ENDBRANCH   5  14
BRANCH   2  26
ATOM     26  O   UNL     1       0.930  -6.591  -4.304  0.00  0.00    -0.442 OA
BRANCH  26  27
ATOM     27  C   UNL     1       0.512  -6.281  -5.557  0.00  0.00    +0.220 A 
ATOM     28  C   UNL     1      -0.722  -6.737  -6.003  0.00  0.00    +0.068 A 
ATOM     29  C   UNL     1      -1.136  -6.413  -7.283  0.00  0.00    +0.019 A 
ATOM     30  C   UNL     1      -0.297  -5.641  -8.075  0.00  0.00    +0.073 A 
ATOM     31  C   UNL     1       0.916  -5.223  -7.567  0.00  0.00    +0.127 A 
ATOM     32  N   UNL     1       1.281  -5.542  -6.340  0.00  0.00    -0.220 NA
BRANCH  30  33
ATOM     33  C   UNL     1      -0.707  -5.265  -9.476  0.00  0.00    +0.419 C 
ATOM     34  F   UNL     1      -1.405  -4.053  -9.448  0.00  0.00    -0.166 F 
ATOM     35  F   UNL     1       0.434  -5.127 -10.274  0.00  0.00    -0.166 F 
ATOM     36  F   UNL     1      -1.528  -6.265 -10.007  0.00  0.00    -0.166 F 
ENDBRANCH  30  33
ENDBRANCH  26  27
ENDBRANCH   2  26
TORSDOF 11
