REMARK  Name = ZINC63571321
REMARK  7 active torsions:
REMARK  status: ('A' for Active; 'I' for Inactive)
REMARK    1  A    between atoms: C_1  and  C_2
REMARK    2  A    between atoms: C_2  and  O_3
REMARK    3  A    between atoms: O_3  and  C_4
REMARK    4  A    between atoms: C_4  and  C_5
REMARK    5  A    between atoms: C_5  and  C_6
REMARK    6  A    between atoms: C_6  and  N_7
REMARK    7  A    between atoms: C_23  and  C_25
REMARK                            x       y       z     vdW  Elec       q    Type
REMARK                         _______ _______ _______ _____ _____    ______ ____
ROOT
ATOM      1  N   UNL     1       2.293  -4.225   3.802  0.00  0.00    -0.299 N 
ATOM      2  C   UNL     1       2.505  -5.520   4.109  0.00  0.00    +0.303 C 
ATOM      3  O   UNL     1       2.018  -6.396   3.421  0.00  0.00    -0.253 OA
ATOM      4  N   UNL     1       3.257  -5.844   5.180  0.00  0.00    -0.276 N 
ATOM      5  C   UNL     1       3.740  -4.787   6.074  0.00  0.00    +0.114 C 
ATOM      6  C   UNL     1       5.277  -4.840   6.148  0.00  0.00    +0.052 C 
ATOM      7  C   UNL     1       5.651  -6.290   6.332  0.00  0.00    -0.035 C 
ATOM      8  C   UNL     1       6.429  -6.890   7.225  0.00  0.00    -0.001 A 
ATOM      9  C   UNL     1       7.292  -6.354   8.289  0.00  0.00    +0.010 A 
ATOM     10  C   UNL     1       7.947  -7.271   9.049  0.00  0.00    +0.001 A 
ATOM     11  C   UNL     1       7.831  -8.652   8.858  0.00  0.00    +0.002 A 
ATOM     12  C   UNL     1       7.067  -9.232   7.899  0.00  0.00    +0.026 A 
ATOM     13  C   UNL     1       6.336  -8.369   7.031  0.00  0.00    +0.043 A 
ATOM     14  N   UNL     1       5.557  -8.648   6.028  0.00  0.00    -0.375 N 
ATOM     15  C   UNL     1       5.111  -7.391   5.426  0.00  0.00    +0.131 C 
ATOM     16  C   UNL     1       3.581  -7.256   5.442  0.00  0.00    +0.137 C 
ATOM     17  H   UNL     1       2.619  -3.527   4.391  0.00  0.00    +0.150 HD
ATOM     18  H   UNL     1       5.312  -9.539   5.730  0.00  0.00    +0.160 HD
ENDROOT
BRANCH  16  19
ATOM     19  C   UNL     1       3.043  -7.661   6.790  0.00  0.00    +0.010 A 
ATOM     20  C   UNL     1       3.410  -6.956   7.921  0.00  0.00    +0.008 A 
ATOM     21  C   UNL     1       2.917  -7.327   9.158  0.00  0.00    +0.000 A 
ATOM     22  C   UNL     1       2.056  -8.403   9.265  0.00  0.00    +0.003 A 
ATOM     23  C   UNL     1       1.687  -9.109   8.136  0.00  0.00    +0.039 A 
ATOM     24  C   UNL     1       2.176  -8.735   6.896  0.00  0.00    +0.128 A 
ATOM     25  F   UNL     1       1.812  -9.421   5.791  0.00  0.00    -0.205 F 
ENDBRANCH  16  19
BRANCH   1  26
ATOM     26  C   UNL     1       1.570  -3.872   2.578  0.00  0.00    +0.108 C 
BRANCH  26  27
ATOM     27  C   UNL     1       1.467  -2.349   2.468  0.00  0.00    +0.047 C 
BRANCH  27  28
ATOM     28  C   UNL     1       0.712  -1.980   1.189  0.00  0.00    +0.161 C 
BRANCH  28  29
ATOM     29  O   UNL     1       0.616  -0.558   1.087  0.00  0.00    -0.380 OA
BRANCH  29  31
ATOM     30  C   UNL     1      -0.118   1.424  -0.085  0.00  0.00    +0.034 C 
ATOM     31  C   UNL     1      -0.075  -0.105  -0.079  0.00  0.00    +0.156 C 
ENDBRANCH  29  31
ENDBRANCH  28  29
ENDBRANCH  27  28
ENDBRANCH  26  27
ENDBRANCH   1  26
TORSDOF 6
