REMARK  Name = ZINC35279476
REMARK  3 active torsions:
REMARK  status: ('A' for Active; 'I' for Inactive)
REMARK    1  A    between atoms: C_4  and  N_19
REMARK    2  A    between atoms: C_6  and  C_7
REMARK    3  A    between atoms: C_13  and  C_16
REMARK                            x       y       z     vdW  Elec       q    Type
REMARK                         _______ _______ _______ _____ _____    ______ ____
ROOT
ATOM      1  C   UNL     1      -1.266  -0.762   0.011  0.00  0.00    +0.247 C 
ATOM      2  O   UNL     1      -0.227  -0.139   0.111  0.00  0.00    -0.270 OA
ATOM      3  N   UNL     1      -2.440  -0.105  -0.076  0.00  0.00    -0.297 N 
ATOM      4  C   UNL     1      -2.472   1.359  -0.185  0.00  0.00    +0.108 C 
ATOM      5  C   UNL     1      -3.380   1.916   0.915  0.00  0.00    +0.020 C 
ATOM      6  C   UNL     1      -4.755   1.249   0.823  0.00  0.00    +0.016 C 
ATOM      7  C   UNL     1      -4.606  -0.259   1.036  0.00  0.00    +0.092 C 
ATOM      8  C   UNL     1      -3.712  -0.841  -0.069  0.00  0.00    +0.120 C 
ENDROOT
BRANCH   1  14
ATOM      9  C   UNL     1      -0.397  -2.941   0.845  0.00  0.00    +0.016 A 
ATOM     10  C   UNL     1      -0.376  -4.321   0.819  0.00  0.00    +0.041 A 
ATOM     11  C   UNL     1      -1.192  -5.013  -0.060  0.00  0.00    +0.144 A 
ATOM     12  C   UNL     1      -2.038  -4.321  -0.923  0.00  0.00    +0.061 A 
ATOM     13  C   UNL     1      -2.065  -2.936  -0.903  0.00  0.00    +0.038 A 
ATOM     14  C   UNL     1      -1.242  -2.239  -0.016  0.00  0.00    +0.039 A 
ATOM     15  F   UNL     1      -1.166  -6.363  -0.081  0.00  0.00    -0.204 F 
BRANCH  12  16
ATOM     16  N   UNL     1      -2.861  -5.024  -1.809  0.00  0.00    -0.356 N 
ATOM     17  H   UNL     1      -2.842  -5.993  -1.823  0.00  0.00    +0.142 HD
ATOM     18  H   UNL     1      -3.450  -4.541  -2.410  0.00  0.00    +0.142 HD
ENDBRANCH  12  16
ENDBRANCH   1  14
BRANCH   7  19
ATOM     19  C   UNL     1      -5.964  -0.911   0.978  0.00  0.00    +0.215 C 
ATOM     20  O   UNL     1      -6.953  -0.236   0.785  0.00  0.00    -0.276 OA
ATOM     21  N   UNL     1      -6.079  -2.244   1.140  0.00  0.00    -0.329 N 
ATOM     22  H   UNL     1      -5.288  -2.784   1.294  0.00  0.00    +0.145 HD
ATOM     23  H   UNL     1      -6.953  -2.664   1.103  0.00  0.00    +0.145 HD
ENDBRANCH   7  19
TORSDOF 3
