REMARK  Name = ZINC39532534
REMARK  13 active torsions:
REMARK  status: ('A' for Active; 'I' for Inactive)
REMARK    1  A    between atoms: C_1  and  C_2
REMARK    2  A    between atoms: C_2  and  C_3
REMARK    3  A    between atoms: C_6  and  C_9
REMARK    4  A    between atoms: C_9  and  C_11
REMARK    5  A    between atoms: C_9  and  N_19
REMARK    6  A    between atoms: C_11  and  N_12
REMARK    7  A    between atoms: N_12  and  S_13
REMARK    8  A    between atoms: S_13  and  C_16
REMARK    9  A    between atoms: C_16  and  C_17
REMARK   10  A    between atoms: C_16  and  C_18
REMARK   11  A    between atoms: C_23  and  S_26
REMARK   12  A    between atoms: S_26  and  O_29
REMARK   13  A    between atoms: O_29  and  C_30
REMARK                            x       y       z     vdW  Elec       q    Type
REMARK                         _______ _______ _______ _____ _____    ______ ____
ROOT
ATOM      1  C   UNL     1       2.735  -1.754  -4.641  0.00  0.00    +0.102 C 
ENDROOT
BRANCH   1   2
ATOM      2  N   UNL     1       3.822  -2.620  -4.165  0.00  0.00    -0.296 NA
ATOM      3  C   UNL     1       4.692  -3.031  -5.277  0.00  0.00    +0.066 C 
ATOM      4  C   UNL     1       5.843  -3.881  -4.733  0.00  0.00    -0.064 C 
ATOM      5  N   UNL     1       5.299  -5.063  -4.051  0.00  0.00    +0.398 N 
ATOM      6  C   UNL     1       4.452  -4.637  -2.929  0.00  0.00    +0.130 C 
ATOM      7  C   UNL     1       3.290  -3.794  -3.458  0.00  0.00    +0.095 C 
ATOM      8  H   UNL     1       4.748  -5.602  -4.702  0.00  0.00    -0.083 HD
ATOM      9  H   UNL     1       6.059  -5.629  -3.703  0.00  0.00    -0.083 HD
BRANCH   6  10
ATOM     10  S   UNL     1       3.800  -6.098  -2.075  0.00  0.00    +0.109 S 
ATOM     11  O   UNL     1       3.127  -5.710  -0.885  0.00  0.00    -0.138 OA
ATOM     12  O   UNL     1       3.178  -6.972  -3.007  0.00  0.00    -0.138 OA
BRANCH  10  13
ATOM     13  O   UNL     1       5.031  -6.854  -1.596  0.00  0.00    -0.347 OA
BRANCH  13  14
ATOM     14  C   UNL     1       5.642  -6.290  -0.521  0.00  0.00    +0.156 A 
ATOM     15  C   UNL     1       6.639  -5.343  -0.707  0.00  0.00    +0.048 A 
ATOM     16  C   UNL     1       7.258  -4.771   0.388  0.00  0.00    +0.004 A 
ATOM     17  C   UNL     1       6.886  -5.142   1.666  0.00  0.00    +0.000 A 
ATOM     18  C   UNL     1       5.894  -6.087   1.854  0.00  0.00    +0.004 A 
ATOM     19  C   UNL     1       5.267  -6.657   0.763  0.00  0.00    +0.048 A 
ENDBRANCH  13  14
ENDBRANCH  10  13
ENDBRANCH   6  10
ENDBRANCH   1   2
BRANCH   1  23
ATOM     20  C   UNL     1       0.398  -0.450  -1.311  0.00  0.00    -0.048 A 
ATOM     21  C   UNL     1      -0.222  -0.801  -2.496  0.00  0.00    +0.004 A 
ATOM     22  C   UNL     1       0.534  -1.223  -3.573  0.00  0.00    +0.005 A 
ATOM     23  C   UNL     1       1.910  -1.293  -3.466  0.00  0.00    -0.029 A 
ATOM     24  C   UNL     1       2.531  -0.942  -2.282  0.00  0.00    +0.005 A 
ATOM     25  C   UNL     1       1.775  -0.515  -1.206  0.00  0.00    +0.004 A 
BRANCH  20  27
ATOM     26  C   UNL     1      -0.605   1.529  -0.202  0.00  0.00    +0.009 C 
ATOM     27  C   UNL     1      -0.426   0.011  -0.137  0.00  0.00    +0.032 C 
ENDBRANCH  20  27
ENDBRANCH   1  23
BRANCH   1  28
ATOM     28  C   UNL     1       3.327  -0.539  -5.357  0.00  0.00    +0.129 C 
BRANCH  28  29
ATOM     29  N   UNL     1       2.243   0.285  -5.898  0.00  0.00    -0.192 NA
ATOM     30  H   UNL     1       1.350  -0.085  -5.985  0.00  0.00    +0.148 HD
BRANCH  29  31
ATOM     31  S   UNL     1       2.542   1.846  -6.361  0.00  0.00    +0.032 S 
ATOM     32  O   UNL     1       1.285   2.340  -6.804  0.00  0.00    -0.158 OA
ATOM     33  O   UNL     1       3.200   2.435  -5.248  0.00  0.00    -0.158 OA
BRANCH  31  34
ATOM     34  C   UNL     1       3.686   1.706  -7.761  0.00  0.00    +0.142 C 
ATOM     35  C   UNL     1       3.026   0.900  -8.882  0.00  0.00    +0.033 C 
ATOM     36  C   UNL     1       4.035   3.104  -8.277  0.00  0.00    +0.033 C 
ENDBRANCH  31  34
ENDBRANCH  29  31
ENDBRANCH  28  29
ENDBRANCH   1  28
TORSDOF 10
