REMARK  Name = ZINC08430576
REMARK  9 active torsions:
REMARK  status: ('A' for Active; 'I' for Inactive)
REMARK    1  A    between atoms: C_1  and  C_2
REMARK    2  A    between atoms: C_5  and  C_7
REMARK    3  A    between atoms: C_12  and  C_17
REMARK    4  A    between atoms: C_19  and  O_27
REMARK    5  A    between atoms: C_20  and  O_25
REMARK    6  A    between atoms: C_21  and  O_23
REMARK    7  A    between atoms: O_23  and  C_24
REMARK    8  A    between atoms: O_25  and  C_26
REMARK    9  A    between atoms: O_27  and  C_28
REMARK                            x       y       z     vdW  Elec       q    Type
REMARK                         _______ _______ _______ _____ _____    ______ ____
ROOT
ATOM      1  C   UNL     1      -2.874   2.225   2.444  0.00  0.00    +0.143 C 
ATOM      2  C   UNL     1      -2.051   1.747   1.272  0.00  0.00    +0.037 C 
ATOM      3  C   UNL     1      -0.720   1.574   1.261  0.00  0.00    +0.017 C 
ATOM      4  C   UNL     1      -0.013   1.086   0.008  0.00  0.00    +0.059 C 
ATOM      5  C   UNL     1      -0.748   1.590  -1.233  0.00  0.00    +0.032 C 
ATOM      6  C   UNL     1      -2.180   1.044  -1.180  0.00  0.00    +0.088 C 
ATOM      7  C   UNL     1      -2.811   1.485   0.107  0.00  0.00    +0.163 C 
ATOM      8  O   UNL     1      -4.018   1.623   0.151  0.00  0.00    -0.292 OA
ATOM      9  N   UNL     1       0.095   1.796   2.324  0.00  0.00    -0.316 N 
ATOM     10  C   UNL     1       0.052   2.924   3.135  0.00  0.00    +0.052 A 
ATOM     11  C   UNL     1       1.098   3.828   3.203  0.00  0.00    +0.025 A 
ATOM     12  C   UNL     1       1.009   4.905   4.068  0.00  0.00    +0.002 A 
ATOM     13  C   UNL     1      -0.113   5.075   4.857  0.00  0.00    +0.002 A 
ATOM     14  C   UNL     1      -1.168   4.182   4.778  0.00  0.00    +0.025 A 
ATOM     15  C   UNL     1      -1.091   3.115   3.897  0.00  0.00    +0.049 A 
ATOM     16  N   UNL     1      -2.170   2.255   3.700  0.00  0.00    -0.331 N 
ATOM     17  H   UNL     1       0.756   1.118   2.533  0.00  0.00    +0.152 HD
ATOM     18  H   UNL     1      -2.451   1.669   4.420  0.00  0.00    +0.147 HD
ENDROOT
BRANCH   1  23
ATOM     19  C   UNL     1      -3.841   7.740   1.585  0.00  0.00    +0.051 C 
ATOM     20  C   UNL     1      -3.832   6.240   1.733  0.00  0.00    -0.013 A 
ATOM     21  C   UNL     1      -4.827   5.353   1.488  0.00  0.00    +0.011 A 
ATOM     22  C   UNL     1      -4.591   4.007   1.697  0.00  0.00    +0.013 A 
ATOM     23  C   UNL     1      -3.372   3.615   2.142  0.00  0.00    +0.015 A 
ATOM     24  S   UNL     1      -2.512   5.173   2.284  0.00  0.00    -0.096 S 
ENDBRANCH   1  23
BRANCH   5  25
ATOM     25  C   UNL     1      -0.056   1.090  -2.475  0.00  0.00    -0.036 A 
ATOM     26  C   UNL     1       0.073  -0.269  -2.692  0.00  0.00    +0.053 A 
ATOM     27  C   UNL     1       0.704  -0.734  -3.836  0.00  0.00    +0.165 A 
ATOM     28  C   UNL     1       1.217   0.169  -4.760  0.00  0.00    +0.204 A 
ATOM     29  C   UNL     1       1.090   1.535  -4.535  0.00  0.00    +0.165 A 
ATOM     30  C   UNL     1       0.452   1.991  -3.391  0.00  0.00    +0.053 A 
BRANCH  29  31
ATOM     31  O   UNL     1       1.589   2.423  -5.436  0.00  0.00    -0.491 OA
ATOM     32  C   UNL     1       1.422   3.811  -5.141  0.00  0.00    +0.277 C 
ENDBRANCH  29  31
BRANCH  28  33
ATOM     33  O   UNL     1       1.841  -0.282  -5.881  0.00  0.00    -0.488 OA
ATOM     34  C   UNL     1       3.252  -0.496  -5.797  0.00  0.00    +0.277 C 
ENDBRANCH  28  33
BRANCH  27  35
ATOM     35  O   UNL     1       0.826  -2.071  -4.051  0.00  0.00    -0.491 OA
ATOM     36  C   UNL     1       0.276  -2.941  -3.059  0.00  0.00    +0.277 C 
ENDBRANCH  27  35
ENDBRANCH   5  25
TORSDOF 5
