REMARK  Name = ZINC32853689
REMARK  8 active torsions:
REMARK  status: ('A' for Active; 'I' for Inactive)
REMARK    1  A    between atoms: C_1  and  C_2
REMARK    2  A    between atoms: C_2  and  C_4
REMARK    3  A    between atoms: C_2  and  N_20
REMARK    4  A    between atoms: N_6  and  C_7
REMARK    5  A    between atoms: C_7  and  C_8
REMARK    6  A    between atoms: C_7  and  C_14
REMARK    7  A    between atoms: N_23  and  C_26
REMARK    8  A    between atoms: C_26  and  C_27
REMARK                            x       y       z     vdW  Elec       q    Type
REMARK                         _______ _______ _______ _____ _____    ______ ____
ROOT
ATOM      1  C   UNL     1      -0.019   1.526   0.010  0.00  0.00    +0.034 C 
ATOM      2  C   UNL     1       0.002  -0.004   0.002  0.00  0.00    +0.140 C 
ENDROOT
BRANCH   2   3
ATOM      3  N   UNL     1      -1.376  -0.512   0.012  0.00  0.00    -0.289 NA
ATOM      4  C   UNL     1      -2.140   0.059   1.130  0.00  0.00    +0.100 C 
ATOM      5  C   UNL     1      -3.542  -0.554   1.153  0.00  0.00    +0.100 C 
ATOM      6  N   UNL     1      -4.211  -0.289  -0.129  0.00  0.00    -0.294 NA
ATOM      7  C   UNL     1      -3.447  -0.861  -1.246  0.00  0.00    +0.100 C 
ATOM      8  C   UNL     1      -2.045  -0.248  -1.269  0.00  0.00    +0.100 C 
BRANCH   6   9
ATOM      9  C   UNL     1      -5.589  -0.798  -0.118  0.00  0.00    +0.139 C 
BRANCH   9  10
ATOM     10  C   UNL     1      -6.318  -0.298  -1.339  0.00  0.00    +0.048 A 
ATOM     11  C   UNL     1      -7.096   0.805  -1.397  0.00  0.00    +0.115 A 
ATOM     12  N   UNL     1      -7.566   0.902  -2.678  0.00  0.00    -0.308 N 
ATOM     13  C   UNL     1      -8.381   1.805  -3.296  0.00  0.00    +0.092 A 
ATOM     14  C   UNL     1      -8.695   1.665  -4.601  0.00  0.00    +0.018 A 
ATOM     15  C   UNL     1      -8.186   0.586  -5.342  0.00  0.00    +0.005 A 
ATOM     16  C   UNL     1      -7.372  -0.321  -4.738  0.00  0.00    +0.045 A 
ATOM     17  C   UNL     1      -7.053  -0.162  -3.374  0.00  0.00    +0.115 A 
ATOM     18  N   UNL     1      -6.298  -0.870  -2.546  0.00  0.00    -0.342 N 
ATOM     19  H   UNL     1      -5.811  -1.675  -2.778  0.00  0.00    +0.167 HD
ENDBRANCH   9  10
ENDBRANCH   6   9
ENDBRANCH   2   3
BRANCH   2  20
ATOM     20  C   UNL     1       0.731  -0.503   1.223  0.00  0.00    +0.231 C 
ATOM     21  O   UNL     1       0.159  -1.213   2.023  0.00  0.00    -0.274 OA
ATOM     22  N   UNL     1       2.019  -0.161   1.426  0.00  0.00    -0.303 N 
ATOM     23  H   UNL     1       2.476   0.406   0.786  0.00  0.00    +0.150 HD
BRANCH  22  24
ATOM     24  C   UNL     1       2.727  -0.647   2.613  0.00  0.00    +0.134 C 
BRANCH  24  25
ATOM     25  C   UNL     1       4.208  -0.676   2.337  0.00  0.00    -0.023 A 
ATOM     26  C   UNL     1       4.799   0.352   1.625  0.00  0.00    +0.006 A 
ATOM     27  C   UNL     1       6.158   0.325   1.372  0.00  0.00    +0.000 A 
ATOM     28  C   UNL     1       6.926  -0.729   1.830  0.00  0.00    +0.000 A 
ATOM     29  C   UNL     1       6.335  -1.756   2.542  0.00  0.00    +0.000 A 
ATOM     30  C   UNL     1       4.977  -1.727   2.799  0.00  0.00    +0.006 A 
ENDBRANCH  24  25
BRANCH  24  31
ATOM     31  C   UNL     1       2.451   0.273   3.774  0.00  0.00    -0.023 A 
ATOM     32  C   UNL     1       2.400   1.640   3.576  0.00  0.00    +0.006 A 
ATOM     33  C   UNL     1       2.147   2.484   4.641  0.00  0.00    +0.000 A 
ATOM     34  C   UNL     1       1.943   1.961   5.904  0.00  0.00    +0.000 A 
ATOM     35  C   UNL     1       1.992   0.593   6.102  0.00  0.00    +0.000 A 
ATOM     36  C   UNL     1       2.242  -0.251   5.036  0.00  0.00    +0.006 A 
ENDBRANCH  24  31
ENDBRANCH  22  24
ENDBRANCH   2  20
TORSDOF 7
