REMARK  Name = ZINC01097638
REMARK  9 active torsions:
REMARK  status: ('A' for Active; 'I' for Inactive)
REMARK    1  A    between atoms: C_1  and  C_2
REMARK    2  A    between atoms: C_2  and  O_3
REMARK    3  A    between atoms: O_3  and  C_4
REMARK    4  A    between atoms: C_6  and  C_12
REMARK    5  A    between atoms: C_9  and  O_10
REMARK    6  A    between atoms: O_10  and  C_11
REMARK    7  A    between atoms: N_25  and  S_26
REMARK    8  A    between atoms: S_26  and  C_29
REMARK    9  A    between atoms: C_32  and  C_35
REMARK                            x       y       z     vdW  Elec       q    Type
REMARK                         _______ _______ _______ _____ _____    ______ ____
ROOT
ATOM      1  C   UNL     1       2.451   3.928  -0.005  0.00  0.00    +0.057 C 
ATOM      2  C   UNL     1       3.486   1.676  -0.441  0.00  0.00    -0.070 C 
ATOM      3  C   UNL     1       4.854   1.147  -0.893  0.00  0.00    +0.017 C 
ATOM      4  C   UNL     1       5.357   1.862  -2.120  0.00  0.00    -0.047 A 
ATOM      5  C   UNL     1       6.527   1.405  -2.711  0.00  0.00    +0.004 A 
ATOM      6  C   UNL     1       7.054   2.045  -3.813  0.00  0.00    +0.000 A 
ATOM      7  C   UNL     1       6.419   3.154  -4.340  0.00  0.00    +0.000 A 
ATOM      8  C   UNL     1       5.249   3.610  -3.763  0.00  0.00    +0.002 A 
ATOM      9  C   UNL     1       4.716   2.964  -2.663  0.00  0.00    -0.056 A 
ATOM     10  C   UNL     1       3.442   3.443  -2.048  0.00  0.00    -0.019 C 
ATOM     11  C   UNL     1       3.268   4.967  -1.992  0.00  0.00    +0.097 C 
ATOM     12  N   UNL     1       2.330   5.140  -0.850  0.00  0.00    -0.187 NA
ATOM     13  N   UNL     1       3.539   3.172  -0.644  0.00  0.00    +0.400 N 
ATOM     14  H   UNL     1       4.436   3.515  -0.279  0.00  0.00    -0.078 HD
ENDROOT
BRANCH   1  17
ATOM     15  C   UNL     1      -0.597   2.038   1.184  0.00  0.00    +0.162 A 
ATOM     16  C   UNL     1       0.598   2.741   1.186  0.00  0.00    +0.052 A 
ATOM     17  C   UNL     1       1.152   3.163  -0.008  0.00  0.00    -0.042 A 
ATOM     18  C   UNL     1       0.518   2.886  -1.205  0.00  0.00    +0.007 A 
ATOM     19  C   UNL     1      -0.673   2.185  -1.213  0.00  0.00    +0.049 A 
ATOM     20  C   UNL     1      -1.238   1.764  -0.020  0.00  0.00    +0.162 A 
BRANCH  20  21
ATOM     21  O   UNL     1      -2.413   1.079  -0.026  0.00  0.00    -0.491 OA
ATOM     22  C   UNL     1      -3.011   0.828  -1.299  0.00  0.00    +0.277 C 
ENDBRANCH  20  21
BRANCH  15  23
ATOM     23  O   UNL     1      -1.144   1.623   2.358  0.00  0.00    -0.489 OA
BRANCH  23  25
ATOM     24  C   UNL     1      -1.197   1.400   4.764  0.00  0.00    +0.048 C 
ATOM     25  C   UNL     1      -0.434   1.946   3.555  0.00  0.00    +0.226 C 
ENDBRANCH  23  25
ENDBRANCH  15  23
ENDBRANCH   1  17
BRANCH  12  26
ATOM     26  S   UNL     1       1.339   6.438  -0.577  0.00  0.00    +0.060 S 
ATOM     27  O   UNL     1       1.019   6.981  -1.850  0.00  0.00    -0.153 OA
ATOM     28  O   UNL     1       0.343   6.003   0.338  0.00  0.00    -0.153 OA
BRANCH  26  29
ATOM     29  C   UNL     1       2.296   7.656   0.263  0.00  0.00    +0.105 A 
ATOM     30  C   UNL     1       2.342   7.667   1.645  0.00  0.00    +0.029 A 
ATOM     31  C   UNL     1       3.097   8.620   2.304  0.00  0.00    +0.005 A 
ATOM     32  C   UNL     1       3.797   9.567   1.581  0.00  0.00    -0.050 A 
ATOM     33  C   UNL     1       3.747   9.559   0.200  0.00  0.00    +0.005 A 
ATOM     34  C   UNL     1       2.997   8.604  -0.459  0.00  0.00    +0.029 A 
ATOM     35  C   UNL     1       4.615  10.610   2.300  0.00  0.00    +0.044 C 
ENDBRANCH  26  29
ENDBRANCH  12  26
TORSDOF 6
