REMARK  Name = ZINC25392068
REMARK  9 active torsions:
REMARK  status: ('A' for Active; 'I' for Inactive)
REMARK    1  A    between atoms: C_1  and  C_2
REMARK    2  A    between atoms: C_2  and  C_36
REMARK    3  A    between atoms: C_13  and  C_15
REMARK    4  A    between atoms: C_15  and  N_16
REMARK    5  A    between atoms: C_21  and  O_34
REMARK    6  A    between atoms: C_22  and  O_32
REMARK    7  A    between atoms: C_25  and  C_27
REMARK    8  A    between atoms: O_32  and  C_33
REMARK    9  A    between atoms: O_34  and  C_35
REMARK                            x       y       z     vdW  Elec       q    Type
REMARK                         _______ _______ _______ _____ _____    ______ ____
ROOT
ATOM      1  N   UNL     1      -1.597  -1.844  -1.106  0.00  0.00    +0.393 N 
ATOM      2  C   UNL     1      -0.243  -2.168  -0.628  0.00  0.00    -0.072 C 
ATOM      3  C   UNL     1       0.769  -1.424  -1.500  0.00  0.00    +0.017 C 
ATOM      4  C   UNL     1       0.396   0.034  -1.592  0.00  0.00    -0.043 A 
ATOM      5  C   UNL     1       1.357   0.934  -2.030  0.00  0.00    +0.053 A 
ATOM      6  C   UNL     1       1.058   2.280  -2.136  0.00  0.00    +0.162 A 
ATOM      7  C   UNL     1      -0.215   2.732  -1.798  0.00  0.00    +0.162 A 
ATOM      8  C   UNL     1      -1.169   1.831  -1.360  0.00  0.00    +0.052 A 
ATOM      9  C   UNL     1      -0.864   0.481  -1.256  0.00  0.00    -0.049 A 
ATOM     10  C   UNL     1      -1.936  -0.458  -0.769  0.00  0.00    +0.001 C 
ATOM     11  H   UNL     1      -1.617  -1.947  -2.201  0.00  0.00    -0.080 HD
ENDROOT
BRANCH  10  12
ATOM     12  C   UNL     1      -3.247  -0.096  -1.418  0.00  0.00    -0.019 A 
ATOM     13  C   UNL     1      -4.284   0.615  -0.910  0.00  0.00    +0.010 A 
ATOM     14  C   UNL     1      -5.399   0.830  -1.698  0.00  0.00    +0.008 A 
ATOM     15  C   UNL     1      -5.427   0.315  -2.952  0.00  0.00    +0.045 A 
ATOM     16  S   UNL     1      -3.841  -0.497  -3.054  0.00  0.00    -0.103 S 
ENDBRANCH  10  12
BRANCH   7  17
ATOM     17  O   UNL     1      -0.520   4.053  -1.900  0.00  0.00    -0.491 OA
ATOM     18  C   UNL     1      -1.846   4.443  -1.537  0.00  0.00    +0.277 C 
ENDBRANCH   7  17
BRANCH   6  19
ATOM     19  O   UNL     1       2.002   3.159  -2.566  0.00  0.00    -0.491 OA
ATOM     20  C   UNL     1       3.286   2.622  -2.894  0.00  0.00    +0.277 C 
ENDBRANCH   6  19
BRANCH   1  21
ATOM     21  C   UNL     1      -2.587  -2.778  -0.553  0.00  0.00    +0.020 C 
BRANCH  21  34
ATOM     22  C   UNL     1      -1.871  -6.495  -2.428  0.00  0.00    +0.042 C 
ATOM     23  C   UNL     1      -3.057  -6.480  -1.462  0.00  0.00    +0.113 C 
ATOM     24  C   UNL     1      -4.284  -6.989  -2.166  0.00  0.00    +0.241 C 
ATOM     25  O   UNL     1      -4.170  -7.818  -3.044  0.00  0.00    -0.273 OA
ATOM     26  N   UNL     1      -5.508  -6.534  -1.836  0.00  0.00    -0.282 N 
ATOM     27  C   UNL     1      -5.663  -5.542  -0.861  0.00  0.00    +0.055 A 
ATOM     28  C   UNL     1      -6.908  -5.273  -0.316  0.00  0.00    +0.025 A 
ATOM     29  C   UNL     1      -7.042  -4.282   0.639  0.00  0.00    +0.002 A 
ATOM     30  C   UNL     1      -5.939  -3.557   1.052  0.00  0.00    +0.002 A 
ATOM     31  C   UNL     1      -4.692  -3.819   0.514  0.00  0.00    +0.025 A 
ATOM     32  C   UNL     1      -4.551  -4.811  -0.440  0.00  0.00    +0.058 A 
ATOM     33  N   UNL     1      -3.299  -5.104  -1.001  0.00  0.00    -0.257 N 
ATOM     34  C   UNL     1      -2.350  -4.155  -1.119  0.00  0.00    +0.204 C 
ATOM     35  O   UNL     1      -1.305  -4.408  -1.679  0.00  0.00    -0.277 OA
ATOM     36  C   UNL     1      -2.753  -7.377  -0.260  0.00  0.00    +0.042 C 
ATOM     37  H   UNL     1      -6.399  -6.942  -2.335  0.00  0.00    +0.155 HD
ENDBRANCH  21  34
ENDBRANCH   1  21
TORSDOF 5
