REMARK  Name = ZINC35707108
REMARK  6 active torsions:
REMARK  status: ('A' for Active; 'I' for Inactive)
REMARK    1  A    between atoms: C_1  and  C_2
REMARK    2  A    between atoms: C_7  and  N_8
REMARK    3  A    between atoms: N_11  and  C_12
REMARK    4  A    between atoms: N_11  and  C_36
REMARK    5  A    between atoms: C_12  and  C_13
REMARK    6  A    between atoms: C_27  and  C_29
REMARK                            x       y       z     vdW  Elec       q    Type
REMARK                         _______ _______ _______ _____ _____    ______ ____
ROOT
ATOM      1  C   UNL     1       1.677  -1.079   6.286  0.00  0.00    +0.238 C 
ATOM      2  O   UNL     1       0.540  -1.011   5.868  0.00  0.00    -0.273 OA
ATOM      3  N   UNL     1       1.927  -1.687   7.463  0.00  0.00    -0.255 N 
ATOM      4  C   UNL     1       0.896  -2.354   8.139  0.00  0.00    +0.061 A 
ATOM      5  C   UNL     1      -0.153  -2.925   7.436  0.00  0.00    +0.025 A 
ATOM      6  C   UNL     1      -1.169  -3.571   8.117  0.00  0.00    +0.002 A 
ATOM      7  C   UNL     1      -1.147  -3.650   9.497  0.00  0.00    +0.002 A 
ATOM      8  C   UNL     1      -0.102  -3.086  10.209  0.00  0.00    +0.028 A 
ATOM      9  C   UNL     1       0.919  -2.445   9.535  0.00  0.00    +0.068 A 
ATOM     10  N   UNL     1       2.012  -1.882  10.210  0.00  0.00    -0.316 N 
ATOM     11  C   UNL     1       2.185  -1.623  11.528  0.00  0.00    +0.092 A 
ATOM     12  C   UNL     1       3.407  -1.069  11.691  0.00  0.00    +0.020 A 
ATOM     13  C   UNL     1       4.011  -0.986  10.417  0.00  0.00    +0.025 A 
ATOM     14  C   UNL     1       3.145  -1.489   9.531  0.00  0.00    +0.049 A 
ATOM     15  C   UNL     1       3.284  -1.654   8.033  0.00  0.00    +0.159 C 
ENDROOT
BRANCH  15  16
ATOM     16  C   UNL     1       4.000  -2.943   7.721  0.00  0.00    -0.021 A 
ATOM     17  C   UNL     1       3.318  -4.144   7.780  0.00  0.00    +0.007 A 
ATOM     18  C   UNL     1       3.974  -5.326   7.494  0.00  0.00    +0.020 A 
ATOM     19  C   UNL     1       5.314  -5.308   7.149  0.00  0.00    +0.041 A 
ATOM     20  C   UNL     1       5.996  -4.105   7.090  0.00  0.00    +0.020 A 
ATOM     21  C   UNL     1       5.337  -2.923   7.371  0.00  0.00    +0.007 A 
ATOM     22 CL   UNL     1       6.139  -6.792   6.790  0.00  0.00    -0.084 Cl
ENDBRANCH  15  16
BRANCH   1  23
ATOM     23  C   UNL     1       2.809  -0.484   5.490  0.00  0.00    +0.205 C 
BRANCH  23  27
ATOM     24  N   UNL     1       1.291   1.756   3.003  0.00  0.00    -0.269 N 
ATOM     25  C   UNL     1       1.865   1.310   4.138  0.00  0.00    +0.307 C 
ATOM     26  O   UNL     1       1.996   2.057   5.088  0.00  0.00    -0.252 OA
ATOM     27  N   UNL     1       2.294   0.034   4.220  0.00  0.00    -0.274 N 
ATOM     28  H   UNL     1       1.119   1.141   2.272  0.00  0.00    +0.156 HD
BRANCH  24  35
ATOM     29  C   UNL     1       1.381   2.932   0.413  0.00  0.00    +0.045 C 
ATOM     30  C   UNL     1       0.975   3.719   1.632  0.00  0.00    -0.029 A 
ATOM     31  C   UNL     1       0.627   5.050   1.511  0.00  0.00    +0.005 A 
ATOM     32  C   UNL     1       0.255   5.774   2.629  0.00  0.00    +0.000 A 
ATOM     33  C   UNL     1       0.230   5.167   3.872  0.00  0.00    +0.002 A 
ATOM     34  C   UNL     1       0.576   3.837   3.999  0.00  0.00    +0.023 A 
ATOM     35  C   UNL     1       0.945   3.106   2.877  0.00  0.00    +0.038 A 
ENDBRANCH  24  35
BRANCH  27  36
ATOM     36  C   UNL     1       2.244  -0.833   3.041  0.00  0.00    +0.078 C 
ATOM     37  C   UNL     1       3.031  -2.144   3.094  0.00  0.00    +0.024 C 
ATOM     38  C   UNL     1       1.503  -2.165   3.173  0.00  0.00    +0.024 C 
ENDBRANCH  27  36
ENDBRANCH  23  27
ENDBRANCH   1  23
TORSDOF 5
